REMARK  Name = ZINC16677656
REMARK  8 active torsions:
REMARK  status: ('A' for Active; 'I' for Inactive)
REMARK    1  A    between atoms: C_1  and  C_2
REMARK    2  A    between atoms: C_2  and  C_23
REMARK    3  A    between atoms: N_3  and  N_4
REMARK    4  A    between atoms: C_5  and  S_7
REMARK    5  A    between atoms: S_7  and  C_8
REMARK    6  A    between atoms: N_13  and  C_16
REMARK    7  A    between atoms: C_26  and  O_30
REMARK    8  A    between atoms: O_30  and  C_31
REMARK                            x       y       z     vdW  Elec       q    Type
REMARK                         _______ _______ _______ _____ _____    ______ ____
ROOT
ATOM      1  N   UNL     1       0.024   0.035   2.339  0.00  0.00    -0.217 N 
ATOM      2  C   UNL     1       0.044  -0.660   3.528  0.00  0.00    +0.146 C 
ATOM      3  N   UNL     1       0.062  -1.964   3.521  0.00  0.00    -0.380 N 
ATOM      4  H   UNL     1       0.011   1.005   2.345  0.00  0.00    +0.176 HD
ATOM      5  H   UNL     1       0.077  -2.454   4.358  0.00  0.00    +0.158 HD
ATOM      6  H   UNL     1       0.061  -2.445   2.678  0.00  0.00    +0.158 HD
ENDROOT
BRANCH   1   9
ATOM      7  C   UNL     1      -0.018   1.503   0.010  0.00  0.00    +0.068 C 
ATOM      8  C   UNL     1       0.002  -0.004   0.002  0.00  0.00    +0.063 C 
ATOM      9  N   UNL     1       0.022  -0.659   1.122  0.00  0.00    -0.185 NA
BRANCH   8  10
ATOM     10  C   UNL     1      -0.000  -0.734  -1.279  0.00  0.00    +0.000 A 
ATOM     11  C   UNL     1      -0.015  -0.031  -2.486  0.00  0.00    +0.013 A 
ATOM     12  C   UNL     1      -0.017  -0.717  -3.682  0.00  0.00    +0.049 A 
ATOM     13  C   UNL     1      -0.003  -2.105  -3.689  0.00  0.00    +0.155 A 
ATOM     14  C   UNL     1       0.011  -2.810  -2.490  0.00  0.00    +0.165 A 
ATOM     15  C   UNL     1       0.019  -2.131  -1.289  0.00  0.00    +0.051 A 
ATOM     16  F   UNL     1       0.024  -4.161  -2.502  0.00  0.00    -0.202 F 
BRANCH  13  17
ATOM     17  O   UNL     1      -0.005  -2.777  -4.870  0.00  0.00    -0.492 OA
ATOM     18  C   UNL     1      -0.021  -1.991  -6.064  0.00  0.00    +0.277 C 
ENDBRANCH  13  17
ENDBRANCH   8  10
ENDBRANCH   1   9
BRANCH   2  19
ATOM     19  S   UNL     1       0.047   0.213   5.059  0.00  0.00    -0.078 S 
BRANCH  19  20
ATOM     20  C   UNL     1       0.077  -1.099   6.311  0.00  0.00    +0.149 C 
ATOM     21  C   UNL     1       0.010  -0.496   7.729  0.00  0.00    +0.120 C 
ATOM     22  C   UNL     1       1.309  -0.941   8.365  0.00  0.00    +0.228 C 
ATOM     23  O   UNL     1       1.663  -0.681   9.495  0.00  0.00    -0.275 OA
ATOM     24  N   UNL     1       2.005  -1.668   7.483  0.00  0.00    -0.207 N 
ATOM     25  C   UNL     1       1.405  -1.823   6.292  0.00  0.00    +0.240 C 
ATOM     26  O   UNL     1       1.853  -2.443   5.351  0.00  0.00    -0.274 OA
BRANCH  24  27
ATOM     27  C   UNL     1       3.259  -2.225   7.778  0.00  0.00    +0.079 A 
ATOM     28  C   UNL     1       3.343  -3.501   8.317  0.00  0.00    +0.027 A 
ATOM     29  C   UNL     1       4.579  -4.047   8.607  0.00  0.00    +0.002 A 
ATOM     30  C   UNL     1       5.731  -3.324   8.361  0.00  0.00    +0.003 A 
ATOM     31  C   UNL     1       5.652  -2.052   7.824  0.00  0.00    +0.040 A 
ATOM     32  C   UNL     1       4.419  -1.502   7.526  0.00  0.00    +0.145 A 
ATOM     33  F   UNL     1       4.341  -0.262   6.996  0.00  0.00    -0.204 F 
ENDBRANCH  24  27
ENDBRANCH  19  20
ENDBRANCH   2  19
TORSDOF 6
