REMARK  Name = ZINC25261610
REMARK  6 active torsions:
REMARK  status: ('A' for Active; 'I' for Inactive)
REMARK    1  A    between atoms: C_4  and  C_7
REMARK    2  A    between atoms: C_7  and  N_8
REMARK    3  A    between atoms: C_17  and  C_19
REMARK    4  A    between atoms: N_21  and  N_22
REMARK    5  A    between atoms: C_23  and  C_25
REMARK    6  A    between atoms: C_25  and  C_26
REMARK                            x       y       z     vdW  Elec       q    Type
REMARK                         _______ _______ _______ _____ _____    ______ ____
ROOT
ATOM      1  C   UNL     1       1.081   7.216   3.256  0.00  0.00    +0.281 C 
ATOM      2  O   UNL     1       1.056   8.009   2.335  0.00  0.00    -0.267 OA
ATOM      3  N   UNL     1       1.107   5.892   3.005  0.00  0.00    -0.229 N 
ATOM      4  H   UNL     1       1.129   5.174   3.838  0.00  0.00    +0.173 HD
ENDROOT
BRANCH   1  14
ATOM      5  N   UNL     1       1.112   7.194   6.882  0.00  0.00    -0.224 N 
ATOM      6  C   UNL     1       1.088   8.476   7.302  0.00  0.00    +0.275 A 
ATOM      7  O   UNL     1       1.092   8.742   8.489  0.00  0.00    -0.266 OA
ATOM      8  C   UNL     1       1.057   9.542   6.292  0.00  0.00    +0.050 A 
ATOM      9  C   UNL     1       1.032  10.894   6.620  0.00  0.00    +0.014 A 
ATOM     10  C   UNL     1       1.004  11.834   5.612  0.00  0.00    +0.001 A 
ATOM     11  C   UNL     1       1.001  11.445   4.279  0.00  0.00    +0.001 A 
ATOM     12  C   UNL     1       1.026  10.111   3.933  0.00  0.00    +0.011 A 
ATOM     13  C   UNL     1       1.060   9.146   4.934  0.00  0.00    +0.020 A 
ATOM     14  C   UNL     1       1.082   7.703   4.650  0.00  0.00    +0.155 A 
ATOM     15  N   UNL     1       1.109   6.854   5.649  0.00  0.00    -0.163 NA
BRANCH   5  16
ATOM     16  C   UNL     1       1.142   6.134   7.893  0.00  0.00    +0.182 C 
BRANCH  16  20
ATOM     17  C   UNL     1      -2.854   5.019   8.909  0.00  0.00    +0.000 A 
ATOM     18  C   UNL     1      -2.198   4.374   7.878  0.00  0.00    +0.000 A 
ATOM     19  C   UNL     1      -0.905   4.735   7.549  0.00  0.00    +0.005 A 
ATOM     20  C   UNL     1      -0.268   5.741   8.251  0.00  0.00    -0.026 A 
ATOM     21  C   UNL     1      -0.923   6.383   9.286  0.00  0.00    +0.005 A 
ATOM     22  C   UNL     1      -2.218   6.026   9.611  0.00  0.00    +0.000 A 
ENDBRANCH  16  20
ENDBRANCH   5  16
ENDBRANCH   1  14
BRANCH   3  23
ATOM     23  N   UNL     1       1.105   5.430   1.682  0.00  0.00    -0.234 N 
ATOM     24  C   UNL     1       1.131   4.106   1.431  0.00  0.00    +0.233 C 
ATOM     25  O   UNL     1       1.156   3.314   2.349  0.00  0.00    -0.274 OA
ATOM     26  H   UNL     1       1.083   6.147   0.849  0.00  0.00    +0.173 HD
BRANCH  24  27
ATOM     27  C   UNL     1       1.130   3.609   0.008  0.00  0.00    +0.132 C 
BRANCH  27  28
ATOM     28  C   UNL     1       1.161   2.102   0.002  0.00  0.00    -0.038 A 
ATOM     29  C   UNL     1       2.372   1.434  -0.011  0.00  0.00    +0.004 A 
ATOM     30  C   UNL     1       2.393   0.055  -0.019  0.00  0.00    +0.004 A 
ATOM     31  C   UNL     1       1.207  -0.669  -0.015  0.00  0.00    -0.044 A 
ATOM     32  C   UNL     1       0.002  -0.004   0.002  0.00  0.00    -0.044 A 
ATOM     33  C   UNL     1      -0.017   1.385   0.010  0.00  0.00    +0.008 A 
ATOM     34  C   UNL     1      -1.321  -0.724   0.018  0.00  0.00    +0.035 C 
ATOM     35  C   UNL     1      -1.148  -2.176  -0.422  0.00  0.00    +0.005 C 
ATOM     36  C   UNL     1      -0.019  -2.800   0.405  0.00  0.00    +0.005 C 
ATOM     37  C   UNL     1       1.303  -2.173  -0.032  0.00  0.00    +0.035 C 
ENDBRANCH  27  28
ENDBRANCH  24  27
ENDBRANCH   3  23
TORSDOF 6
