REMARK  Name = ZINC03444212
REMARK  5 active torsions:
REMARK  status: ('A' for Active; 'I' for Inactive)
REMARK    1  A    between atoms: C_11  and  C_13
REMARK    2  A    between atoms: C_13  and  S_14
REMARK    3  A    between atoms: S_14  and  C_15
REMARK    4  A    between atoms: C_18  and  C_21
REMARK    5  A    between atoms: N_19  and  N_20
REMARK                            x       y       z     vdW  Elec       q    Type
REMARK                         _______ _______ _______ _____ _____    ______ ____
ROOT
ATOM      1  C   UNL     1      -2.666   5.973   0.330  0.00  0.00    +0.209 A 
ATOM      2  N   UNL     1      -1.475   6.517   0.445  0.00  0.00    -0.121 NA
ATOM      3  N   UNL     1      -1.584   7.788   0.601  0.00  0.00    -0.127 NA
ATOM      4  C   UNL     1      -2.850   8.133   0.604  0.00  0.00    +0.182 A 
ATOM      5  N   UNL     1      -3.583   6.981   0.430  0.00  0.00    -0.224 N 
ENDROOT
BRANCH   4   6
ATOM      6  C   UNL     1      -3.388   9.500   0.763  0.00  0.00    +0.023 A 
ATOM      7  C   UNL     1      -4.738   9.692   1.062  0.00  0.00    +0.012 A 
ATOM      8  C   UNL     1      -5.236  10.970   1.210  0.00  0.00    +0.003 A 
ATOM      9  C   UNL     1      -4.399  12.062   1.063  0.00  0.00    +0.038 A 
ATOM     10  C   UNL     1      -3.058  11.881   0.766  0.00  0.00    +0.124 A 
ATOM     11  C   UNL     1      -2.547  10.605   0.621  0.00  0.00    +0.050 A 
ATOM     12  F   UNL     1      -2.248  12.952   0.624  0.00  0.00    -0.205 F 
ENDBRANCH   4   6
BRANCH   5  13
ATOM     13  N   UNL     1      -4.943   6.869   0.371  0.00  0.00    -0.295 N 
ATOM     14  H   UNL     1      -5.341   6.809   1.296  0.00  0.00    +0.163 HD
ATOM     15  H   UNL     1      -5.346   7.634  -0.148  0.00  0.00    +0.163 HD
ENDBRANCH   5  13
BRANCH   1  16
ATOM     16  S   UNL     1      -3.016   4.262   0.098  0.00  0.00    -0.075 S 
BRANCH  16  17
ATOM     17  C   UNL     1      -1.332   3.598   0.067  0.00  0.00    +0.173 C 
BRANCH  17  28
ATOM     18  C   UNL     1      -0.437  -2.781  -0.227  0.00  0.00    +0.000 A 
ATOM     19  C   UNL     1      -1.584  -2.042  -0.002  0.00  0.00    +0.002 A 
ATOM     20  C   UNL     1      -1.516  -0.664   0.047  0.00  0.00    +0.024 A 
ATOM     21  C   UNL     1      -0.296  -0.021  -0.130  0.00  0.00    +0.039 A 
ATOM     22  C   UNL     1       0.853  -0.762  -0.353  0.00  0.00    -0.026 A 
ATOM     23  C   UNL     1       0.776  -2.144  -0.402  0.00  0.00    +0.005 A 
ATOM     24  C   UNL     1       2.192  -0.100  -0.543  0.00  0.00    +0.038 C 
ATOM     25  C   UNL     1       2.013   1.360  -0.957  0.00  0.00    +0.024 C 
ATOM     26  C   UNL     1       1.057   2.042   0.030  0.00  0.00    +0.114 C 
ATOM     27  N   UNL     1      -0.250   1.379  -0.080  0.00  0.00    -0.270 N 
ATOM     28  C   UNL     1      -1.384   2.105  -0.127  0.00  0.00    +0.230 C 
ATOM     29  O   UNL     1      -2.447   1.556  -0.326  0.00  0.00    -0.274 OA
ENDBRANCH  17  28
ENDBRANCH  16  17
ENDBRANCH   1  16
TORSDOF 5
