REMARK  Name = ZINC59514289
REMARK  5 active torsions:
REMARK  status: ('A' for Active; 'I' for Inactive)
REMARK    1  A    between atoms: C_2  and  C_3
REMARK    2  A    between atoms: C_3  and  O_4
REMARK    3  A    between atoms: O_4  and  C_5
REMARK    4  A    between atoms: C_6  and  C_13
REMARK    5  A    between atoms: N_14  and  N_15
REMARK                            x       y       z     vdW  Elec       q    Type
REMARK                         _______ _______ _______ _____ _____    ______ ____
ROOT
ATOM      1  C   UNL     1      -2.317  -2.629  -1.069  0.00  0.00    +0.143 A 
ATOM      2  C   UNL     1      -2.440  -3.780  -0.277  0.00  0.00    +0.038 A 
ATOM      3  C   UNL     1      -3.569  -4.591  -0.409  0.00  0.00    +0.027 A 
ATOM      4  C   UNL     1      -4.555  -4.256  -1.314  0.00  0.00    +0.015 A 
ATOM      5  C   UNL     1      -4.430  -3.119  -2.094  0.00  0.00    +0.032 A 
ATOM      6  C   UNL     1      -3.319  -2.304  -1.969  0.00  0.00    +0.057 A 
ATOM      7  I   UNL     1      -3.146  -0.582  -3.149  0.00  0.00    -0.040 I 
ATOM      8  I   UNL     1      -6.248  -5.474  -1.510  0.00  0.00    -0.044 I 
ENDROOT
BRANCH   2   9
ATOM      9  C   UNL     1      -1.383  -4.131   0.687  0.00  0.00    +0.142 C 
ATOM     10  N   UNL     1      -0.334  -3.375   0.806  0.00  0.00    -0.187 NA
BRANCH  10  11
ATOM     11  N   UNL     1       0.671  -3.709   1.723  0.00  0.00    -0.203 N 
ATOM     12  C   UNL     1       1.786  -2.904   1.849  0.00  0.00    +0.277 A 
ATOM     13  N   UNL     1       2.041  -1.783   1.176  0.00  0.00    -0.089 NA
ATOM     14  N   UNL     1       3.178  -1.334   1.584  0.00  0.00    -0.020 NA
ATOM     15  N   UNL     1       3.647  -2.125   2.485  0.00  0.00    -0.020 NA
ATOM     16  N   UNL     1       2.817  -3.094   2.673  0.00  0.00    -0.089 NA
ATOM     17  H   UNL     1       0.583  -4.506   2.269  0.00  0.00    +0.178 HD
ENDBRANCH  10  11
ENDBRANCH   2   9
BRANCH   1  18
ATOM     18  O   UNL     1      -1.224  -1.832  -0.949  0.00  0.00    -0.486 OA
BRANCH  18  19
ATOM     19  C   UNL     1      -1.293  -0.775   0.010  0.00  0.00    +0.256 C 
BRANCH  19  21
ATOM     20  C   UNL     1      -0.016   1.306   0.009  0.00  0.00    +0.007 C 
ATOM     21  C   UNL     1       0.002  -0.004   0.002  0.00  0.00    +0.006 C 
ENDBRANCH  19  21
ENDBRANCH  18  19
ENDBRANCH   1  18
TORSDOF 5
