REMARK  Name = ZINC08791063
REMARK  4 active torsions:
REMARK  status: ('A' for Active; 'I' for Inactive)
REMARK    1  A    between atoms: C_1  and  C_2
REMARK    2  A    between atoms: C_2  and  C_3
REMARK    3  A    between atoms: C_23  and  C_30
REMARK    4  A    between atoms: C_30  and  C_32
REMARK                            x       y       z     vdW  Elec       q    Type
REMARK                         _______ _______ _______ _____ _____    ______ ____
ROOT
ATOM      1  C   UNL     1       9.187   2.356  -0.654  0.00  0.00    -0.047 A 
ATOM      2  C   UNL     1       9.716   1.080  -0.597  0.00  0.00    +0.005 A 
ATOM      3  C   UNL     1       8.883  -0.019  -0.564  0.00  0.00    +0.024 A 
ATOM      4  C   UNL     1       7.500   0.149  -0.589  0.00  0.00    +0.036 A 
ATOM      5  C   UNL     1       6.979   1.438  -0.644  0.00  0.00    -0.026 A 
ATOM      6  C   UNL     1       7.814   2.533  -0.678  0.00  0.00    +0.008 A 
ATOM      7  C   UNL     1       5.482   1.282  -0.653  0.00  0.00    +0.060 C 
ATOM      8  C   UNL     1       5.252  -0.207  -0.599  0.00  0.00    +0.212 C 
ATOM      9  O   UNL     1       4.180  -0.773  -0.589  0.00  0.00    -0.277 OA
ATOM     10  N   UNL     1       6.466  -0.788  -0.564  0.00  0.00    -0.286 N 
ATOM     11  C   UNL     1       4.844   1.982   0.542  0.00  0.00    +0.085 C 
ATOM     12  C   UNL     1       4.594   1.049   1.689  0.00  0.00    -0.011 A 
ATOM     13  C   UNL     1       3.880  -0.121   1.824  0.00  0.00    +0.006 A 
ATOM     14  C   UNL     1       3.838  -0.770   3.046  0.00  0.00    +0.000 A 
ATOM     15  C   UNL     1       4.512  -0.239   4.131  0.00  0.00    +0.002 A 
ATOM     16  C   UNL     1       5.228   0.932   4.000  0.00  0.00    +0.023 A 
ATOM     17  C   UNL     1       5.278   1.591   2.774  0.00  0.00    +0.038 A 
ATOM     18  N   UNL     1       5.925   2.770   2.397  0.00  0.00    -0.285 N 
ATOM     19  C   UNL     1       5.721   3.069   1.099  0.00  0.00    +0.228 C 
ATOM     20  O   UNL     1       6.160   4.026   0.497  0.00  0.00    -0.275 OA
ATOM     21  C   UNL     1       3.529   2.559  -0.018  0.00  0.00    +0.069 C 
ATOM     22  C   UNL     1       3.942   2.924  -1.466  0.00  0.00    -0.055 C 
ATOM     23  C   UNL     1       4.054   0.830  -2.575  0.00  0.00    -0.076 C 
ATOM     24  C   UNL     1       3.014   1.671  -3.354  0.00  0.00    -0.020 C 
ATOM     25  C   UNL     1       2.711   2.832  -2.380  0.00  0.00    -0.016 C 
ATOM     26  H   UNL     1       6.606  -1.747  -0.527  0.00  0.00    +0.155 HD
ATOM     27  H   UNL     1       6.460   3.310   2.999  0.00  0.00    +0.155 HD
ATOM     28  N   UNL     1       4.853   1.862  -1.870  0.00  0.00    +0.395 N 
ATOM     29  H   UNL     1       5.579   2.232  -2.495  0.00  0.00    -0.079 HD
ENDROOT
BRANCH   1  31
ATOM     30  C   UNL     1      10.431   3.901  -2.142  0.00  0.00    +0.009 C 
ATOM     31  C   UNL     1      10.102   3.553  -0.689  0.00  0.00    +0.032 C 
ENDBRANCH   1  31
BRANCH  21  32
ATOM     32  C   UNL     1       2.438   1.519  -0.013  0.00  0.00    +0.201 C 
ATOM     33  O   UNL     1       2.225   0.858  -1.010  0.00  0.00    -0.289 OA
BRANCH  32  34
ATOM     34  C   UNL     1       1.664   1.312   1.151  0.00  0.00    +0.170 A 
ATOM     35  C   UNL     1       0.639   0.398   1.294  0.00  0.00    +0.053 A 
ATOM     36  C   UNL     1       0.155   0.545   2.602  0.00  0.00    +0.042 A 
ATOM     37  C   UNL     1       0.892   1.512   3.195  0.00  0.00    +0.196 A 
ATOM     38  O   UNL     1       1.794   1.973   2.321  0.00  0.00    -0.460 OA
ENDBRANCH  32  34
ENDBRANCH  21  32
TORSDOF 3
