REMARK  Name = ZINC40943054
REMARK  11 active torsions:
REMARK  status: ('A' for Active; 'I' for Inactive)
REMARK    1  A    between atoms: C_1  and  C_2
REMARK    2  A    between atoms: C_2  and  C_3
REMARK    3  A    between atoms: C_2  and  C_4
REMARK    4  A    between atoms: C_2  and  C_5
REMARK    5  A    between atoms: C_8  and  O_12
REMARK    6  A    between atoms: O_12  and  C_13
REMARK    7  A    between atoms: C_13  and  C_14
REMARK    8  A    between atoms: C_14  and  C_15
REMARK    9  A    between atoms: C_15  and  C_16
REMARK   10  A    between atoms: N_18  and  C_19
REMARK   11  A    between atoms: C_20  and  C_27
REMARK                            x       y       z     vdW  Elec       q    Type
REMARK                         _______ _______ _______ _____ _____    ______ ____
ROOT
ATOM      1  C   UNL     1       2.814  -4.299  -8.852  0.00  0.00    +0.218 C 
ATOM      2  O   UNL     1       3.963  -3.914  -8.914  0.00  0.00    -0.275 OA
ATOM      3  N   UNL     1       2.310  -5.075  -9.832  0.00  0.00    -0.279 N 
ATOM      4  H   UNL     1       1.392  -5.383  -9.783  0.00  0.00    +0.155 HD
ENDROOT
BRANCH   3   5
ATOM      5  C   UNL     1       3.104  -5.432 -10.911  0.00  0.00    +0.084 A 
ATOM      6  C   UNL     1       2.758  -6.209 -12.001  0.00  0.00    +0.068 A 
ATOM      7  C   UNL     1       3.788  -6.441 -13.013  0.00  0.00    -0.023 A 
ATOM      8  C   UNL     1       4.966  -5.852 -12.741  0.00  0.00    -0.004 A 
ATOM      9  S   UNL     1       4.704  -5.016 -11.198  0.00  0.00    -0.077 S 
ATOM     10  C   UNL     1       5.990  -6.125 -13.810  0.00  0.00    +0.043 C 
ATOM     11  C   UNL     1       5.423  -7.329 -14.595  0.00  0.00    +0.010 C 
ATOM     12  C   UNL     1       3.908  -7.186 -14.341  0.00  0.00    +0.037 C 
BRANCH   6  13
ATOM     13  C   UNL     1       1.414  -6.778 -12.137  0.00  0.00    +0.244 C 
ATOM     14  O   UNL     1       0.542  -6.150 -12.709  0.00  0.00    -0.270 OA
ATOM     15  N   UNL     1       1.143  -7.996 -11.627  0.00  0.00    -0.325 N 
ATOM     16  H   UNL     1       1.837  -8.496 -11.171  0.00  0.00    +0.145 HD
ATOM     17  H   UNL     1       0.253  -8.372 -11.716  0.00  0.00    +0.145 HD
ENDBRANCH   6  13
ENDBRANCH   3   5
BRANCH   1  18
ATOM     18  C   UNL     1       1.951  -3.910  -7.680  0.00  0.00    +0.099 C 
BRANCH  18  19
ATOM     19  C   UNL     1       2.759  -3.035  -6.720  0.00  0.00    +0.050 C 
BRANCH  19  20
ATOM     20  C   UNL     1       1.883  -2.640  -5.529  0.00  0.00    +0.229 C 
BRANCH  20  21
ATOM     21  O   UNL     1       2.638  -1.823  -4.633  0.00  0.00    -0.491 OA
BRANCH  21  25
ATOM     22  C   UNL     1       0.707  -0.490  -1.238  0.00  0.00    -0.041 A 
ATOM     23  C   UNL     1       0.035  -1.284  -2.148  0.00  0.00    +0.008 A 
ATOM     24  C   UNL     1       0.679  -1.732  -3.285  0.00  0.00    +0.047 A 
ATOM     25  C   UNL     1       2.002  -1.383  -3.514  0.00  0.00    +0.134 A 
ATOM     26  C   UNL     1       2.675  -0.586  -2.600  0.00  0.00    +0.060 A 
ATOM     27  C   UNL     1       2.024  -0.136  -1.466  0.00  0.00    +0.023 A 
ATOM     28 BR   UNL     1       4.479  -0.108  -2.908  0.00  0.00    -0.047 Br
BRANCH  22  30
ATOM     29  C   UNL     1      -0.019   1.526   0.010  0.00  0.00    +0.015 C 
ATOM     30  C   UNL     1       0.002  -0.004   0.002  0.00  0.00    -0.013 C 
ATOM     31  C   UNL     1       0.742  -0.511   1.242  0.00  0.00    +0.015 C 
ATOM     32  C   UNL     1      -1.433  -0.534   0.013  0.00  0.00    +0.015 C 
ENDBRANCH  22  30
ENDBRANCH  21  25
ENDBRANCH  20  21
ENDBRANCH  19  20
ENDBRANCH  18  19
ENDBRANCH   1  18
TORSDOF 8
