REMARK  Name = ZINC44879393
REMARK  10 active torsions:
REMARK  status: ('A' for Active; 'I' for Inactive)
REMARK    1  A    between atoms: C_1  and  C_2
REMARK    2  A    between atoms: N_7  and  C_9
REMARK    3  A    between atoms: C_9  and  C_10
REMARK    4  A    between atoms: C_13  and  C_16
REMARK    5  A    between atoms: C_16  and  N_17
REMARK    6  A    between atoms: N_17  and  S_18
REMARK    7  A    between atoms: S_18  and  C_21
REMARK    8  A    between atoms: C_24  and  S_35
REMARK    9  A    between atoms: C_25  and  C_27
REMARK   10  A    between atoms: S_35  and  C_36
REMARK                            x       y       z     vdW  Elec       q    Type
REMARK                         _______ _______ _______ _____ _____    ______ ____
ROOT
ATOM      1  S   UNL     1       1.616 -10.227   0.325  0.00  0.00    +0.059 S 
ATOM      2  O   UNL     1       0.800 -10.433  -0.820  0.00  0.00    -0.153 OA
ATOM      3  O   UNL     1       3.029 -10.375   0.290  0.00  0.00    -0.153 OA
ENDROOT
BRANCH   1   4
ATOM      4  C   UNL     1       1.026 -11.326   1.569  0.00  0.00    +0.106 A 
ATOM      5  C   UNL     1       1.869 -11.724   2.595  0.00  0.00    +0.029 A 
ATOM      6  C   UNL     1       1.421 -12.584   3.575  0.00  0.00    +0.017 A 
ATOM      7  C   UNL     1       0.114 -13.059   3.540  0.00  0.00    +0.020 A 
ATOM      8  C   UNL     1      -0.743 -12.657   2.502  0.00  0.00    +0.052 A 
ATOM      9  C   UNL     1      -0.274 -11.781   1.520  0.00  0.00    +0.042 A 
BRANCH   8  10
ATOM     10  C   UNL     1      -2.130 -13.153   2.453  0.00  0.00    +0.248 C 
ATOM     11  O   UNL     1      -2.858 -13.021   3.418  0.00  0.00    -0.270 OA
ATOM     12  N   UNL     1      -2.592 -13.752   1.337  0.00  0.00    -0.297 N 
ATOM     13  C   UNL     1      -1.691 -14.037   0.212  0.00  0.00    +0.108 C 
ATOM     14  C   UNL     1      -1.799 -15.523  -0.142  0.00  0.00    +0.019 C 
ATOM     15  C   UNL     1      -3.265 -15.875  -0.407  0.00  0.00    +0.003 C 
ATOM     16  C   UNL     1      -4.089 -15.618   0.857  0.00  0.00    +0.019 C 
ATOM     17  C   UNL     1      -4.005 -14.139   1.225  0.00  0.00    +0.108 C 
ENDBRANCH   8  10
BRANCH   7  18
ATOM     18  S   UNL     1      -0.463 -14.158   4.790  0.00  0.00    -0.128 S 
ATOM     19  C   UNL     1       0.972 -14.376   5.879  0.00  0.00    +0.090 C 
ENDBRANCH   7  18
ENDBRANCH   1   4
BRANCH   1  20
ATOM     20  N   UNL     1       1.314  -8.686   0.850  0.00  0.00    -0.186 NA
ATOM     21  H   UNL     1       0.689  -8.123   0.368  0.00  0.00    +0.148 HD
BRANCH  20  22
ATOM     22  C   UNL     1       1.992  -8.173   2.044  0.00  0.00    +0.141 C 
BRANCH  22  26
ATOM     23  C   UNL     1       1.573  -3.925   2.207  0.00  0.00    -0.064 A 
ATOM     24  C   UNL     1       0.628  -4.736   2.807  0.00  0.00    +0.002 A 
ATOM     25  C   UNL     1       0.764  -6.111   2.754  0.00  0.00    +0.005 A 
ATOM     26  C   UNL     1       1.844  -6.674   2.101  0.00  0.00    -0.032 A 
ATOM     27  C   UNL     1       2.788  -5.863   1.500  0.00  0.00    +0.005 A 
ATOM     28  C   UNL     1       2.651  -4.489   1.549  0.00  0.00    +0.002 A 
BRANCH  23  29
ATOM     29  C   UNL     1       1.426  -2.426   2.264  0.00  0.00    -0.043 C 
BRANCH  29  35
ATOM     30  C   UNL     1      -0.166   1.517  -0.162  0.00  0.00    +0.005 C 
ATOM     31  C   UNL     1      -0.130  -0.013  -0.152  0.00  0.00    -0.031 C 
ATOM     32  C   UNL     1      -1.561  -0.558  -0.133  0.00  0.00    -0.001 C 
ATOM     33  C   UNL     1      -1.513  -2.086  -0.044  0.00  0.00    -0.018 C 
ATOM     34  C   UNL     1      -0.720  -2.495   1.199  0.00  0.00    -0.078 C 
ATOM     35  N   UNL     1       0.646  -1.966   1.108  0.00  0.00    +0.383 N 
ATOM     36  C   UNL     1       0.613  -0.499   1.094  0.00  0.00    -0.075 C 
ATOM     37  H   UNL     1       1.079  -2.299   0.259  0.00  0.00    -0.081 HD
ENDBRANCH  29  35
ENDBRANCH  23  29
ENDBRANCH  22  26
ENDBRANCH  20  22
ENDBRANCH   1  20
TORSDOF 8
