REMARK  Name = ZINC58378231
REMARK  8 active torsions:
REMARK  status: ('A' for Active; 'I' for Inactive)
REMARK    1  A    between atoms: C_1  and  C_2
REMARK    2  A    between atoms: C_2  and  N_3
REMARK    3  A    between atoms: C_4  and  C_22
REMARK    4  A    between atoms: N_6  and  C_9
REMARK    5  A    between atoms: C_9  and  N_10
REMARK    6  A    between atoms: N_10  and  C_11
REMARK    7  A    between atoms: C_11  and  C_16
REMARK    8  A    between atoms: C_18  and  C_21
REMARK                            x       y       z     vdW  Elec       q    Type
REMARK                         _______ _______ _______ _____ _____    ______ ____
ROOT
ATOM      1  N   UNL     1       0.644  -0.216  -1.369  0.00  0.00    -0.303 N 
ATOM      2  C   UNL     1      -0.102  -0.653  -2.446  0.00  0.00    +0.163 A 
ATOM      3  N   UNL     1       0.677  -1.331  -3.241  0.00  0.00    -0.152 NA
ATOM      4  N   UNL     1       1.962  -1.345  -2.682  0.00  0.00    -0.258 N 
ATOM      5  C   UNL     1       1.911  -0.645  -1.530  0.00  0.00    +0.177 A 
ATOM      6  S   UNL     1       3.220  -0.355  -0.464  0.00  0.00    -0.011 S 
ENDROOT
BRANCH   2   7
ATOM      7  C   UNL     1      -1.543  -0.395  -2.661  0.00  0.00    +0.019 A 
ATOM      8  C   UNL     1      -2.171   0.663  -2.003  0.00  0.00    +0.013 A 
ATOM      9  C   UNL     1      -3.514   0.899  -2.207  0.00  0.00    +0.021 A 
ATOM     10  C   UNL     1      -4.240   0.088  -3.064  0.00  0.00    +0.041 A 
ATOM     11  C   UNL     1      -3.622  -0.963  -3.720  0.00  0.00    +0.021 A 
ATOM     12  C   UNL     1      -2.277  -1.205  -3.527  0.00  0.00    +0.013 A 
ATOM     13 CL   UNL     1      -5.930   0.391  -3.317  0.00  0.00    -0.084 Cl
ENDBRANCH   2   7
BRANCH   1  15
ATOM     14  C   UNL     1       0.392   2.066  -0.526  0.00  0.00    +0.027 C 
ATOM     15  C   UNL     1       0.144   0.582  -0.246  0.00  0.00    +0.122 C 
ENDBRANCH   1  15
BRANCH   4  16
ATOM     16  C   UNL     1       3.146  -1.997  -3.247  0.00  0.00    +0.069 C 
BRANCH  16  17
ATOM     17  N   UNL     1       3.648  -1.206  -4.378  0.00  0.00    +0.400 N 
ATOM     18  H   UNL     1       2.931  -1.138  -5.085  0.00  0.00    -0.082 HD
ATOM     19  H   UNL     1       3.894  -0.281  -4.059  0.00  0.00    -0.082 HD
BRANCH  17  20
ATOM     20  C   UNL     1       4.835  -1.860  -4.946  0.00  0.00    -0.001 C 
ATOM     21  C   UNL     1       5.964  -1.907  -3.896  0.00  0.00    -0.005 C 
ATOM     22  C   UNL     1       7.256  -1.670  -4.717  0.00  0.00    -0.001 C 
ATOM     23  C   UNL     1       6.808  -0.619  -5.763  0.00  0.00    -0.001 C 
ATOM     24  C   UNL     1       5.371  -1.041  -6.133  0.00  0.00    -0.005 C 
BRANCH  20  25
ATOM     25  C   UNL     1       4.489  -3.256  -5.396  0.00  0.00    +0.161 A 
ATOM     26  N   UNL     1       3.917  -4.199  -4.638  0.00  0.00    -0.198 NA
ATOM     27  C   UNL     1       3.755  -5.292  -5.330  0.00  0.00    +0.224 A 
ATOM     28  O   UNL     1       4.223  -5.079  -6.566  0.00  0.00    -0.338 OA
ATOM     29  N   UNL     1       4.692  -3.739  -6.587  0.00  0.00    -0.063 NA
ATOM     30  C   UNL     1       3.145  -6.574  -4.825  0.00  0.00    +0.112 C 
ENDBRANCH  20  25
ENDBRANCH  17  20
ENDBRANCH  16  17
ENDBRANCH   4  16
TORSDOF 6
