REMARK  Name = ZINC16790830
REMARK  8 active torsions:
REMARK  status: ('A' for Active; 'I' for Inactive)
REMARK    1  A    between atoms: C_1  and  C_2
REMARK    2  A    between atoms: C_2  and  C_4
REMARK    3  A    between atoms: C_2  and  S_15
REMARK    4  A    between atoms: N_6  and  C_7
REMARK    5  A    between atoms: C_8  and  C_12
REMARK    6  A    between atoms: S_15  and  C_16
REMARK    7  A    between atoms: C_19  and  C_22
REMARK    8  A    between atoms: N_20  and  N_21
REMARK                            x       y       z     vdW  Elec       q    Type
REMARK                         _______ _______ _______ _____ _____    ______ ____
ROOT
ATOM      1  C   UNL     1       2.310   9.620   1.433  0.00  0.00    +0.029 C 
ATOM      2  C   UNL     1       2.730   9.583  -0.038  0.00  0.00    +0.137 C 
ENDROOT
BRANCH   2   3
ATOM      3  C   UNL     1       3.694  10.708  -0.314  0.00  0.00    +0.231 C 
ATOM      4  O   UNL     1       4.886  10.488  -0.357  0.00  0.00    -0.274 OA
ATOM      5  N   UNL     1       3.232  11.959  -0.512  0.00  0.00    -0.278 N 
ATOM      6  H   UNL     1       2.279  12.135  -0.477  0.00  0.00    +0.155 HD
BRANCH   5   7
ATOM      7  C   UNL     1       4.120  12.993  -0.765  0.00  0.00    +0.084 A 
ATOM      8  C   UNL     1       3.839  14.334  -0.999  0.00  0.00    +0.065 A 
ATOM      9  C   UNL     1       4.968  15.203  -1.233  0.00  0.00    +0.022 A 
ATOM     10  C   UNL     1       6.189  14.641  -1.216  0.00  0.00    +0.048 A 
ATOM     11  S   UNL     1       5.847  12.927  -0.875  0.00  0.00    -0.081 S 
BRANCH   8  12
ATOM     12  C   UNL     1       2.463  14.842  -1.003  0.00  0.00    +0.244 C 
ATOM     13  O   UNL     1       1.534  14.084  -0.798  0.00  0.00    -0.270 OA
ATOM     14  N   UNL     1       2.228  16.149  -1.233  0.00  0.00    -0.325 N 
ATOM     15  H   UNL     1       2.969  16.754  -1.396  0.00  0.00    +0.145 HD
ATOM     16  H   UNL     1       1.319  16.485  -1.236  0.00  0.00    +0.145 HD
ENDBRANCH   8  12
ENDBRANCH   5   7
ENDBRANCH   2   3
BRANCH   2  17
ATOM     17  S   UNL     1       3.530   8.000  -0.397  0.00  0.00    -0.072 S 
BRANCH  17  18
ATOM     18  C   UNL     1       2.172   6.906  -0.144  0.00  0.00    +0.209 A 
ATOM     19  N   UNL     1       0.953   7.247   0.208  0.00  0.00    -0.121 NA
ATOM     20  N   UNL     1       0.212   6.201   0.304  0.00  0.00    -0.126 NA
ATOM     21  C   UNL     1       0.914   5.126   0.019  0.00  0.00    +0.188 A 
ATOM     22  N   UNL     1       2.193   5.545  -0.272  0.00  0.00    -0.223 N 
BRANCH  21  23
ATOM     23  C   UNL     1       0.426   3.737   0.017  0.00  0.00    +0.058 A 
ATOM     24  C   UNL     1      -0.866   3.275   0.026  0.00  0.00    +0.019 A 
ATOM     25  C   UNL     1      -1.081   1.915   0.017  0.00  0.00    +0.008 A 
ATOM     26  C   UNL     1      -0.013   1.076   0.008  0.00  0.00    +0.046 A 
ATOM     27  S   UNL     1       1.361   2.216   0.001  0.00  0.00    -0.093 S 
ENDBRANCH  21  23
BRANCH  22  28
ATOM     28  N   UNL     1       3.259   4.764  -0.618  0.00  0.00    -0.295 N 
ATOM     29  H   UNL     1       3.308   4.641  -1.618  0.00  0.00    +0.163 HD
ATOM     30  H   UNL     1       4.120   5.149  -0.259  0.00  0.00    +0.163 HD
ENDBRANCH  22  28
ENDBRANCH  17  18
ENDBRANCH   2  17
TORSDOF 7
