REMARK  Name = ZINC63265306
REMARK  6 active torsions:
REMARK  status: ('A' for Active; 'I' for Inactive)
REMARK    1  A    between atoms: C_1  and  C_2
REMARK    2  A    between atoms: C_2  and  C_3
REMARK    3  A    between atoms: C_2  and  N_4
REMARK    4  A    between atoms: N_7  and  N_8
REMARK    5  A    between atoms: C_9  and  C_11
REMARK    6  A    between atoms: C_14  and  C_16
REMARK                            x       y       z     vdW  Elec       q    Type
REMARK                         _______ _______ _______ _____ _____    ______ ____
ROOT
ATOM      1  N   UNL     1       2.066  -1.394   3.370  0.00  0.00    -0.228 N 
ATOM      2  C   UNL     1       2.718  -1.841   4.462  0.00  0.00    +0.279 C 
ATOM      3  O   UNL     1       2.123  -1.971   5.514  0.00  0.00    -0.267 OA
ATOM      4  H   UNL     1       2.541  -1.290   2.530  0.00  0.00    +0.173 HD
ENDROOT
BRANCH   1   8
ATOM      5  N   UNL     1       0.711  -0.489   1.189  0.00  0.00    -0.296 N 
ATOM      6  C   UNL     1       0.051  -0.633   2.355  0.00  0.00    +0.316 C 
ATOM      7  O   UNL     1      -1.132  -0.361   2.423  0.00  0.00    -0.251 OA
ATOM      8  N   UNL     1       0.703  -1.080   3.447  0.00  0.00    -0.218 N 
ATOM      9  H   UNL     1       1.654  -0.707   1.135  0.00  0.00    +0.151 HD
ATOM     10  H   UNL     1       0.229  -1.184   4.287  0.00  0.00    +0.174 HD
BRANCH   5  12
ATOM     11  C   UNL     1      -0.019   1.526   0.010  0.00  0.00    +0.027 C 
ATOM     12  C   UNL     1       0.002  -0.004   0.002  0.00  0.00    +0.068 C 
ATOM     13  C   UNL     1       0.718  -0.497  -1.257  0.00  0.00    +0.027 C 
ENDBRANCH   5  12
ENDBRANCH   1   8
BRANCH   2  14
ATOM     14  C   UNL     1       4.151  -2.171   4.380  0.00  0.00    +0.135 A 
ATOM     15  C   UNL     1       4.821  -2.630   5.482  0.00  0.00    +0.080 A 
ATOM     16  S   UNL     1       6.381  -2.856   4.893  0.00  0.00    -0.074 S 
ATOM     17  C   UNL     1       6.097  -2.337   3.211  0.00  0.00    +0.116 A 
ATOM     18  N   UNL     1       4.809  -2.033   3.236  0.00  0.00    -0.234 NA
BRANCH  17  19
ATOM     19  C   UNL     1       7.044  -2.269   2.087  0.00  0.00    +0.046 A 
ATOM     20  C   UNL     1       8.377  -2.595   2.060  0.00  0.00    +0.019 A 
ATOM     21  C   UNL     1       9.069  -2.448   0.880  0.00  0.00    +0.028 A 
ATOM     22  C   UNL     1       8.414  -1.987  -0.220  0.00  0.00    +0.079 A 
ATOM     23  S   UNL     1       6.758  -1.749   0.404  0.00  0.00    -0.075 S 
ATOM     24 CL   UNL     1       9.028  -1.707  -1.819  0.00  0.00    -0.076 Cl
ENDBRANCH  17  19
ENDBRANCH   2  14
TORSDOF 4
