REMARK  Name = ZINC34696488
REMARK  7 active torsions:
REMARK  status: ('A' for Active; 'I' for Inactive)
REMARK    1  A    between atoms: C_1  and  C_2
REMARK    2  A    between atoms: C_2  and  C_3
REMARK    3  A    between atoms: C_8  and  N_9
REMARK    4  A    between atoms: C_19  and  C_23
REMARK    5  A    between atoms: N_25  and  C_26
REMARK    6  A    between atoms: C_26  and  C_27
REMARK    7  A    between atoms: C_27  and  C_28
REMARK                            x       y       z     vdW  Elec       q    Type
REMARK                         _______ _______ _______ _____ _____    ______ ____
ROOT
ATOM      1  N   UNL     1       2.833  -0.266  -0.113  0.00  0.00    -0.269 N 
ATOM      2  C   UNL     1       4.165  -0.474  -0.091  0.00  0.00    +0.306 C 
ATOM      3  O   UNL     1       4.735  -0.868  -1.090  0.00  0.00    -0.252 OA
ATOM      4  N   UNL     1       4.864  -0.246   1.038  0.00  0.00    -0.285 N 
ATOM      5  C   UNL     1       4.174   0.117   2.284  0.00  0.00    +0.109 C 
ATOM      6  C   UNL     1       4.773   1.425   2.814  0.00  0.00    +0.017 C 
ATOM      7  C   UNL     1       6.283   1.285   2.924  0.00  0.00    -0.016 C 
ATOM      8  C   UNL     1       6.917   0.957   1.582  0.00  0.00    +0.017 C 
ATOM      9  C   UNL     1       6.329  -0.360   1.047  0.00  0.00    +0.109 C 
ATOM     10  N   UNL     1       6.649   0.280   3.944  0.00  0.00    +0.397 N 
ATOM     11  C   UNL     1       7.903   0.630   4.640  0.00  0.00    +0.028 C 
ATOM     12  C   UNL     1       7.830   2.123   5.082  0.00  0.00    +0.061 C 
ATOM     13  S   UNL     1       7.005   2.836   3.591  0.00  0.00    -0.174 S 
ATOM     14  H   UNL     1       2.387   0.104   0.665  0.00  0.00    +0.156 HD
ATOM     15  H   UNL     1       5.905   0.214   4.622  0.00  0.00    -0.083 HD
ATOM     16  H   UNL     1       6.762  -0.617   3.495  0.00  0.00    -0.083 HD
ENDROOT
BRANCH   1  22
ATOM     17  C   UNL     1       0.755  -0.931  -1.148  0.00  0.00    -0.026 A 
ATOM     18  C   UNL     1       0.026  -1.238  -2.280  0.00  0.00    +0.005 A 
ATOM     19  C   UNL     1       0.632  -1.206  -3.523  0.00  0.00    +0.000 A 
ATOM     20  C   UNL     1       1.968  -0.867  -3.636  0.00  0.00    +0.002 A 
ATOM     21  C   UNL     1       2.701  -0.558  -2.507  0.00  0.00    +0.023 A 
ATOM     22  C   UNL     1       2.094  -0.584  -1.258  0.00  0.00    +0.038 A 
BRANCH  17  24
ATOM     23  C   UNL     1      -0.391   0.437   0.574  0.00  0.00    +0.009 C 
ATOM     24  C   UNL     1       0.094  -0.966   0.206  0.00  0.00    +0.033 C 
ENDBRANCH  17  24
ENDBRANCH   1  22
BRANCH  11  25
ATOM     25  C   UNL     1       8.071  -0.247   5.854  0.00  0.00    +0.200 C 
ATOM     26  O   UNL     1       7.233  -1.083   6.119  0.00  0.00    -0.278 OA
ATOM     27  N   UNL     1       9.152  -0.102   6.645  0.00  0.00    -0.316 N 
ATOM     28  H   UNL     1       9.823   0.567   6.433  0.00  0.00    +0.149 HD
BRANCH  27  29
ATOM     29  C   UNL     1       9.316  -0.955   7.825  0.00  0.00    +0.109 C 
BRANCH  29  30
ATOM     30  C   UNL     1      10.616  -0.588   8.543  0.00  0.00    +0.055 C 
BRANCH  30  31
ATOM     31  C   UNL     1      10.784  -1.465   9.757  0.00  0.00    -0.027 A 
ATOM     32  C   UNL     1      10.357  -1.021  10.995  0.00  0.00    +0.006 A 
ATOM     33  C   UNL     1      10.511  -1.825  12.108  0.00  0.00    +0.020 A 
ATOM     34  C   UNL     1      11.092  -3.074  11.985  0.00  0.00    +0.042 A 
ATOM     35  C   UNL     1      11.520  -3.519  10.747  0.00  0.00    +0.040 A 
ATOM     36  C   UNL     1      11.361  -2.716   9.632  0.00  0.00    +0.046 A 
ATOM     37 CL   UNL     1      11.893  -3.275   8.077  0.00  0.00    -0.083 Cl
ATOM     38 CL   UNL     1      11.286  -4.083  13.384  0.00  0.00    -0.083 Cl
ENDBRANCH  30  31
ENDBRANCH  29  30
ENDBRANCH  27  29
ENDBRANCH  11  25
TORSDOF 6
