REMARK  Name = ZINC40016877
REMARK  12 active torsions:
REMARK  status: ('A' for Active; 'I' for Inactive)
REMARK    1  A    between atoms: C_1  and  C_2
REMARK    2  A    between atoms: C_2  and  O_3
REMARK    3  A    between atoms: O_3  and  C_4
REMARK    4  A    between atoms: C_8  and  C_10
REMARK    5  A    between atoms: C_12  and  C_34
REMARK    6  A    between atoms: C_13  and  C_33
REMARK    7  A    between atoms: C_20  and  C_21
REMARK    8  A    between atoms: C_28  and  C_31
REMARK    9  A    between atoms: C_34  and  O_36
REMARK   10  A    between atoms: O_36  and  C_37
REMARK   11  A    between atoms: C_37  and  C_38
REMARK   12  A    between atoms: C_37  and  C_39
REMARK                            x       y       z     vdW  Elec       q    Type
REMARK                         _______ _______ _______ _____ _____    ______ ____
ROOT
ATOM      1  C   UNL     1      -3.857  -4.899  -0.074  0.00  0.00    +0.162 C 
ATOM      2  C   UNL     1      -4.234  -5.385  -1.455  0.00  0.00    +0.085 C 
ATOM      3  C   UNL     1      -4.767  -6.638  -1.572  0.00  0.00    +0.053 C 
ATOM      4  N   UNL     1      -4.946  -7.399  -0.499  0.00  0.00    -0.228 NA
ATOM      5  C   UNL     1      -4.645  -7.046   0.725  0.00  0.00    +0.178 A 
ATOM      6  N   UNL     1      -4.098  -5.830   1.063  0.00  0.00    -0.275 N 
ATOM      7  C   UNL     1      -3.832  -5.582   2.352  0.00  0.00    +0.268 A 
ATOM      8  O   UNL     1      -3.349  -4.520   2.700  0.00  0.00    -0.266 OA
ATOM      9  C   UNL     1      -4.141  -6.631   3.334  0.00  0.00    +0.081 A 
ATOM     10  C   UNL     1      -3.969  -6.629   4.682  0.00  0.00    +0.028 C 
ATOM     11  S   UNL     1      -4.806  -7.905   2.278  0.00  0.00    -0.046 S 
ATOM     12  C   UNL     1      -5.155  -7.161  -2.931  0.00  0.00    +0.066 C 
ENDROOT
BRANCH  10  13
ATOM     13  C   UNL     1      -4.217  -7.853   5.455  0.00  0.00    -0.023 A 
ATOM     14  C   UNL     1      -4.462  -7.781   6.832  0.00  0.00    +0.011 A 
ATOM     15  C   UNL     1      -4.698  -8.927   7.552  0.00  0.00    +0.046 A 
ATOM     16  C   UNL     1      -4.694 -10.173   6.921  0.00  0.00    +0.124 A 
ATOM     17  C   UNL     1      -4.442 -10.240   5.554  0.00  0.00    -0.002 A 
ATOM     18  C   UNL     1      -4.215  -9.102   4.820  0.00  0.00    +0.015 A 
ATOM     19  C   UNL     1      -4.478 -11.707   5.167  0.00  0.00    +0.083 C 
ATOM     20  C   UNL     1      -4.383 -12.402   6.546  0.00  0.00    +0.175 C 
ATOM     21  O   UNL     1      -4.913 -11.411   7.441  0.00  0.00    -0.488 OA
ATOM     22  C   UNL     1      -5.234 -13.673   6.572  0.00  0.00    +0.052 C 
ENDBRANCH  10  13
BRANCH   1  27
ATOM     23  C   UNL     1      -0.641  -2.929  -0.303  0.00  0.00    +0.121 A 
ATOM     24  C   UNL     1       0.306  -3.926  -0.114  0.00  0.00    +0.045 A 
ATOM     25  C   UNL     1      -0.099  -5.232   0.087  0.00  0.00    +0.004 A 
ATOM     26  C   UNL     1      -1.446  -5.545   0.100  0.00  0.00    +0.006 A 
ATOM     27  C   UNL     1      -2.391  -4.553  -0.088  0.00  0.00    -0.016 A 
ATOM     28  C   UNL     1      -1.991  -3.245  -0.284  0.00  0.00    +0.051 A 
BRANCH  23  29
ATOM     29  O   UNL     1      -0.245  -1.644  -0.500  0.00  0.00    -0.492 OA
BRANCH  29  31
ATOM     30  C   UNL     1       1.411   0.099  -0.741  0.00  0.00    +0.048 C 
ATOM     31  C   UNL     1       1.162  -1.392  -0.507  0.00  0.00    +0.225 C 
ENDBRANCH  29  31
ENDBRANCH  23  29
ENDBRANCH   1  27
BRANCH   2  32
ATOM     32  C   UNL     1      -4.042  -4.574  -2.585  0.00  0.00    +0.339 C 
ATOM     33  O   UNL     1      -4.223  -5.029  -3.700  0.00  0.00    -0.245 OA
BRANCH  32  34
ATOM     34  O   UNL     1      -3.655  -3.288  -2.435  0.00  0.00    -0.459 OA
BRANCH  34  35
ATOM     35  C   UNL     1      -3.479  -2.520  -3.627  0.00  0.00    +0.171 C 
ATOM     36  C   UNL     1      -3.785  -1.050  -3.337  0.00  0.00    +0.052 C 
ATOM     37  C   UNL     1      -2.034  -2.654  -4.111  0.00  0.00    +0.052 C 
ENDBRANCH  34  35
ENDBRANCH  32  34
ENDBRANCH   2  32
TORSDOF 7
