REMARK  Name = ZINC39863636
REMARK  6 active torsions:
REMARK  status: ('A' for Active; 'I' for Inactive)
REMARK    1  A    between atoms: C_1  and  C_2
REMARK    2  A    between atoms: C_6  and  N_8
REMARK    3  A    between atoms: N_10  and  C_31
REMARK    4  A    between atoms: C_14  and  C_15
REMARK    5  A    between atoms: C_18  and  C_20
REMARK    6  A    between atoms: C_23  and  N_27
REMARK                            x       y       z     vdW  Elec       q    Type
REMARK                         _______ _______ _______ _____ _____    ______ ____
ROOT
ATOM      1  N   UNL     1       0.090  -2.449   2.473  0.00  0.00    -0.206 NA
ATOM      2  C   UNL     1       0.048  -1.664   3.528  0.00  0.00    +0.170 C 
ATOM      3  N   UNL     1      -0.042  -0.291   3.566  0.00  0.00    -0.243 N 
ATOM      4  C   UNL     1      -0.071   0.299   4.752  0.00  0.00    +0.259 C 
ATOM      5  O   UNL     1      -0.149   1.506   4.863  0.00  0.00    -0.269 OA
ATOM      6  C   UNL     1      -0.004  -0.593   5.938  0.00  0.00    +0.081 C 
ATOM      7  C   UNL     1      -0.017  -0.244   7.298  0.00  0.00    +0.066 C 
ATOM      8  S   UNL     1       0.084  -2.125   5.248  0.00  0.00    -0.049 S 
ENDROOT
BRANCH   1  14
ATOM      9  C   UNL     1      -2.366  -0.867  -1.290  0.00  0.00    +0.065 C 
ATOM     10  C   UNL     1      -1.045  -1.135  -0.616  0.00  0.00    +0.041 A 
ATOM     11  C   UNL     1       0.134  -0.830  -1.277  0.00  0.00    +0.023 A 
ATOM     12  C   UNL     1       1.350  -1.077  -0.655  0.00  0.00    +0.005 A 
ATOM     13  C   UNL     1       1.344  -1.625   0.615  0.00  0.00    +0.048 A 
ATOM     14  C   UNL     1       0.115  -1.910   1.226  0.00  0.00    +0.155 A 
ATOM     15  N   UNL     1      -1.029  -1.651   0.594  0.00  0.00    -0.233 NA
ENDBRANCH   1  14
BRANCH   3  16
ATOM     16  C   UNL     1      -0.102   0.495   2.331  0.00  0.00    +0.084 C 
ATOM     17  C   UNL     1       1.005   1.551   2.344  0.00  0.00    +0.023 C 
ATOM     18  C   UNL     1       0.943   2.372   1.054  0.00  0.00    +0.002 C 
ATOM     19  C   UNL     1      -0.419   3.062   0.955  0.00  0.00    +0.000 C 
ATOM     20  C   UNL     1      -1.526   2.006   0.942  0.00  0.00    +0.002 C 
ATOM     21  C   UNL     1      -1.464   1.185   2.231  0.00  0.00    +0.023 C 
ENDBRANCH   3  16
BRANCH   7  22
ATOM     22  C   UNL     1      -0.268   1.066   7.675  0.00  0.00    +0.130 A 
ATOM     23  C   UNL     1      -0.184   1.584   8.993  0.00  0.00    +0.050 A 
ATOM     24  C   UNL     1      -0.507   2.906   8.922  0.00  0.00    +0.050 A 
ATOM     25  C   UNL     1      -0.788   3.197   7.574  0.00  0.00    +0.137 A 
ATOM     26  O   UNL     1      -0.629   2.074   6.851  0.00  0.00    -0.455 OA
BRANCH  25  27
ATOM     27  C   UNL     1      -1.181   4.504   7.045  0.00  0.00    +0.036 A 
ATOM     28  C   UNL     1      -2.221   5.229   7.652  0.00  0.00    +0.015 A 
ATOM     29  C   UNL     1      -2.582   6.457   7.148  0.00  0.00    +0.033 A 
ATOM     30  C   UNL     1      -1.925   6.981   6.044  0.00  0.00    +0.128 A 
ATOM     31  C   UNL     1      -0.899   6.276   5.438  0.00  0.00    +0.053 A 
ATOM     32  C   UNL     1      -0.516   5.046   5.931  0.00  0.00    +0.054 A 
ATOM     33 CL   UNL     1       0.775   4.167   5.173  0.00  0.00    -0.083 Cl
BRANCH  30  34
ATOM     34  N   UNL     1      -2.324   8.303   5.511  0.00  0.00    +0.056 N 
ATOM     35  O   UNL     1      -3.299   8.977   6.084  0.00  0.00    -0.126 OA
ATOM     36  O   UNL     1      -1.703   8.805   4.464  0.00  0.00    -0.126 OA
ENDBRANCH  30  34
ENDBRANCH  25  27
ENDBRANCH   7  22
TORSDOF 5
