REMARK  Name = ZINC34829950
REMARK  9 active torsions:
REMARK  status: ('A' for Active; 'I' for Inactive)
REMARK    1  A    between atoms: C_1  and  C_2
REMARK    2  A    between atoms: C_2  and  C_3
REMARK    3  A    between atoms: C_3  and  C_4
REMARK    4  A    between atoms: C_4  and  N_5
REMARK    5  A    between atoms: C_13  and  C_15
REMARK    6  A    between atoms: C_16  and  C_18
REMARK    7  A    between atoms: C_18  and  N_19
REMARK    8  A    between atoms: C_27  and  C_29
REMARK    9  A    between atoms: C_32  and  C_35
REMARK                            x       y       z     vdW  Elec       q    Type
REMARK                         _______ _______ _______ _____ _____    ______ ____
ROOT
ATOM      1  C   UNL     1       3.425  -4.706  -8.623  0.00  0.00    +0.020 C 
ENDROOT
BRANCH   1  12
ATOM      2  N   UNL     1       0.788  -2.513  -2.901  0.00  0.00    -0.299 N 
ATOM      3  C   UNL     1       1.147  -3.811  -2.962  0.00  0.00    +0.303 C 
ATOM      4  O   UNL     1       0.820  -4.574  -2.074  0.00  0.00    -0.253 OA
ATOM      5  N   UNL     1       1.869  -4.262  -4.007  0.00  0.00    -0.280 N 
ATOM      6  C   UNL     1       2.383  -3.330  -5.020  0.00  0.00    +0.128 C 
ATOM      7  C   UNL     1       1.896  -3.789  -6.400  0.00  0.00    +0.126 C 
ATOM      8  N   UNL     1       2.184  -5.223  -6.546  0.00  0.00    -0.300 N 
ATOM      9  C   UNL     1       1.671  -6.155  -5.533  0.00  0.00    +0.130 C 
ATOM     10  C   UNL     1       2.162  -5.695  -4.150  0.00  0.00    +0.092 C 
ATOM     11  C   UNL     1       1.434  -6.480  -3.057  0.00  0.00    +0.030 C 
ATOM     12  C   UNL     1       2.906  -5.674  -7.591  0.00  0.00    +0.199 C 
ATOM     13  O   UNL     1       3.137  -6.859  -7.701  0.00  0.00    -0.278 OA
ATOM     14  H   UNL     1       1.110  -1.889  -3.570  0.00  0.00    +0.150 HD
BRANCH   2  15
ATOM     15  C   UNL     1      -0.088  -2.045  -1.825  0.00  0.00    +0.106 C 
BRANCH  15  16
ATOM     16  C   UNL     1      -0.339  -0.544  -1.987  0.00  0.00    +0.018 C 
BRANCH  16  18
ATOM     17  C   UNL     1      -1.505   1.445  -1.025  0.00  0.00    +0.004 C 
ATOM     18  C   UNL     1      -1.254  -0.056  -0.863  0.00  0.00    -0.002 C 
ENDBRANCH  16  18
ENDBRANCH  15  16
ENDBRANCH   2  15
ENDBRANCH   1  12
BRANCH   1  19
ATOM     19  N   UNL     1       4.175  -5.441  -9.650  0.00  0.00    +0.393 N 
ATOM     20  C   UNL     1       3.263  -6.353 -10.354  0.00  0.00    -0.072 C 
ATOM     21  C   UNL     1       4.096  -7.345 -11.184  0.00  0.00    +0.024 C 
ATOM     22  C   UNL     1       5.122  -6.557 -11.931  0.00  0.00    -0.010 A 
ATOM     23  C   UNL     1       5.468  -5.258 -11.704  0.00  0.00    -0.047 A 
ATOM     24  C   UNL     1       6.452  -4.723 -12.531  0.00  0.00    +0.010 A 
ATOM     25  C   UNL     1       7.014  -5.488 -13.496  0.00  0.00    +0.045 A 
ATOM     26  S   UNL     1       6.159  -7.042 -13.280  0.00  0.00    -0.101 S 
ATOM     27  C   UNL     1       4.779  -4.483 -10.585  0.00  0.00    -0.005 C 
ATOM     28  H   UNL     1       4.905  -5.978  -9.208  0.00  0.00    -0.080 HD
BRANCH  27  29
ATOM     29  C   UNL     1       5.792  -3.638  -9.857  0.00  0.00    -0.057 A 
ATOM     30  C   UNL     1       6.629  -4.214  -8.920  0.00  0.00    +0.002 A 
ATOM     31  C   UNL     1       7.558  -3.439  -8.253  0.00  0.00    +0.003 A 
ATOM     32  C   UNL     1       7.652  -2.086  -8.524  0.00  0.00    -0.050 A 
ATOM     33  C   UNL     1       6.815  -1.510  -9.461  0.00  0.00    +0.003 A 
ATOM     34  C   UNL     1       5.889  -2.286 -10.131  0.00  0.00    +0.002 A 
ATOM     35  C   UNL     1       8.664  -1.240  -7.795  0.00  0.00    +0.044 C 
ENDBRANCH  27  29
ENDBRANCH   1  19
TORSDOF 6
