REMARK  Name = ZINC39862968
REMARK  3 active torsions:
REMARK  status: ('A' for Active; 'I' for Inactive)
REMARK    1  A    between atoms: C_2  and  C_3
REMARK    2  A    between atoms: C_3  and  N_4
REMARK    3  A    between atoms: N_20  and  C_21
REMARK                            x       y       z     vdW  Elec       q    Type
REMARK                         _______ _______ _______ _____ _____    ______ ____
ROOT
ATOM      1  N   UNL     1       1.541  -1.753   1.061  0.00  0.00    -0.242 N 
ATOM      2  C   UNL     1       2.083  -1.377   2.207  0.00  0.00    +0.260 C 
ATOM      3  O   UNL     1       2.722  -0.348   2.304  0.00  0.00    -0.269 OA
ATOM      4  C   UNL     1       1.871  -2.276   3.372  0.00  0.00    +0.090 C 
ATOM      5  C   UNL     1       2.312  -2.143   4.676  0.00  0.00    +0.065 C 
ATOM      6  C   UNL     1       2.973  -0.970   5.286  0.00  0.00    +0.010 A 
ATOM      7  C   UNL     1       3.339   0.281   4.795  0.00  0.00    +0.010 A 
ATOM      8  C   UNL     1       3.958   1.188   5.630  0.00  0.00    +0.001 A 
ATOM      9  C   UNL     1       4.214   0.856   6.950  0.00  0.00    +0.002 A 
ATOM     10  C   UNL     1       3.855  -0.382   7.447  0.00  0.00    +0.024 A 
ATOM     11  C   UNL     1       3.229  -1.310   6.622  0.00  0.00    +0.042 A 
ATOM     12  N   UNL     1       2.773  -2.601   6.862  0.00  0.00    -0.281 N 
ATOM     13  C   UNL     1       2.220  -3.138   5.761  0.00  0.00    +0.250 C 
ATOM     14  O   UNL     1       1.732  -4.249   5.674  0.00  0.00    -0.270 OA
ATOM     15  S   UNL     1       0.892  -3.576   2.633  0.00  0.00    -0.048 S 
ATOM     16  C   UNL     1       0.814  -2.921   0.975  0.00  0.00    +0.169 C 
ATOM     17  N   UNL     1       0.213  -3.430  -0.075  0.00  0.00    -0.224 NA
ATOM     18  H   UNL     1       2.841  -3.054   7.717  0.00  0.00    +0.155 HD
ENDROOT
BRANCH  17  19
ATOM     19  C   UNL     1      -0.467  -4.612   0.033  0.00  0.00    +0.085 A 
ATOM     20  C   UNL     1      -1.737  -4.759  -0.541  0.00  0.00    +0.031 A 
ATOM     21  C   UNL     1      -2.382  -5.974  -0.404  0.00  0.00    +0.022 A 
ATOM     22  C   UNL     1      -1.760  -6.997   0.291  0.00  0.00    +0.111 A 
ATOM     23  N   UNL     1      -0.564  -6.831   0.822  0.00  0.00    -0.261 NA
ATOM     24  C   UNL     1       0.094  -5.695   0.714  0.00  0.00    +0.138 A 
ENDBRANCH  17  19
BRANCH   1  25
ATOM     25  C   UNL     1       1.709  -0.915  -0.129  0.00  0.00    +0.142 C 
BRANCH  25  27
ATOM     26  C   UNL     1       0.848   1.364  -0.289  0.00  0.00    +0.005 C 
ATOM     27  C   UNL     1       0.583   0.084  -0.204  0.00  0.00    -0.015 C 
ENDBRANCH  25  27
ENDBRANCH   1  25
TORSDOF 3
