REMARK  Name = ZINC13567727
REMARK  6 active torsions:
REMARK  status: ('A' for Active; 'I' for Inactive)
REMARK    1  A    between atoms: C_1  and  C_2
REMARK    2  A    between atoms: C_5  and  N_9
REMARK    3  A    between atoms: N_24  and  C_27
REMARK    4  A    between atoms: C_27  and  C_28
REMARK    5  A    between atoms: C_30  and  C_33
REMARK    6  A    between atoms: C_31  and  N_32
REMARK                            x       y       z     vdW  Elec       q    Type
REMARK                         _______ _______ _______ _____ _____    ______ ____
ROOT
ATOM      1  N   UNL     1       1.198  -0.675  -0.117  0.00  0.00    -0.260 N 
ATOM      2  C   UNL     1       1.180  -1.646  -1.083  0.00  0.00    +0.025 C 
ATOM      3  C   UNL     1       0.181  -2.554  -1.126  0.00  0.00    +0.037 C 
ATOM      4  C   UNL     1       0.149  -3.548  -2.120  0.00  0.00    +0.162 C 
ATOM      5  O   UNL     1      -0.756  -4.359  -2.122  0.00  0.00    -0.292 OA
ATOM      6  C   UNL     1       1.211  -3.625  -3.182  0.00  0.00    +0.080 C 
ATOM      7  C   UNL     1       1.778  -2.222  -3.424  0.00  0.00    +0.014 C 
ATOM      8  C   UNL     1       2.300  -1.675  -2.093  0.00  0.00    +0.052 C 
ATOM      9  C   UNL     1      -0.927  -2.529  -0.107  0.00  0.00    +0.141 C 
ATOM     10  C   UNL     1      -0.768  -3.649   0.875  0.00  0.00    -0.001 A 
ATOM     11  C   UNL     1       0.233  -3.932   1.779  0.00  0.00    +0.007 A 
ATOM     12  C   UNL     1       0.073  -5.073   2.559  0.00  0.00    +0.000 A 
ATOM     13  C   UNL     1      -1.038  -5.881   2.431  0.00  0.00    +0.002 A 
ATOM     14  C   UNL     1      -2.048  -5.602   1.523  0.00  0.00    +0.024 A 
ATOM     15  C   UNL     1      -1.899  -4.461   0.734  0.00  0.00    +0.042 A 
ATOM     16  N   UNL     1      -2.739  -3.951  -0.240  0.00  0.00    -0.258 N 
ATOM     17  C   UNL     1      -2.250  -2.820  -0.789  0.00  0.00    +0.241 C 
ATOM     18  O   UNL     1      -2.770  -2.160  -1.663  0.00  0.00    -0.273 OA
ATOM     19  C   UNL     1      -0.996  -1.209   0.602  0.00  0.00    +0.089 C 
ATOM     20  C   UNL     1       0.052  -0.344   0.570  0.00  0.00    +0.108 C 
ENDROOT
BRANCH   1  25
ATOM     21  C   UNL     1       6.054   2.010   1.070  0.00  0.00    +0.045 C 
ATOM     22  C   UNL     1       4.765   1.297   0.754  0.00  0.00    -0.032 A 
ATOM     23  C   UNL     1       4.457   0.111   1.396  0.00  0.00    +0.006 A 
ATOM     24  C   UNL     1       3.276  -0.544   1.109  0.00  0.00    +0.024 A 
ATOM     25  C   UNL     1       2.396  -0.012   0.176  0.00  0.00    +0.041 A 
ATOM     26  C   UNL     1       2.709   1.176  -0.471  0.00  0.00    +0.044 A 
ATOM     27  C   UNL     1       3.890   1.831  -0.176  0.00  0.00    +0.046 A 
ATOM     28 CL   UNL     1       4.281   3.320  -0.979  0.00  0.00    -0.083 Cl
ENDBRANCH   1  25
BRANCH  20  29
ATOM     29  N   UNL     1      -0.031   0.859   1.228  0.00  0.00    -0.345 N 
ATOM     30  H   UNL     1       0.677   1.514   1.132  0.00  0.00    +0.144 HD
ATOM     31  H   UNL     1      -0.801   1.055   1.785  0.00  0.00    +0.144 HD
ENDBRANCH  20  29
BRANCH  19  32
ATOM     32  C   UNL     1      -2.183  -0.854   1.319  0.00  0.00    +0.100 C 
ATOM     33  N   UNL     1      -3.126  -0.572   1.887  0.00  0.00    -0.191 NA
ENDBRANCH  19  32
BRANCH  16  34
ATOM     34  C   UNL     1      -4.010  -4.566  -0.629  0.00  0.00    +0.202 C 
BRANCH  34  35
ATOM     35  C   UNL     1      -5.095  -4.021   0.203  0.00  0.00    -0.086 C 
ATOM     36  C   UNL     1      -5.960  -3.586   0.866  0.00  0.00    +0.005 C 
ENDBRANCH  34  35
ENDBRANCH  16  34
TORSDOF 5
