REMARK  Name = ZINC20000395
REMARK  10 active torsions:
REMARK  status: ('A' for Active; 'I' for Inactive)
REMARK    1  A    between atoms: C_1  and  C_2
REMARK    2  A    between atoms: C_2  and  C_3
REMARK    3  A    between atoms: C_6  and  C_9
REMARK    4  A    between atoms: C_18  and  C_26
REMARK    5  A    between atoms: C_19  and  N_25
REMARK    6  A    between atoms: C_20  and  C_21
REMARK    7  A    between atoms: C_20  and  C_23
REMARK    8  A    between atoms: C_28  and  O_30
REMARK    9  A    between atoms: O_30  and  C_31
REMARK   10  A    between atoms: C_31  and  C_32
REMARK                            x       y       z     vdW  Elec       q    Type
REMARK                         _______ _______ _______ _____ _____    ______ ____
ROOT
ATOM      1  C   UNL     1      -0.013   1.086   0.008  0.00  0.00    +0.068 C 
ATOM      2  C   UNL     1       1.307   1.844   0.159  0.00  0.00    +0.048 C 
ATOM      3  C   UNL     1       2.304   1.458  -0.910  0.00  0.00    +0.120 C 
ATOM      4  N   UNL     1       2.415   2.503  -1.934  0.00  0.00    -0.263 N 
ATOM      5  C   UNL     1       2.700   3.873  -1.469  0.00  0.00    +0.138 C 
ATOM      6  C   UNL     1       1.628   4.236  -0.473  0.00  0.00    -0.003 C 
ATOM      7  C   UNL     1       1.004   3.311   0.230  0.00  0.00    -0.026 C 
ATOM      8  C   UNL     1      -0.114   3.720   1.123  0.00  0.00    +0.074 C 
ATOM      9  C   UNL     1      -0.978   2.781   1.580  0.00  0.00    +0.054 C 
ATOM     10  C   UNL     1      -0.865   1.322   1.256  0.00  0.00    +0.188 C 
ATOM     11  C   UNL     1       2.263   2.222  -3.243  0.00  0.00    +0.403 C 
ATOM     12  O   UNL     1       2.029   1.084  -3.598  0.00  0.00    -0.226 OA
ENDROOT
BRANCH   1  16
ATOM     13  C   UNL     1      -2.092   2.507  -3.442  0.00  0.00    -0.048 A 
ATOM     14  C   UNL     1      -1.318   1.365  -3.524  0.00  0.00    +0.004 A 
ATOM     15  C   UNL     1      -0.644   0.905  -2.407  0.00  0.00    +0.004 A 
ATOM     16  C   UNL     1      -0.746   1.587  -1.209  0.00  0.00    -0.041 A 
ATOM     17  C   UNL     1      -1.526   2.726  -1.126  0.00  0.00    +0.004 A 
ATOM     18  C   UNL     1      -2.195   3.189  -2.244  0.00  0.00    +0.004 A 
BRANCH  13  20
ATOM     19  C   UNL     1      -4.218   2.377  -4.712  0.00  0.00    +0.009 C 
ATOM     20  C   UNL     1      -2.826   3.009  -4.659  0.00  0.00    +0.032 C 
ENDBRANCH  13  20
ENDBRANCH   1  16
BRANCH   9  21
ATOM     21  N   UNL     1      -2.009   3.186   2.380  0.00  0.00    -0.358 N 
ATOM     22  H   UNL     1      -2.728   2.449   2.767  0.00  0.00    +0.142 HD
ATOM     23  H   UNL     1      -2.121   4.250   2.636  0.00  0.00    +0.142 HD
ENDBRANCH   9  21
BRANCH  10  24
ATOM     24  C   UNL     1      -2.212   0.774   1.028  0.00  0.00    +0.091 C 
ATOM     25  N   UNL     1      -3.251   0.351   0.853  0.00  0.00    -0.194 NA
ENDBRANCH  10  24
BRANCH  10  26
ATOM     26  C   UNL     1      -0.250   0.623   2.396  0.00  0.00    +0.091 C 
ATOM     27  N   UNL     1       0.225   0.083   3.276  0.00  0.00    -0.194 NA
ENDBRANCH  10  26
BRANCH   8  28
ATOM     28  C   UNL     1      -0.275   5.093   1.496  0.00  0.00    +0.101 C 
ATOM     29  N   UNL     1      -0.402   6.183   1.792  0.00  0.00    -0.191 NA
ENDBRANCH   8  28
BRANCH  11  30
ATOM     30  O   UNL     1       2.370   3.204  -4.159  0.00  0.00    -0.451 OA
BRANCH  30  31
ATOM     31  C   UNL     1       2.194   2.829  -5.551  0.00  0.00    +0.230 C 
ATOM     32  C   UNL     1       2.350   4.067  -6.436  0.00  0.00    +0.048 C 
ENDBRANCH  30  31
ENDBRANCH  11  30
TORSDOF 8
