REMARK  Name = ZINC09965234
REMARK  8 active torsions:
REMARK  status: ('A' for Active; 'I' for Inactive)
REMARK    1  A    between atoms: C_1  and  C_2
REMARK    2  A    between atoms: C_2  and  C_4
REMARK    3  A    between atoms: C_2  and  S_11
REMARK    4  A    between atoms: N_9  and  C_10
REMARK    5  A    between atoms: S_11  and  C_12
REMARK    6  A    between atoms: N_26  and  C_27
REMARK    7  A    between atoms: C_30  and  O_33
REMARK    8  A    between atoms: O_33  and  C_34
REMARK                            x       y       z     vdW  Elec       q    Type
REMARK                         _______ _______ _______ _____ _____    ______ ____
ROOT
ATOM      1  C   UNL     1      -2.335   0.422  -1.582  0.00  0.00    +0.178 A 
ATOM      2  N   UNL     1      -2.506  -0.390  -0.558  0.00  0.00    -0.215 NA
ATOM      3  C   UNL     1      -3.724  -0.666  -0.107  0.00  0.00    +0.117 A 
ATOM      4  C   UNL     1      -4.879  -0.119  -0.687  0.00  0.00    +0.076 A 
ATOM      5  C   UNL     1      -6.156  -0.518  -0.085  0.00  0.00    -0.023 A 
ATOM      6  C   UNL     1      -6.093  -1.359   0.967  0.00  0.00    -0.004 A 
ATOM      7  S   UNL     1      -4.363  -1.673   1.207  0.00  0.00    -0.073 S 
ATOM      8  C   UNL     1      -7.229  -1.905   1.774  0.00  0.00    +0.043 C 
ATOM      9  C   UNL     1      -8.303  -2.460   0.829  0.00  0.00    +0.005 C 
ATOM     10  C   UNL     1      -9.277  -1.334   0.496  0.00  0.00    +0.001 C 
ATOM     11  C   UNL     1      -8.539   0.003   0.461  0.00  0.00    +0.005 C 
ATOM     12  C   UNL     1      -7.482  -0.001  -0.636  0.00  0.00    +0.037 C 
ATOM     13  C   UNL     1      -4.664   0.760  -1.796  0.00  0.00    +0.268 A 
ATOM     14  O   UNL     1      -5.609   1.284  -2.361  0.00  0.00    -0.267 OA
ATOM     15  N   UNL     1      -3.405   1.005  -2.201  0.00  0.00    -0.255 N 
ENDROOT
BRANCH  15  16
ATOM     16  C   UNL     1      -3.186   1.870  -3.284  0.00  0.00    +0.052 A 
ATOM     17  C   UNL     1      -3.142   1.366  -4.577  0.00  0.00    +0.030 A 
ATOM     18  C   UNL     1      -2.930   2.219  -5.642  0.00  0.00    +0.047 A 
ATOM     19  C   UNL     1      -2.753   3.576  -5.420  0.00  0.00    +0.120 A 
ATOM     20  C   UNL     1      -2.792   4.080  -4.128  0.00  0.00    +0.047 A 
ATOM     21  C   UNL     1      -3.008   3.229  -3.062  0.00  0.00    +0.030 A 
BRANCH  19  22
ATOM     22  O   UNL     1      -2.540   4.414  -6.469  0.00  0.00    -0.495 OA
ATOM     23  C   UNL     1      -2.512   3.828  -7.772  0.00  0.00    +0.277 C 
ENDBRANCH  19  22
ENDBRANCH  15  16
BRANCH   1  24
ATOM     24  S   UNL     1      -0.705   0.767  -2.155  0.00  0.00    -0.075 S 
BRANCH  24  26
ATOM     25  C   UNL     1       0.083   0.317   0.422  0.00  0.00    +0.029 C 
ATOM     26  C   UNL     1       0.255  -0.236  -0.994  0.00  0.00    +0.137 C 
BRANCH  26  27
ATOM     27  C   UNL     1       1.712  -0.191  -1.377  0.00  0.00    +0.233 C 
ATOM     28  O   UNL     1       2.145   0.752  -2.003  0.00  0.00    -0.274 OA
ATOM     29  N   UNL     1       2.533  -1.199  -1.022  0.00  0.00    -0.239 N 
ATOM     30  C   UNL     1       3.836  -1.159  -1.364  0.00  0.00    +0.306 C 
ATOM     31  O   UNL     1       4.271  -0.214  -1.993  0.00  0.00    -0.252 OA
ATOM     32  N   UNL     1       4.658  -2.167  -1.010  0.00  0.00    -0.302 N 
ATOM     33  C   UNL     1       6.074  -2.123  -1.382  0.00  0.00    +0.129 C 
ATOM     34  H   UNL     1       2.187  -1.954  -0.520  0.00  0.00    +0.159 HD
ATOM     35  H   UNL     1       4.311  -2.921  -0.508  0.00  0.00    +0.150 HD
ENDBRANCH  26  27
ENDBRANCH  24  26
ENDBRANCH   1  24
TORSDOF 5
