REMARK  Name = ZINC04414022
REMARK  9 active torsions:
REMARK  status: ('A' for Active; 'I' for Inactive)
REMARK    1  A    between atoms: C_1  and  C_2
REMARK    2  A    between atoms: C_2  and  O_3
REMARK    3  A    between atoms: O_3  and  C_4
REMARK    4  A    between atoms: C_6  and  C_11
REMARK    5  A    between atoms: C_9  and  O_10
REMARK    6  A    between atoms: C_11  and  C_13
REMARK    7  A    between atoms: C_11  and  N_24
REMARK    8  A    between atoms: C_22  and  O_23
REMARK    9  A    between atoms: N_24  and  C_25
REMARK                            x       y       z     vdW  Elec       q    Type
REMARK                         _______ _______ _______ _____ _____    ______ ____
ROOT
ATOM      1  C   UNL     1       0.653  -4.944  -0.044  0.00  0.00    +0.135 C 
ENDROOT
BRANCH   1   2
ATOM      2  C   UNL     1       0.946  -5.335   1.381  0.00  0.00    +0.021 A 
ATOM      3  C   UNL     1       0.603  -6.609   1.827  0.00  0.00    +0.010 A 
ATOM      4  C   UNL     1       0.861  -6.996   3.107  0.00  0.00    +0.010 A 
ATOM      5  C   UNL     1       1.469  -6.096   3.997  0.00  0.00    +0.004 A 
ATOM      6  C   UNL     1       1.745  -6.458   5.329  0.00  0.00    +0.011 A 
ATOM      7  C   UNL     1       2.339  -5.532   6.138  0.00  0.00    +0.020 A 
ATOM      8  C   UNL     1       2.654  -4.270   5.637  0.00  0.00    +0.111 A 
ATOM      9  N   UNL     1       2.396  -3.938   4.396  0.00  0.00    -0.251 NA
ATOM     10  C   UNL     1       1.816  -4.797   3.553  0.00  0.00    +0.113 A 
ATOM     11  C   UNL     1       1.540  -4.434   2.218  0.00  0.00    +0.148 A 
BRANCH  11  12
ATOM     12  O   UNL     1       1.863  -3.193   1.767  0.00  0.00    -0.504 OA
ATOM     13  H   UNL     1       1.161  -2.538   1.881  0.00  0.00    +0.292 HD
ENDBRANCH  11  12
ENDBRANCH   1   2
BRANCH   1  16
ATOM     14  C   UNL     1      -1.931  -2.206  -0.362  0.00  0.00    +0.162 A 
ATOM     15  C   UNL     1      -0.713  -2.864  -0.311  0.00  0.00    +0.055 A 
ATOM     16  C   UNL     1      -0.673  -4.231  -0.106  0.00  0.00    -0.019 A 
ATOM     17  C   UNL     1      -1.848  -4.945   0.035  0.00  0.00    +0.009 A 
ATOM     18  C   UNL     1      -3.067  -4.296  -0.020  0.00  0.00    +0.049 A 
ATOM     19  C   UNL     1      -3.113  -2.925  -0.219  0.00  0.00    +0.158 A 
BRANCH  19  20
ATOM     20  O   UNL     1      -4.312  -2.285  -0.275  0.00  0.00    -0.503 OA
ATOM     21  H   UNL     1      -4.686  -2.228  -1.165  0.00  0.00    +0.292 HD
ENDBRANCH  19  20
BRANCH  14  22
ATOM     22  O   UNL     1      -1.971  -0.861  -0.558  0.00  0.00    -0.489 OA
BRANCH  22  24
ATOM     23  C   UNL     1      -0.963   1.308  -0.907  0.00  0.00    +0.048 C 
ATOM     24  C   UNL     1      -0.718  -0.188  -0.697  0.00  0.00    +0.226 C 
ENDBRANCH  22  24
ENDBRANCH  14  22
ENDBRANCH   1  16
BRANCH   1  25
ATOM     25  N   UNL     1       0.601  -6.146  -0.880  0.00  0.00    -0.332 N 
ATOM     26  H   UNL     1      -0.255  -6.549  -1.097  0.00  0.00    +0.147 HD
BRANCH  25  27
ATOM     27  C   UNL     1       1.782  -6.712  -1.365  0.00  0.00    +0.046 A 
ATOM     28  C   UNL     1       1.752  -7.902  -2.087  0.00  0.00    +0.026 A 
ATOM     29  C   UNL     1       2.950  -8.424  -2.547  0.00  0.00    +0.021 A 
ATOM     30  C   UNL     1       4.127  -7.752  -2.276  0.00  0.00    +0.111 A 
ATOM     31  N   UNL     1       4.122  -6.626  -1.590  0.00  0.00    -0.261 NA
ATOM     32  C   UNL     1       3.005  -6.092  -1.138  0.00  0.00    +0.133 A 
ENDBRANCH  25  27
ENDBRANCH   1  25
TORSDOF 8
