REMARK  Name = ZINC03468750
REMARK  9 active torsions:
REMARK  status: ('A' for Active; 'I' for Inactive)
REMARK    1  A    between atoms: C_1  and  C_2
REMARK    2  A    between atoms: C_2  and  N_3
REMARK    3  A    between atoms: C_7  and  C_9
REMARK    4  A    between atoms: C_9  and  C_11
REMARK    5  A    between atoms: C_9  and  S_12
REMARK    6  A    between atoms: S_12  and  C_13
REMARK    7  A    between atoms: N_26  and  C_27
REMARK    8  A    between atoms: C_30  and  C_34
REMARK    9  A    between atoms: C_32  and  C_33
REMARK                            x       y       z     vdW  Elec       q    Type
REMARK                         _______ _______ _______ _____ _____    ______ ____
ROOT
ATOM      1  C   UNL     1       2.365   0.050  -0.021  0.00  0.00    +0.178 A 
ATOM      2  N   UNL     1       2.374   1.368  -0.013  0.00  0.00    -0.215 NA
ATOM      3  C   UNL     1       1.239   2.056   0.001  0.00  0.00    +0.117 A 
ATOM      4  C   UNL     1      -0.017   1.426   0.010  0.00  0.00    +0.076 A 
ATOM      5  C   UNL     1      -1.179   2.318   0.020  0.00  0.00    -0.023 A 
ATOM      6  C   UNL     1      -0.933   3.644   0.030  0.00  0.00    -0.004 A 
ATOM      7  S   UNL     1       0.834   3.784   0.014  0.00  0.00    -0.073 S 
ATOM      8  C   UNL     1      -1.939   4.754   0.044  0.00  0.00    +0.043 C 
ATOM      9  C   UNL     1      -3.310   4.169  -0.323  0.00  0.00    +0.005 C 
ATOM     10  C   UNL     1      -3.544   2.906   0.510  0.00  0.00    +0.005 C 
ATOM     11  C   UNL     1      -2.611   1.791   0.036  0.00  0.00    +0.037 C 
ATOM     12  C   UNL     1       0.002  -0.004   0.002  0.00  0.00    +0.268 A 
ATOM     13  O   UNL     1      -1.040  -0.636   0.009  0.00  0.00    -0.267 OA
ATOM     14  N   UNL     1       1.187  -0.642  -0.013  0.00  0.00    -0.255 N 
ENDROOT
BRANCH  14  15
ATOM     15  C   UNL     1       1.213  -2.043  -0.021  0.00  0.00    +0.055 A 
ATOM     16  C   UNL     1       1.214  -2.732  -1.227  0.00  0.00    +0.027 A 
ATOM     17  C   UNL     1       1.240  -4.113  -1.232  0.00  0.00    +0.005 A 
ATOM     18  C   UNL     1       1.265  -4.809  -0.037  0.00  0.00    -0.050 A 
ATOM     19  C   UNL     1       1.265  -4.126   1.165  0.00  0.00    +0.008 A 
ATOM     20  C   UNL     1       1.243  -2.745   1.176  0.00  0.00    -0.026 A 
ATOM     21  C   UNL     1       1.249  -2.001   2.487  0.00  0.00    +0.046 C 
ATOM     22  C   UNL     1       1.294  -6.316  -0.045  0.00  0.00    +0.044 C 
ENDBRANCH  14  15
BRANCH   1  23
ATOM     23  S   UNL     1       3.891  -0.830  -0.041  0.00  0.00    -0.075 S 
BRANCH  23  24
ATOM     24  C   UNL     1       5.054   0.557  -0.045  0.00  0.00    +0.137 C 
ATOM     25  C   UNL     1       4.902   1.347  -1.346  0.00  0.00    +0.029 C 
BRANCH  24  30
ATOM     26  N   UNL     1       9.669   1.122   1.180  0.00  0.00    -0.299 N 
ATOM     27  C   UNL     1       8.695   0.342   0.668  0.00  0.00    +0.306 C 
ATOM     28  O   UNL     1       8.954  -0.785   0.294  0.00  0.00    -0.252 OA
ATOM     29  N   UNL     1       7.436   0.811   0.573  0.00  0.00    -0.239 N 
ATOM     30  C   UNL     1       6.463   0.032   0.062  0.00  0.00    +0.233 C 
ATOM     31  O   UNL     1       6.720  -1.093  -0.312  0.00  0.00    -0.274 OA
ATOM     32  H   UNL     1       9.462   2.021   1.479  0.00  0.00    +0.150 HD
ATOM     33  H   UNL     1       7.230   1.711   0.872  0.00  0.00    +0.159 HD
BRANCH  26  35
ATOM     34  C   UNL     1      11.939   1.687   1.892  0.00  0.00    +0.024 C 
ATOM     35  C   UNL     1      11.038   0.611   1.283  0.00  0.00    +0.102 C 
ENDBRANCH  26  35
ENDBRANCH  24  30
ENDBRANCH  23  24
ENDBRANCH   1  23
TORSDOF 5
