REMARK  Name = ZINC13122425
REMARK  4 active torsions:
REMARK  status: ('A' for Active; 'I' for Inactive)
REMARK    1  A    between atoms: C_1  and  S_2
REMARK    2  A    between atoms: S_2  and  N_5
REMARK    3  A    between atoms: C_11  and  C_23
REMARK    4  A    between atoms: C_14  and  C_17
REMARK                            x       y       z     vdW  Elec       q    Type
REMARK                         _______ _______ _______ _____ _____    ______ ____
ROOT
ATOM      1  N   UNL     1       0.795  -0.411  -1.394  0.00  0.00    -0.101 NA
ATOM      2  C   UNL     1       0.979  -1.665  -1.696  0.00  0.00    +0.223 C 
ATOM      3  N   UNL     1       0.561  -2.748  -0.949  0.00  0.00    -0.258 N 
ATOM      4  C   UNL     1       0.934  -3.896  -1.603  0.00  0.00    +0.181 C 
ATOM      5  N   UNL     1       1.612  -3.530  -2.750  0.00  0.00    -0.216 N 
ATOM      6  N   UNL     1       1.619  -2.139  -2.821  0.00  0.00    -0.232 N 
ATOM      7  C   UNL     1       2.197  -4.504  -3.677  0.00  0.00    +0.129 C 
ATOM      8  C   UNL     1       2.467  -5.789  -2.878  0.00  0.00    +0.058 C 
ATOM      9  C   UNL     1       1.194  -6.210  -2.143  0.00  0.00    +0.114 C 
ATOM     10  N   UNL     1       0.730  -5.136  -1.260  0.00  0.00    -0.353 N 
ATOM     11  H   UNL     1       0.276  -5.346  -0.429  0.00  0.00    +0.163 HD
ATOM     12  H   UNL     1       0.085  -2.705  -0.105  0.00  0.00    +0.157 HD
ATOM     13  H   UNL     1       2.005  -1.603  -3.530  0.00  0.00    +0.173 HD
ENDROOT
BRANCH   7  14
ATOM     14  C   UNL     1       1.232  -4.789  -4.799  0.00  0.00    -0.025 A 
ATOM     15  C   UNL     1      -0.120  -4.903  -4.534  0.00  0.00    +0.008 A 
ATOM     16  C   UNL     1      -1.006  -5.164  -5.562  0.00  0.00    +0.038 A 
ATOM     17  C   UNL     1      -0.540  -5.310  -6.857  0.00  0.00    +0.123 A 
ATOM     18  C   UNL     1       0.815  -5.195  -7.121  0.00  0.00    +0.038 A 
ATOM     19  C   UNL     1       1.698  -4.929  -6.093  0.00  0.00    +0.008 A 
ATOM     20  F   UNL     1      -1.405  -5.565  -7.863  0.00  0.00    -0.205 F 
ENDBRANCH   7  14
BRANCH   9  21
ATOM     21  C   UNL     1       1.479  -7.441  -1.321  0.00  0.00    -0.025 A 
ATOM     22  C   UNL     1       2.104  -7.322  -0.094  0.00  0.00    +0.005 A 
ATOM     23  C   UNL     1       2.365  -8.451   0.660  0.00  0.00    +0.000 A 
ATOM     24  C   UNL     1       2.001  -9.698   0.188  0.00  0.00    +0.000 A 
ATOM     25  C   UNL     1       1.376  -9.816  -1.040  0.00  0.00    +0.000 A 
ATOM     26  C   UNL     1       1.111  -8.687  -1.792  0.00  0.00    +0.005 A 
ENDBRANCH   9  21
BRANCH   1  28
ATOM     27  C   UNL     1      -0.022   1.810   0.012  0.00  0.00    +0.223 C 
ATOM     28  S   UNL     1       0.002  -0.004   0.002  0.00  0.00    +0.069 S 
ATOM     29  O   UNL     1       0.835  -0.488   1.046  0.00  0.00    -0.152 OA
ATOM     30  O   UNL     1      -1.315  -0.510  -0.168  0.00  0.00    -0.152 OA
ENDBRANCH   1  28
TORSDOF 3
