REMARK  Name = ZINC12190978
REMARK  9 active torsions:
REMARK  status: ('A' for Active; 'I' for Inactive)
REMARK    1  A    between atoms: C_1  and  O_2
REMARK    2  A    between atoms: O_2  and  C_3
REMARK    3  A    between atoms: C_5  and  C_10
REMARK    4  A    between atoms: C_8  and  O_9
REMARK    5  A    between atoms: C_10  and  N_70
REMARK    6  A    between atoms: C_13  and  C_16
REMARK    7  A    between atoms: C_16  and  C_28
REMARK    8  A    between atoms: N_19  and  C_23
REMARK    9  A    between atoms: C_28  and  C_29
REMARK                            x       y       z     vdW  Elec       q    Type
REMARK                         _______ _______ _______ _____ _____    ______ ____
ROOT
ATOM      1  C   UNL     1       1.220  -2.689  -1.465  0.00  0.00    +0.119 C 
ATOM      2  C   UNL     1      -0.013  -2.196  -2.195  0.00  0.00    +0.247 C 
ATOM      3  O   UNL     1      -1.170  -2.434  -1.921  0.00  0.00    -0.273 OA
ATOM      4  N   UNL     1       0.444  -1.438  -3.211  0.00  0.00    -0.221 N 
ATOM      5  C   UNL     1       1.780  -1.385  -3.224  0.00  0.00    +0.310 C 
ATOM      6  O   UNL     1       2.424  -0.762  -4.047  0.00  0.00    -0.252 OA
ATOM      7  N   UNL     1       2.333  -2.096  -2.226  0.00  0.00    -0.284 N 
ATOM      8  H   UNL     1       3.280  -2.199  -2.042  0.00  0.00    +0.151 HD
ENDROOT
BRANCH   1  11
ATOM      9  C   UNL     1       1.417  -6.220  -2.988  0.00  0.00    -0.078 C 
ATOM     10  C   UNL     1       1.284  -4.695  -2.956  0.00  0.00    -0.013 C 
ATOM     11  C   UNL     1       1.292  -4.217  -1.501  0.00  0.00    +0.018 C 
ATOM     12  C   UNL     1       2.585  -4.685  -0.827  0.00  0.00    -0.013 C 
ATOM     13  C   UNL     1       2.681  -6.209  -0.920  0.00  0.00    -0.078 C 
ATOM     14  N   UNL     1       2.693  -6.603  -2.345  0.00  0.00    +0.382 N 
ATOM     15  H   UNL     1       3.463  -6.117  -2.818  0.00  0.00    -0.081 HD
BRANCH  14  16
ATOM     16  C   UNL     1       2.899  -8.061  -2.464  0.00  0.00    -0.043 C 
BRANCH  16  19
ATOM     17  C   UNL     1       6.398  -8.830  -1.264  0.00  0.00    +0.161 A 
ATOM     18  C   UNL     1       5.339  -8.459  -2.077  0.00  0.00    +0.051 A 
ATOM     19  C   UNL     1       4.049  -8.470  -1.580  0.00  0.00    -0.060 A 
ATOM     20  C   UNL     1       3.811  -8.862  -0.276  0.00  0.00    +0.005 A 
ATOM     21  C   UNL     1       4.862  -9.239   0.538  0.00  0.00    +0.049 A 
ATOM     22  C   UNL     1       6.158  -9.225   0.048  0.00  0.00    +0.158 A 
BRANCH  17  24
ATOM     23  C   UNL     1       7.839  -8.398  -3.106  0.00  0.00    +0.277 C 
ATOM     24  O   UNL     1       7.668  -8.814  -1.750  0.00  0.00    -0.491 OA
ENDBRANCH  17  24
BRANCH  22  25
ATOM     25  O   UNL     1       7.193  -9.596   0.848  0.00  0.00    -0.503 OA
ATOM     26  H   UNL     1       7.401 -10.540   0.811  0.00  0.00    +0.292 HD
ENDBRANCH  22  25
ENDBRANCH  16  19
ENDBRANCH  14  16
ENDBRANCH   1  11
BRANCH   4  27
ATOM     27  C   UNL     1      -0.417  -0.758  -4.182  0.00  0.00    +0.086 C 
ATOM     28  C   UNL     1      -0.071  -1.223  -5.612  0.00  0.00    +0.023 C 
ATOM     29  C   UNL     1      -0.225   0.056  -6.474  0.00  0.00    +0.002 C 
ATOM     30  C   UNL     1       0.328   1.164  -5.544  0.00  0.00    +0.002 C 
ATOM     31  C   UNL     1      -0.164   0.759  -4.139  0.00  0.00    +0.023 C 
ENDBRANCH   4  27
BRANCH   1  32
ATOM     32  C   UNL     1       1.227  -2.186  -0.020  0.00  0.00    +0.070 C 
BRANCH  32  33
ATOM     33  C   UNL     1       1.208  -0.679  -0.013  0.00  0.00    -0.045 A 
ATOM     34  C   UNL     1       0.002  -0.004   0.002  0.00  0.00    +0.006 A 
ATOM     35  C   UNL     1      -0.017   1.378   0.010  0.00  0.00    +0.038 A 
ATOM     36  C   UNL     1       1.173   2.086   0.002  0.00  0.00    +0.123 A 
ATOM     37  C   UNL     1       2.381   1.408  -0.013  0.00  0.00    +0.038 A 
ATOM     38  C   UNL     1       2.397   0.026  -0.020  0.00  0.00    +0.006 A 
ATOM     39  F   UNL     1       1.156   3.437   0.009  0.00  0.00    -0.205 F 
ENDBRANCH  32  33
ENDBRANCH   1  32
TORSDOF 8
