REMARK  Name = ZINC38570907
REMARK  7 active torsions:
REMARK  status: ('A' for Active; 'I' for Inactive)
REMARK    1  A    between atoms: C_1  and  C_2
REMARK    2  A    between atoms: C_14  and  C_19
REMARK    3  A    between atoms: C_16  and  C_18
REMARK    4  A    between atoms: C_19  and  C_20
REMARK    5  A    between atoms: N_22  and  C_23
REMARK    6  A    between atoms: C_23  and  C_24
REMARK    7  A    between atoms: C_24  and  C_25
REMARK                            x       y       z     vdW  Elec       q    Type
REMARK                         _______ _______ _______ _____ _____    ______ ____
ROOT
ATOM      1  C   UNL     1      -1.911  -2.862   5.535  0.00  0.00    +0.111 C 
ENDROOT
BRANCH   1  15
ATOM      2  C   UNL     1      -0.018   1.503   0.010  0.00  0.00    +0.047 C 
ATOM      3  C   UNL     1       0.002  -0.004   0.002  0.00  0.00    -0.005 A 
ATOM      4  C   UNL     1       0.009  -0.802  -1.074  0.00  0.00    +0.199 A 
ATOM      5  O   UNL     1       0.028  -2.092  -0.694  0.00  0.00    -0.463 OA
ATOM      6  C   UNL     1       0.033  -2.197   0.651  0.00  0.00    +0.139 A 
ATOM      7  C   UNL     1       0.025  -0.892   1.171  0.00  0.00    +0.024 A 
ATOM      8  C   UNL     1       0.039  -0.690   2.549  0.00  0.00    +0.019 A 
ATOM      9  C   UNL     1       0.059  -1.762   3.403  0.00  0.00    -0.001 A 
ATOM     10  C   UNL     1       0.064  -3.056   2.897  0.00  0.00    +0.139 A 
ATOM     11  C   UNL     1       0.048  -3.273   1.526  0.00  0.00    +0.093 A 
ATOM     12  O   UNL     1       0.063  -4.144   3.715  0.00  0.00    -0.425 OA
ATOM     13  C   UNL     1       0.281  -3.937   5.029  0.00  0.00    +0.316 C 
ATOM     14  O   UNL     1       0.978  -4.678   5.680  0.00  0.00    -0.250 OA
ATOM     15  C   UNL     1      -0.391  -2.729   5.652  0.00  0.00    +0.114 C 
ATOM     16  C   UNL     1       0.084  -1.490   4.887  0.00  0.00    +0.034 C 
ATOM     17  C   UNL     1      -0.841  -0.312   5.202  0.00  0.00    +0.013 C 
ENDBRANCH   1  15
BRANCH   1  18
ATOM     18  C   UNL     1      -2.376  -4.038   6.354  0.00  0.00    +0.214 C 
ATOM     19  O   UNL     1      -1.571  -4.704   6.971  0.00  0.00    -0.276 OA
ATOM     20  N   UNL     1      -3.686  -4.350   6.402  0.00  0.00    -0.315 N 
ATOM     21  H   UNL     1      -4.330  -3.817   5.909  0.00  0.00    +0.149 HD
BRANCH  20  22
ATOM     22  C   UNL     1      -4.139  -5.493   7.199  0.00  0.00    +0.109 C 
BRANCH  22  23
ATOM     23  C   UNL     1      -5.658  -5.627   7.082  0.00  0.00    +0.056 C 
BRANCH  23  24
ATOM     24  C   UNL     1      -6.124  -6.803   7.901  0.00  0.00    -0.021 A 
ATOM     25  C   UNL     1      -6.429  -6.800   9.334  0.00  0.00    +0.004 A 
ATOM     26  C   UNL     1      -6.400  -5.822  10.330  0.00  0.00    +0.030 A 
ATOM     27  C   UNL     1      -6.757  -6.152  11.619  0.00  0.00    +0.042 A 
ATOM     28  C   UNL     1      -7.144  -7.449  11.930  0.00  0.00    +0.022 A 
ATOM     29  C   UNL     1      -7.177  -8.425  10.959  0.00  0.00    +0.027 A 
ATOM     30  C   UNL     1      -6.821  -8.114   9.651  0.00  0.00    +0.047 A 
ATOM     31  N   UNL     1      -6.754  -8.849   8.487  0.00  0.00    -0.360 N 
ATOM     32  C   UNL     1      -6.343  -8.050   7.455  0.00  0.00    +0.087 A 
ATOM     33 CL   UNL     1      -6.723  -4.939  12.861  0.00  0.00    -0.084 Cl
ATOM     34  H   UNL     1      -6.970  -9.791   8.410  0.00  0.00    +0.165 HD
ENDBRANCH  23  24
ENDBRANCH  22  23
ENDBRANCH  20  22
ENDBRANCH   1  18
TORSDOF 5
