REMARK  Name = ZINC16445570
REMARK  12 active torsions:
REMARK  status: ('A' for Active; 'I' for Inactive)
REMARK    1  A    between atoms: C_1  and  C_2
REMARK    2  A    between atoms: C_2  and  C_3
REMARK    3  A    between atoms: C_2  and  C_4
REMARK    4  A    between atoms: C_4  and  N_5
REMARK    5  A    between atoms: N_5  and  C_6
REMARK    6  A    between atoms: C_7  and  N_22
REMARK    7  A    between atoms: N_8  and  C_15
REMARK    8  A    between atoms: C_15  and  C_16
REMARK    9  A    between atoms: C_23  and  C_25
REMARK   10  A    between atoms: C_25  and  N_26
REMARK   11  A    between atoms: N_26  and  C_27
REMARK   12  A    between atoms: N_26  and  C_28
REMARK                            x       y       z     vdW  Elec       q    Type
REMARK                         _______ _______ _______ _____ _____    ______ ____
ROOT
ATOM      1  C   UNL     1      -1.490  -2.613   1.446  0.00  0.00    +0.140 A 
ATOM      2  C   UNL     1      -2.575  -2.295   2.239  0.00  0.00    +0.128 A 
ATOM      3  N   UNL     1      -2.660  -2.826   3.505  0.00  0.00    -0.276 N 
ATOM      4  C   UNL     1      -1.697  -3.645   3.965  0.00  0.00    +0.331 A 
ATOM      5  O   UNL     1      -1.790  -4.104   5.088  0.00  0.00    -0.246 OA
ATOM      6  N   UNL     1      -0.634  -3.966   3.207  0.00  0.00    -0.273 N 
ATOM      7  H   UNL     1       0.047  -4.559   3.562  0.00  0.00    +0.173 HD
ATOM      8  C   UNL     1      -0.505  -3.478   1.958  0.00  0.00    +0.277 A 
ATOM      9  O   UNL     1       0.461  -3.779   1.278  0.00  0.00    -0.266 OA
ENDROOT
BRANCH   1  10
ATOM     10  N   UNL     1      -1.374  -2.084   0.143  0.00  0.00    -0.266 N 
ATOM     11  C   UNL     1      -1.342  -2.913  -0.921  0.00  0.00    +0.203 C 
ATOM     12  O   UNL     1      -1.505  -4.105  -0.766  0.00  0.00    -0.277 OA
BRANCH  10  13
ATOM     13  C   UNL     1      -1.290  -0.635  -0.054  0.00  0.00    +0.117 C 
BRANCH  13  15
ATOM     14  C   UNL     1       0.262   1.260  -0.546  0.00  0.00    +0.009 C 
ATOM     15  C   UNL     1       0.179  -0.222  -0.176  0.00  0.00    +0.001 C 
ATOM     16  C   UNL     1       0.886  -0.454   1.161  0.00  0.00    +0.009 C 
ENDBRANCH  13  15
ENDBRANCH  10  13
BRANCH  11  17
ATOM     17  C   UNL     1      -1.102  -2.358  -2.301  0.00  0.00    +0.019 C 
BRANCH  17  18
ATOM     18  N   UNL     1      -1.112  -3.455  -3.278  0.00  0.00    +0.385 N 
ATOM     19  C   UNL     1       0.021  -4.353  -3.018  0.00  0.00    -0.095 C 
ATOM     20  H   UNL     1      -1.976  -3.970  -3.196  0.00  0.00    -0.081 HD
BRANCH  18  21
ATOM     21  C   UNL     1      -0.998  -2.903  -4.635  0.00  0.00    -0.068 C 
ATOM     22  C   UNL     1      -2.178  -1.968  -4.906  0.00  0.00    -0.015 C 
ATOM     23  C   UNL     1      -2.060  -1.393  -6.319  0.00  0.00    -0.002 C 
ATOM     24  C   UNL     1      -2.070  -2.535  -7.337  0.00  0.00    -0.000 C 
ATOM     25  C   UNL     1      -0.890  -3.471  -7.066  0.00  0.00    -0.002 C 
ATOM     26  C   UNL     1      -1.009  -4.046  -5.653  0.00  0.00    -0.015 C 
ENDBRANCH  18  21
ENDBRANCH  17  18
ENDBRANCH  11  17
ENDBRANCH   1  10
BRANCH   2  27
ATOM     27  N   UNL     1      -3.558  -1.457   1.768  0.00  0.00    -0.343 N 
ATOM     28  H   UNL     1      -3.541  -1.161   0.845  0.00  0.00    +0.144 HD
ATOM     29  H   UNL     1      -4.268  -1.163   2.360  0.00  0.00    +0.144 HD
ENDBRANCH   2  27
BRANCH   3  30
ATOM     30  C   UNL     1      -3.805  -2.497   4.357  0.00  0.00    +0.163 C 
BRANCH  30  31
ATOM     31  C   UNL     1      -4.904  -3.504   4.132  0.00  0.00    -0.028 A 
ATOM     32  C   UNL     1      -5.855  -3.282   3.154  0.00  0.00    +0.005 A 
ATOM     33  C   UNL     1      -6.863  -4.205   2.948  0.00  0.00    +0.000 A 
ATOM     34  C   UNL     1      -6.919  -5.351   3.719  0.00  0.00    +0.000 A 
ATOM     35  C   UNL     1      -5.967  -5.573   4.696  0.00  0.00    +0.000 A 
ATOM     36  C   UNL     1      -4.957  -4.652   4.900  0.00  0.00    +0.005 A 
ENDBRANCH  30  31
ENDBRANCH   3  30
TORSDOF 9
