REMARK  Name = ZINC14650741
REMARK  12 active torsions:
REMARK  status: ('A' for Active; 'I' for Inactive)
REMARK    1  A    between atoms: C_1  and  C_2
REMARK    2  A    between atoms: C_2  and  C_3
REMARK    3  A    between atoms: C_2  and  C_4
REMARK    4  A    between atoms: C_4  and  C_5
REMARK    5  A    between atoms: C_5  and  O_6
REMARK    6  A    between atoms: O_6  and  C_7
REMARK    7  A    between atoms: C_12  and  C_13
REMARK    8  A    between atoms: N_15  and  N_16
REMARK    9  A    between atoms: C_17  and  C_19
REMARK   10  A    between atoms: C_19  and  C_20
REMARK   11  A    between atoms: C_20  and  C_21
REMARK   12  A    between atoms: N_23  and  C_24
REMARK                            x       y       z     vdW  Elec       q    Type
REMARK                         _______ _______ _______ _____ _____    ______ ____
ROOT
ATOM      1  C   UNL     1       7.307   1.170  -0.002  0.00  0.00    +0.264 C 
ATOM      2  O   UNL     1       7.323  -0.046  -0.012  0.00  0.00    -0.269 OA
ATOM      3  N   UNL     1       6.131   1.829   0.006  0.00  0.00    -0.230 N 
ATOM      4  H   UNL     1       6.119   2.799   0.015  0.00  0.00    +0.173 HD
ENDROOT
BRANCH   1  10
ATOM      5  C   UNL     1       9.800   1.244  -0.007  0.00  0.00    +0.133 A 
ATOM      6  C   UNL     1      10.986   1.963  -0.004  0.00  0.00    +0.047 A 
ATOM      7  C   UNL     1      10.959   3.343   0.007  0.00  0.00    +0.019 A 
ATOM      8  C   UNL     1       9.750   4.021   0.015  0.00  0.00    +0.019 A 
ATOM      9  C   UNL     1       8.561   3.322   0.008  0.00  0.00    +0.032 A 
ATOM     10  C   UNL     1       8.575   1.925   0.002  0.00  0.00    +0.081 A 
ATOM     11 BR   UNL     1       9.730   5.911   0.030  0.00  0.00    -0.050 Br
BRANCH   5  12
ATOM     12  O   UNL     1       9.826  -0.112  -0.018  0.00  0.00    -0.491 OA
BRANCH  12  13
ATOM     13  C   UNL     1      11.111  -0.737  -0.026  0.00  0.00    +0.229 C 
BRANCH  13  14
ATOM     14  C   UNL     1      10.939  -2.257  -0.038  0.00  0.00    +0.044 C 
BRANCH  14  16
ATOM     15  C   UNL     1      12.146  -4.442   0.068  0.00  0.00    +0.007 C 
ATOM     16  C   UNL     1      12.315  -2.926  -0.047  0.00  0.00    -0.014 C 
ATOM     17  C   UNL     1      13.037  -2.590  -1.353  0.00  0.00    +0.007 C 
ENDBRANCH  14  16
ENDBRANCH  13  14
ENDBRANCH  12  13
ENDBRANCH   5  12
ENDBRANCH   1  10
BRANCH   3  18
ATOM     18  N   UNL     1       4.927   1.112   0.003  0.00  0.00    -0.234 N 
ATOM     19  C   UNL     1       3.751   1.771   0.011  0.00  0.00    +0.230 C 
ATOM     20  O   UNL     1       3.735   2.983   0.022  0.00  0.00    -0.274 OA
ATOM     21  H   UNL     1       4.940   0.142  -0.005  0.00  0.00    +0.173 HD
BRANCH  19  22
ATOM     22  C   UNL     1       2.456   1.000   0.008  0.00  0.00    +0.106 C 
BRANCH  22  23
ATOM     23  C   UNL     1       1.280   1.979   0.019  0.00  0.00    +0.105 C 
BRANCH  23  24
ATOM     24  C   UNL     1      -0.015   1.208   0.015  0.00  0.00    +0.218 C 
ATOM     25  O   UNL     1       0.001  -0.005   0.005  0.00  0.00    -0.275 OA
ATOM     26  N   UNL     1      -1.191   1.867   0.018  0.00  0.00    -0.284 N 
ATOM     27  H   UNL     1      -1.205   2.834   0.092  0.00  0.00    +0.155 HD
BRANCH  26  28
ATOM     28  C   UNL     1      -2.392   1.155  -0.086  0.00  0.00    +0.052 A 
ATOM     29  C   UNL     1      -2.510  -0.099   0.499  0.00  0.00    +0.025 A 
ATOM     30  C   UNL     1      -3.698  -0.796   0.399  0.00  0.00    +0.002 A 
ATOM     31  C   UNL     1      -4.766  -0.253  -0.291  0.00  0.00    +0.002 A 
ATOM     32  C   UNL     1      -4.650   0.993  -0.880  0.00  0.00    +0.022 A 
ATOM     33  C   UNL     1      -3.466   1.699  -0.779  0.00  0.00    +0.062 A 
ATOM     34 CL   UNL     1      -3.320   3.263  -1.519  0.00  0.00    -0.082 Cl
ENDBRANCH  26  28
ENDBRANCH  23  24
ENDBRANCH  22  23
ENDBRANCH  19  22
ENDBRANCH   3  18
TORSDOF 10
