REMARK  Name = ZINC06153563
REMARK  11 active torsions:
REMARK  status: ('A' for Active; 'I' for Inactive)
REMARK    1  A    between atoms: C_1  and  C_2
REMARK    2  A    between atoms: C_2  and  C_3
REMARK    3  A    between atoms: C_3  and  C_4
REMARK    4  A    between atoms: C_4  and  N_5
REMARK    5  A    between atoms: C_9  and  S_31
REMARK    6  A    between atoms: C_13  and  S_14
REMARK    7  A    between atoms: S_14  and  C_15
REMARK    8  A    between atoms: C_15  and  C_17
REMARK    9  A    between atoms: C_15  and  C_18
REMARK   10  A    between atoms: N_20  and  C_21
REMARK   11  A    between atoms: S_31  and  N_34
REMARK                            x       y       z     vdW  Elec       q    Type
REMARK                         _______ _______ _______ _____ _____    ______ ____
ROOT
ATOM      1  N   UNL     1       6.843  -6.238  -0.745  0.00  0.00    -0.319 N 
ATOM      2  C   UNL     1       8.213  -6.276  -0.543  0.00  0.00    +0.070 A 
ATOM      3  C   UNL     1       9.184  -7.249  -0.720  0.00  0.00    +0.030 A 
ATOM      4  C   UNL     1      10.500  -6.971  -0.412  0.00  0.00    +0.030 A 
ATOM      5  C   UNL     1      10.859  -5.722   0.075  0.00  0.00    +0.107 A 
ATOM      6  C   UNL     1       9.908  -4.744   0.257  0.00  0.00    +0.058 A 
ATOM      7  C   UNL     1       8.571  -5.010  -0.051  0.00  0.00    +0.092 A 
ATOM      8  N   UNL     1       7.432  -4.271   0.019  0.00  0.00    -0.222 NA
ATOM      9  C   UNL     1       6.416  -4.989  -0.392  0.00  0.00    +0.171 A 
ENDROOT
BRANCH   5  10
ATOM     10  S   UNL     1      12.544  -5.386   0.463  0.00  0.00    +0.056 S 
ATOM     11  O   UNL     1      13.326  -6.287  -0.310  0.00  0.00    -0.153 OA
ATOM     12  O   UNL     1      12.706  -3.977   0.384  0.00  0.00    -0.153 OA
BRANCH  10  13
ATOM     13  N   UNL     1      12.774  -5.801   2.049  0.00  0.00    -0.204 NA
ATOM     14  H   UNL     1      12.036  -6.155   2.570  0.00  0.00    +0.144 HD
ATOM     15  H   UNL     1      13.646  -5.689   2.458  0.00  0.00    +0.144 HD
ENDBRANCH  10  13
ENDBRANCH   5  10
BRANCH   1  16
ATOM     16  C   UNL     1       6.008  -7.332  -1.248  0.00  0.00    +0.124 C 
BRANCH  16  17
ATOM     17  C   UNL     1       5.934  -7.257  -2.774  0.00  0.00    +0.021 C 
BRANCH  17  19
ATOM     18  C   UNL     1       4.987  -8.325  -4.825  0.00  0.00    +0.004 C 
ATOM     19  C   UNL     1       5.062  -8.400  -3.298  0.00  0.00    -0.002 C 
ENDBRANCH  17  19
ENDBRANCH  16  17
ENDBRANCH   1  16
BRANCH   9  20
ATOM     20  S   UNL     1       4.747  -4.430  -0.470  0.00  0.00    -0.075 S 
BRANCH  20  21
ATOM     21  C   UNL     1       4.953  -2.739   0.143  0.00  0.00    +0.137 C 
ATOM     22  C   UNL     1       5.412  -2.778   1.602  0.00  0.00    +0.029 C 
BRANCH  21  23
ATOM     23  C   UNL     1       3.639  -2.007   0.050  0.00  0.00    +0.230 C 
ATOM     24  O   UNL     1       2.597  -2.628   0.058  0.00  0.00    -0.274 OA
ATOM     25  N   UNL     1       3.621  -0.663  -0.044  0.00  0.00    -0.284 N 
ATOM     26  H   UNL     1       4.454  -0.171  -0.119  0.00  0.00    +0.155 HD
BRANCH  25  27
ATOM     27  C   UNL     1       2.400   0.024  -0.034  0.00  0.00    +0.037 A 
ATOM     28  C   UNL     1       2.308   1.268   0.577  0.00  0.00    +0.027 A 
ATOM     29  C   UNL     1       1.105   1.945   0.588  0.00  0.00    +0.051 A 
ATOM     30  C   UNL     1      -0.015   1.387  -0.010  0.00  0.00    +0.162 A 
ATOM     31  C   UNL     1       0.074   0.143  -0.624  0.00  0.00    +0.164 A 
ATOM     32  C   UNL     1       1.282  -0.537  -0.634  0.00  0.00    +0.072 A 
ATOM     33  O   UNL     1      -1.011  -0.418  -1.224  0.00  0.00    -0.485 OA
ATOM     34  C   UNL     1      -2.291   0.119  -0.871  0.00  0.00    +0.270 C 
ATOM     35  C   UNL     1      -2.198   1.651  -0.916  0.00  0.00    +0.270 C 
ATOM     36  O   UNL     1      -1.195   2.066   0.018  0.00  0.00    -0.485 OA
ENDBRANCH  25  27
ENDBRANCH  21  23
ENDBRANCH  20  21
ENDBRANCH   9  20
TORSDOF 9
