REMARK  Name = ZINC20830946
REMARK  10 active torsions:
REMARK  status: ('A' for Active; 'I' for Inactive)
REMARK    1  A    between atoms: C_2  and  C_3
REMARK    2  A    between atoms: C_3  and  N_4
REMARK    3  A    between atoms: C_5  and  C_24
REMARK    4  A    between atoms: C_8  and  S_9
REMARK    5  A    between atoms: S_9  and  C_10
REMARK    6  A    between atoms: C_10  and  C_11
REMARK    7  A    between atoms: C_17  and  S_19
REMARK    8  A    between atoms: S_19  and  C_20
REMARK    9  A    between atoms: C_20  and  C_21
REMARK   10  A    between atoms: C_24  and  N_25
REMARK                            x       y       z     vdW  Elec       q    Type
REMARK                         _______ _______ _______ _____ _____    ______ ____
ROOT
ATOM      1  N   UNL     1      -0.312   1.314  -4.356  0.00  0.00    -0.301 N 
ATOM      2  C   UNL     1       0.670   0.433  -4.714  0.00  0.00    +0.156 A 
ATOM      3  N   UNL     1       1.254   0.036  -3.619  0.00  0.00    -0.132 NA
ATOM      4  N   UNL     1       0.716   0.606  -2.601  0.00  0.00    -0.122 NA
ATOM      5  C   UNL     1      -0.249   1.404  -2.994  0.00  0.00    +0.192 A 
ENDROOT
BRANCH   1   6
ATOM      6  C   UNL     1      -1.238   2.018  -5.247  0.00  0.00    +0.152 C 
BRANCH   6   8
ATOM      7  C   UNL     1      -0.511   3.673  -6.888  0.00  0.00    +0.005 C 
ATOM      8  C   UNL     1      -0.653   3.354  -5.625  0.00  0.00    -0.013 C 
ENDBRANCH   6   8
ENDBRANCH   1   6
BRANCH   5   9
ATOM      9  S   UNL     1      -1.274   2.398  -1.962  0.00  0.00    -0.077 S 
BRANCH   9  10
ATOM     10  C   UNL     1      -0.594   1.971  -0.340  0.00  0.00    +0.173 C 
BRANCH  10  11
ATOM     11  C   UNL     1      -1.338   2.725   0.732  0.00  0.00    +0.229 C 
ATOM     12  O   UNL     1      -2.240   3.478   0.428  0.00  0.00    -0.275 OA
ATOM     13  N   UNL     1      -1.001   2.564   2.027  0.00  0.00    -0.263 N 
ATOM     14  C   UNL     1      -1.689   3.261   3.017  0.00  0.00    +0.189 A 
ATOM     15  N   UNL     1      -2.691   4.120   2.913  0.00  0.00    -0.125 NA
ATOM     16  N   UNL     1      -3.208   4.670   3.923  0.00  0.00    -0.133 NA
ATOM     17  C   UNL     1      -2.779   4.422   5.152  0.00  0.00    +0.160 A 
ATOM     18  S   UNL     1      -1.476   3.246   4.795  0.00  0.00    -0.024 S 
ATOM     19  H   UNL     1      -0.183   1.882   2.302  0.00  0.00    +0.157 HD
BRANCH  17  20
ATOM     20  S   UNL     1      -3.336   5.060   6.697  0.00  0.00    -0.088 S 
BRANCH  20  21
ATOM     21  C   UNL     1      -4.686   6.185   6.246  0.00  0.00    +0.171 C 
BRANCH  21  22
ATOM     22  C   UNL     1      -5.259   6.807   7.493  0.00  0.00    +0.221 C 
ATOM     23  O   UNL     1      -4.802   6.520   8.579  0.00  0.00    -0.275 OA
ATOM     24  N   UNL     1      -6.280   7.682   7.402  0.00  0.00    -0.329 N 
ATOM     25  H   UNL     1      -6.698   8.136   8.312  0.00  0.00    +0.145 HD
ATOM     26  H   UNL     1      -6.694   7.943   6.417  0.00  0.00    +0.145 HD
ENDBRANCH  21  22
ENDBRANCH  20  21
ENDBRANCH  17  20
ENDBRANCH  10  11
ENDBRANCH   9  10
ENDBRANCH   5   9
BRANCH   2  27
ATOM     27  C   UNL     1       1.010  -0.003  -6.116  0.00  0.00    +0.222 C 
BRANCH  27  28
ATOM     28  N   UNL     1       0.295  -1.244  -6.428  0.00  0.00    -0.237 N 
ATOM     29  C   UNL     1       0.780  -2.525  -6.308  0.00  0.00    +0.089 A 
ATOM     30  C   UNL     1       1.992  -3.064  -5.892  0.00  0.00    +0.029 A 
ATOM     31  C   UNL     1       2.167  -4.420  -5.887  0.00  0.00    +0.002 A 
ATOM     32  C   UNL     1       1.142  -5.265  -6.293  0.00  0.00    +0.002 A 
ATOM     33  C   UNL     1      -0.056  -4.761  -6.706  0.00  0.00    +0.032 A 
ATOM     34  C   UNL     1      -0.261  -3.375  -6.721  0.00  0.00    +0.113 A 
ATOM     35  N   UNL     1      -1.309  -2.601  -7.067  0.00  0.00    -0.129 NA
ATOM     36  N   UNL     1      -1.020  -1.358  -6.904  0.00  0.00    -0.064 NA
ENDBRANCH  27  28
ENDBRANCH   2  27
TORSDOF 10
