REMARK  Name = ZINC39596371
REMARK  11 active torsions:
REMARK  status: ('A' for Active; 'I' for Inactive)
REMARK    1  A    between atoms: C_1  and  C_2
REMARK    2  A    between atoms: C_2  and  C_4
REMARK    3  A    between atoms: C_2  and  O_31
REMARK    4  A    between atoms: C_4  and  N_5
REMARK    5  A    between atoms: C_6  and  C_8
REMARK    6  A    between atoms: C_19  and  C_21
REMARK    7  A    between atoms: C_23  and  O_29
REMARK    8  A    between atoms: C_26  and  O_27
REMARK    9  A    between atoms: O_27  and  C_28
REMARK   10  A    between atoms: O_29  and  C_30
REMARK   11  A    between atoms: O_31  and  C_32
REMARK                            x       y       z     vdW  Elec       q    Type
REMARK                         _______ _______ _______ _____ _____    ______ ____
ROOT
ATOM      1  C   UNL     1      -3.552  -3.694   0.397  0.00  0.00    +0.100 C 
ATOM      2  C   UNL     1      -2.979  -4.417   1.636  0.00  0.00    +0.121 C 
ATOM      3  N   UNL     1      -4.134  -4.562   2.553  0.00  0.00    -0.296 N 
ATOM      4  C   UNL     1      -5.272  -4.893   1.663  0.00  0.00    +0.115 C 
ATOM      5  C   UNL     1      -5.057  -4.011   0.416  0.00  0.00    -0.004 C 
ATOM      6  C   UNL     1      -5.452  -4.775  -0.845  0.00  0.00    -0.010 C 
ATOM      7  C   UNL     1      -6.962  -5.028  -0.831  0.00  0.00    -0.082 C 
ATOM      8  N   UNL     1      -7.674  -3.746  -0.767  0.00  0.00    +0.379 N 
ATOM      9  C   UNL     1      -7.361  -3.061   0.492  0.00  0.00    -0.082 C 
ATOM     10  C   UNL     1      -5.867  -2.724   0.534  0.00  0.00    -0.010 C 
ATOM     11  C   UNL     1      -4.146  -4.425   3.894  0.00  0.00    +0.250 C 
ATOM     12  O   UNL     1      -3.143  -4.064   4.478  0.00  0.00    -0.270 OA
ATOM     13  H   UNL     1      -7.391  -3.167  -1.544  0.00  0.00    -0.086 HD
ATOM     14  H   UNL     1      -8.668  -3.912  -0.820  0.00  0.00    -0.086 HD
ENDROOT
BRANCH  11  15
ATOM     15  C   UNL     1      -5.378  -4.713   4.653  0.00  0.00    +0.082 A 
ATOM     16  C   UNL     1      -6.231  -5.741   4.243  0.00  0.00    +0.062 A 
ATOM     17  C   UNL     1      -7.384  -6.005   4.960  0.00  0.00    +0.121 A 
ATOM     18  C   UNL     1      -7.695  -5.252   6.085  0.00  0.00    +0.049 A 
ATOM     19  C   UNL     1      -6.858  -4.235   6.497  0.00  0.00    +0.050 A 
ATOM     20  C   UNL     1      -5.695  -3.962   5.792  0.00  0.00    +0.132 A 
BRANCH  20  21
ATOM     21  O   UNL     1      -4.870  -2.965   6.201  0.00  0.00    -0.494 OA
ATOM     22  C   UNL     1      -5.257  -2.240   7.370  0.00  0.00    +0.277 C 
ENDBRANCH  20  21
BRANCH  17  23
ATOM     23  O   UNL     1      -8.215  -7.005   4.562  0.00  0.00    -0.495 OA
ATOM     24  C   UNL     1      -9.388  -7.225   5.348  0.00  0.00    +0.277 C 
ENDBRANCH  17  23
ENDBRANCH  11  15
BRANCH   1  26
ATOM     25  N   UNL     1      -3.318  -1.444  -0.604  0.00  0.00    -0.312 N 
ATOM     26  C   UNL     1      -3.328  -2.208   0.506  0.00  0.00    +0.218 C 
ATOM     27  O   UNL     1      -3.157  -1.698   1.594  0.00  0.00    -0.275 OA
ATOM     28  H   UNL     1      -3.455  -1.851  -1.474  0.00  0.00    +0.149 HD
BRANCH  25  29
ATOM     29  C   UNL     1      -3.101   0.001  -0.498  0.00  0.00    +0.148 C 
BRANCH  29  31
ATOM     30  C   UNL     1      -2.786   2.112  -1.796  0.00  0.00    +0.053 C 
ATOM     31  C   UNL     1      -3.136   0.626  -1.894  0.00  0.00    +0.187 C 
BRANCH  31  32
ATOM     32  O   UNL     1      -4.445   0.481  -2.448  0.00  0.00    -0.488 OA
BRANCH  32  33
ATOM     33  C   UNL     1      -4.549   0.510  -3.803  0.00  0.00    +0.121 A 
ATOM     34  C   UNL     1      -3.408   0.622  -4.584  0.00  0.00    +0.048 A 
ATOM     35  C   UNL     1      -3.514   0.652  -5.961  0.00  0.00    +0.042 A 
ATOM     36  C   UNL     1      -4.759   0.569  -6.562  0.00  0.00    +0.124 A 
ATOM     37  C   UNL     1      -5.899   0.457  -5.783  0.00  0.00    +0.042 A 
ATOM     38  C   UNL     1      -5.795   0.421  -4.406  0.00  0.00    +0.048 A 
ATOM     39  F   UNL     1      -4.862   0.599  -7.908  0.00  0.00    -0.205 F 
ENDBRANCH  32  33
ENDBRANCH  31  32
ENDBRANCH  29  31
ENDBRANCH  25  29
ENDBRANCH   1  26
TORSDOF 8
