REMARK  Name = ZINC11592184
REMARK  10 active torsions:
REMARK  status: ('A' for Active; 'I' for Inactive)
REMARK    1  A    between atoms: C_3  and  C_6
REMARK    2  A    between atoms: C_9  and  S_12
REMARK    3  A    between atoms: N_10  and  N_11
REMARK    4  A    between atoms: S_12  and  C_13
REMARK    5  A    between atoms: C_13  and  C_14
REMARK    6  A    between atoms: C_17  and  C_20
REMARK    7  A    between atoms: C_20  and  S_21
REMARK    8  A    between atoms: S_21  and  C_22
REMARK    9  A    between atoms: C_25  and  C_28
REMARK   10  A    between atoms: N_26  and  N_27
REMARK                            x       y       z     vdW  Elec       q    Type
REMARK                         _______ _______ _______ _____ _____    ______ ____
ROOT
ATOM      1  C   UNL     1       5.437   3.078  -0.034  0.00  0.00    -0.037 A 
ATOM      2  C   UNL     1       6.118   3.244   1.157  0.00  0.00    +0.005 A 
ATOM      3  C   UNL     1       7.460   3.575   1.146  0.00  0.00    +0.005 A 
ATOM      4  C   UNL     1       8.120   3.747  -0.057  0.00  0.00    -0.037 A 
ATOM      5  C   UNL     1       7.437   3.586  -1.248  0.00  0.00    +0.005 A 
ATOM      6  C   UNL     1       6.096   3.252  -1.237  0.00  0.00    +0.005 A 
ENDROOT
BRANCH   1   7
ATOM      7  C   UNL     1       3.975   2.713  -0.021  0.00  0.00    +0.112 C 
BRANCH   7   8
ATOM      8  S   UNL     1       3.802   0.912  -0.030  0.00  0.00    -0.080 S 
BRANCH   8  12
ATOM      9  C   UNL     1       0.002  -0.004   0.002  0.00  0.00    +0.188 A 
ATOM     10  N   UNL     1      -0.016   1.311   0.009  0.00  0.00    -0.126 NA
ATOM     11  N   UNL     1       1.186   1.766   0.000  0.00  0.00    -0.121 NA
ATOM     12  C   UNL     1       2.046   0.773  -0.013  0.00  0.00    +0.209 A 
ATOM     13  N   UNL     1       1.324  -0.389  -0.013  0.00  0.00    -0.223 N 
BRANCH   9  16
ATOM     14  C   UNL     1      -3.414  -1.610  -0.187  0.00  0.00    +0.008 A 
ATOM     15  C   UNL     1      -2.484  -0.598  -0.248  0.00  0.00    +0.019 A 
ATOM     16  C   UNL     1      -1.169  -0.895   0.008  0.00  0.00    +0.058 A 
ATOM     17  S   UNL     1      -1.250  -2.644   0.358  0.00  0.00    -0.093 S 
ATOM     18  C   UNL     1      -3.007  -2.865   0.136  0.00  0.00    +0.046 A 
ENDBRANCH   9  16
BRANCH  13  19
ATOM     19  N   UNL     1       1.813  -1.664  -0.025  0.00  0.00    -0.295 N 
ATOM     20  H   UNL     1       1.934  -1.997  -0.970  0.00  0.00    +0.163 HD
ATOM     21  H   UNL     1       2.677  -1.725   0.493  0.00  0.00    +0.163 HD
ENDBRANCH  13  19
ENDBRANCH   8  12
ENDBRANCH   7   8
ENDBRANCH   1   7
BRANCH   4  22
ATOM     22  C   UNL     1       9.582   4.111  -0.069  0.00  0.00    +0.112 C 
BRANCH  22  23
ATOM     23  S   UNL     1       9.755   5.913  -0.062  0.00  0.00    -0.080 S 
BRANCH  23  24
ATOM     24  C   UNL     1      11.512   6.051  -0.078  0.00  0.00    +0.209 A 
ATOM     25  N   UNL     1      12.371   5.058  -0.086  0.00  0.00    -0.121 NA
ATOM     26  N   UNL     1      13.573   5.512  -0.100  0.00  0.00    -0.126 NA
ATOM     27  C   UNL     1      13.556   6.827  -0.093  0.00  0.00    +0.188 A 
ATOM     28  N   UNL     1      12.233   7.212  -0.079  0.00  0.00    -0.223 N 
BRANCH  27  29
ATOM     29  C   UNL     1      14.727   7.718  -0.101  0.00  0.00    +0.058 A 
ATOM     30  C   UNL     1      16.040   7.423   0.167  0.00  0.00    +0.019 A 
ATOM     31  C   UNL     1      16.973   8.432   0.092  0.00  0.00    +0.008 A 
ATOM     32  C   UNL     1      16.566   9.687  -0.231  0.00  0.00    +0.046 A 
ATOM     33  S   UNL     1      14.809   9.467  -0.452  0.00  0.00    -0.093 S 
ENDBRANCH  27  29
BRANCH  28  34
ATOM     34  N   UNL     1      11.745   8.488  -0.068  0.00  0.00    -0.295 N 
ATOM     35  H   UNL     1      11.625   8.821   0.877  0.00  0.00    +0.163 HD
ATOM     36  H   UNL     1      12.341   9.108  -0.597  0.00  0.00    +0.163 HD
ENDBRANCH  28  34
ENDBRANCH  23  24
ENDBRANCH  22  23
ENDBRANCH   4  22
TORSDOF 10
