REMARK  Name = ZINC45442925
REMARK  9 active torsions:
REMARK  status: ('A' for Active; 'I' for Inactive)
REMARK    1  A    between atoms: C_1  and  C_2
REMARK    2  A    between atoms: C_3  and  C_30
REMARK    3  A    between atoms: C_4  and  C_13
REMARK    4  A    between atoms: N_5  and  C_7
REMARK    5  A    between atoms: C_13  and  S_14
REMARK    6  A    between atoms: S_14  and  C_15
REMARK    7  A    between atoms: C_18  and  C_21
REMARK    8  A    between atoms: C_21  and  O_22
REMARK    9  A    between atoms: O_22  and  C_23
REMARK                            x       y       z     vdW  Elec       q    Type
REMARK                         _______ _______ _______ _____ _____    ______ ____
ROOT
ATOM      1  S   UNL     1      -1.664  -3.885  -1.920  0.00  0.00    -0.080 S 
ENDROOT
BRANCH   1   2
ATOM      2  C   UNL     1      -1.481  -5.315  -2.933  0.00  0.00    +0.185 A 
ATOM      3  N   UNL     1      -0.342  -5.847  -3.326  0.00  0.00    -0.202 NA
ATOM      4  H   UNL     1      -3.436  -5.919  -3.321  0.00  0.00    +0.191 HD
ATOM      5  C   UNL     1      -0.584  -6.919  -4.080  0.00  0.00    +0.189 A 
ATOM      6  N   UNL     1      -1.875  -7.089  -4.182  0.00  0.00    -0.153 NA
ATOM      7  N   UNL     1      -2.484  -6.063  -3.441  0.00  0.00    -0.253 N 
BRANCH   5   8
ATOM      8  C   UNL     1       0.465  -7.795  -4.715  0.00  0.00    +0.306 C 
BRANCH   8   9
ATOM      9  O   UNL     1       0.813  -8.850  -3.815  0.00  0.00    -0.484 OA
BRANCH   9  10
ATOM     10  C   UNL     1       1.753  -9.736  -4.237  0.00  0.00    +0.121 A 
ATOM     11  C   UNL     1       2.333  -9.590  -5.489  0.00  0.00    +0.047 A 
ATOM     12  C   UNL     1       3.288 -10.492  -5.915  0.00  0.00    +0.023 A 
ATOM     13  C   UNL     1       3.667 -11.541  -5.096  0.00  0.00    +0.041 A 
ATOM     14  C   UNL     1       3.089 -11.688  -3.847  0.00  0.00    +0.023 A 
ATOM     15  C   UNL     1       2.138 -10.785  -3.414  0.00  0.00    +0.047 A 
ATOM     16 CL   UNL     1       4.867 -12.673  -5.635  0.00  0.00    -0.084 Cl
ENDBRANCH   9  10
ENDBRANCH   8   9
ENDBRANCH   5   8
ENDBRANCH   1   2
BRANCH   1  17
ATOM     17  C   UNL     1       0.041  -3.367  -1.580  0.00  0.00    +0.134 C 
BRANCH  17  21
ATOM     18  C   UNL     1      -0.018   1.503   0.010  0.00  0.00    +0.069 C 
ATOM     19  C   UNL     1       0.002  -0.004   0.002  0.00  0.00    +0.078 A 
ATOM     20  C   UNL     1       0.008  -0.828  -1.147  0.00  0.00    +0.096 A 
ATOM     21  C   UNL     1       0.029  -2.137  -0.710  0.00  0.00    +0.073 A 
ATOM     22  N   UNL     1       0.035  -2.111   0.637  0.00  0.00    -0.234 N 
ATOM     23  N   UNL     1       0.023  -0.776   1.054  0.00  0.00    -0.170 NA
BRANCH  22  24
ATOM     24  C   UNL     1       0.055  -3.233   1.477  0.00  0.00    +0.066 A 
ATOM     25  C   UNL     1      -0.615  -4.391   1.108  0.00  0.00    +0.028 A 
ATOM     26  C   UNL     1      -0.594  -5.495   1.938  0.00  0.00    +0.002 A 
ATOM     27  C   UNL     1       0.094  -5.446   3.137  0.00  0.00    +0.000 A 
ATOM     28  C   UNL     1       0.762  -4.294   3.508  0.00  0.00    +0.002 A 
ATOM     29  C   UNL     1       0.749  -3.189   2.679  0.00  0.00    +0.028 A 
ENDBRANCH  22  24
BRANCH  20  30
ATOM     30  C   UNL     1      -0.005  -0.386  -2.509  0.00  0.00    +0.103 C 
ATOM     31  N   UNL     1      -0.015  -0.036  -3.589  0.00  0.00    -0.191 NA
ENDBRANCH  20  30
ENDBRANCH  17  21
ENDBRANCH   1  17
TORSDOF 8
