REMARK  Name = ZINC01845653
REMARK  8 active torsions:
REMARK  status: ('A' for Active; 'I' for Inactive)
REMARK    1  A    between atoms: C_10  and  C_11
REMARK    2  A    between atoms: C_11  and  O_12
REMARK    3  A    between atoms: O_12  and  C_13
REMARK    4  A    between atoms: C_18  and  C_19
REMARK    5  A    between atoms: N_20  and  N_21
REMARK    6  A    between atoms: C_22  and  C_24
REMARK    7  A    between atoms: C_25  and  C_35
REMARK    8  A    between atoms: C_35  and  N_36
REMARK                            x       y       z     vdW  Elec       q    Type
REMARK                         _______ _______ _______ _____ _____    ______ ____
ROOT
ATOM      1  N   UNL     1       6.965  -4.417   0.025  0.00  0.00    -0.202 N 
ATOM      2  C   UNL     1       5.742  -4.972  -0.086  0.00  0.00    +0.285 C 
ATOM      3  O   UNL     1       4.768  -4.266  -0.269  0.00  0.00    -0.267 OA
ATOM      4  H   UNL     1       7.750  -4.982   0.087  0.00  0.00    +0.178 HD
ENDROOT
BRANCH   2   5
ATOM      5  C   UNL     1       5.584  -6.435   0.014  0.00  0.00    +0.170 A 
ATOM      6  C   UNL     1       4.407  -7.120  -0.086  0.00  0.00    +0.063 A 
ATOM      7  N   UNL     1       4.704  -8.430   0.061  0.00  0.00    -0.194 N 
ATOM      8  N   UNL     1       6.090  -8.512   0.252  0.00  0.00    -0.058 NA
ATOM      9  N   UNL     1       6.576  -7.320   0.213  0.00  0.00    -0.124 NA
ATOM     10  C   UNL     1       3.801  -9.499   0.029  0.00  0.00    +0.240 A 
ATOM     11  C   UNL     1       4.142 -10.915   0.197  0.00  0.00    +0.206 A 
ATOM     12  N   UNL     1       3.045 -11.615   0.107  0.00  0.00    -0.032 NA
ATOM     13  O   UNL     1       1.973 -10.715  -0.116  0.00  0.00    -0.239 OA
ATOM     14  N   UNL     1       2.514  -9.406  -0.150  0.00  0.00    -0.027 NA
ATOM     15  N   UNL     1       5.417 -11.425   0.413  0.00  0.00    -0.337 N 
ATOM     16  H   UNL     1       6.177 -10.825   0.465  0.00  0.00    +0.144 HD
ATOM     17  H   UNL     1       5.547 -12.381   0.513  0.00  0.00    +0.144 HD
BRANCH   6  18
ATOM     18  C   UNL     1       3.040  -6.529  -0.316  0.00  0.00    -0.020 C 
BRANCH  18  19
ATOM     19  N   UNL     1       2.414  -6.224   0.978  0.00  0.00    +0.383 N 
ATOM     20  C   UNL     1       2.187  -7.472   1.716  0.00  0.00    -0.078 C 
ATOM     21  C   UNL     1       1.611  -7.155   3.097  0.00  0.00    -0.019 C 
ATOM     22  C   UNL     1       0.283  -6.410   2.931  0.00  0.00    -0.004 C 
ATOM     23  C   UNL     1       0.518  -5.148   2.096  0.00  0.00    -0.019 C 
ATOM     24  C   UNL     1       1.135  -5.539   0.752  0.00  0.00    -0.078 C 
ATOM     25  H   UNL     1       3.025  -5.625   1.513  0.00  0.00    -0.081 HD
ENDBRANCH  18  19
ENDBRANCH   6  18
ENDBRANCH   2   5
BRANCH   1  27
ATOM     26  C   UNL     1       8.283  -2.485   0.026  0.00  0.00    +0.142 C 
ATOM     27  N   UNL     1       7.101  -3.022   0.051  0.00  0.00    -0.187 NA
BRANCH  26  33
ATOM     28  C   UNL     1       7.308  -0.223   0.406  0.00  0.00    +0.130 A 
ATOM     29  C   UNL     1       7.465   1.138   0.613  0.00  0.00    +0.048 A 
ATOM     30  C   UNL     1       8.730   1.692   0.652  0.00  0.00    +0.023 A 
ATOM     31  C   UNL     1       9.850   0.894   0.485  0.00  0.00    +0.042 A 
ATOM     32  C   UNL     1       9.712  -0.464   0.277  0.00  0.00    +0.033 A 
ATOM     33  C   UNL     1       8.438  -1.036   0.241  0.00  0.00    +0.038 A 
ATOM     34 CL   UNL     1      11.433   1.603   0.536  0.00  0.00    -0.084 Cl
BRANCH  28  35
ATOM     35  O   UNL     1       6.065  -0.768   0.367  0.00  0.00    -0.487 OA
BRANCH  35  36
ATOM     36  C   UNL     1       4.958   0.136   0.404  0.00  0.00    +0.265 C 
BRANCH  36  46
ATOM     37  C   UNL     1      -0.026   1.293   0.546  0.00  0.00    +0.001 A 
ATOM     38  C   UNL     1       1.149   2.031   0.410  0.00  0.00    +0.001 A 
ATOM     39  C   UNL     1       2.365   1.420   0.409  0.00  0.00    +0.009 A 
ATOM     40  C   UNL     1       2.441   0.023   0.547  0.00  0.00    -0.011 A 
ATOM     41  C   UNL     1       1.246  -0.727   0.685  0.00  0.00    -0.018 A 
ATOM     42  C   UNL     1       0.009  -0.060   0.681  0.00  0.00    +0.008 A 
ATOM     43  C   UNL     1       1.322  -2.123   0.824  0.00  0.00    +0.008 A 
ATOM     44  C   UNL     1       2.538  -2.735   0.823  0.00  0.00    +0.001 A 
ATOM     45  C   UNL     1       3.712  -1.998   0.687  0.00  0.00    +0.007 A 
ATOM     46  C   UNL     1       3.677  -0.644   0.551  0.00  0.00    -0.003 A 
ENDBRANCH  36  46
ENDBRANCH  35  36
ENDBRANCH  28  35
ENDBRANCH  26  33
ENDBRANCH   1  27
TORSDOF 8
