REMARK  Name = ZINC15707930
REMARK  9 active torsions:
REMARK  status: ('A' for Active; 'I' for Inactive)
REMARK    1  A    between atoms: C_1  and  C_2
REMARK    2  A    between atoms: C_2  and  C_3
REMARK    3  A    between atoms: C_2  and  N_4
REMARK    4  A    between atoms: N_7  and  C_8
REMARK    5  A    between atoms: C_17  and  C_20
REMARK    6  A    between atoms: C_20  and  C_21
REMARK    7  A    between atoms: C_21  and  C_22
REMARK    8  A    between atoms: N_24  and  C_25
REMARK    9  A    between atoms: C_25  and  C_26
REMARK                            x       y       z     vdW  Elec       q    Type
REMARK                         _______ _______ _______ _____ _____    ______ ____
ROOT
ATOM      1  C   UNL     1      -0.482  -1.784   1.561  0.00  0.00    +0.057 C 
ATOM      2  C   UNL     1      -1.122  -0.521   0.925  0.00  0.00    +0.014 C 
ATOM      3  C   UNL     1       0.005   0.075   0.080  0.00  0.00    +0.021 C 
ATOM      4  C   UNL     1       0.030   1.566  -0.009  0.00  0.00    +0.200 C 
ATOM      5  O   UNL     1      -1.004   2.199  -0.006  0.00  0.00    -0.278 OA
ATOM      6  N   UNL     1       1.217   2.197  -0.098  0.00  0.00    -0.318 N 
ATOM      7  C   UNL     1       2.513   1.541   0.010  0.00  0.00    +0.089 C 
ATOM      8  C   UNL     1       2.391   0.010  -0.011  0.00  0.00    -0.050 C 
ATOM      9  C   UNL     1       0.998  -1.763   1.089  0.00  0.00    -0.055 C 
ATOM     10  H   UNL     1       1.208   3.156  -0.244  0.00  0.00    +0.149 HD
ATOM     11  N   UNL     1       1.176  -0.316   0.804  0.00  0.00    +0.391 N 
ATOM     12  H   UNL     1       1.234   0.197   1.692  0.00  0.00    -0.080 HD
ENDROOT
BRANCH   1  16
ATOM     13  N   UNL     1      -0.609  -2.774   5.100  0.00  0.00    -0.297 N 
ATOM     14  C   UNL     1      -0.542  -2.841   3.756  0.00  0.00    +0.300 C 
ATOM     15  O   UNL     1      -0.470  -3.922   3.204  0.00  0.00    -0.253 OA
ATOM     16  N   UNL     1      -0.555  -1.710   3.023  0.00  0.00    -0.298 N 
ATOM     17  H   UNL     1      -0.666  -1.911   5.540  0.00  0.00    +0.150 HD
ATOM     18  H   UNL     1      -0.612  -0.848   3.463  0.00  0.00    +0.150 HD
BRANCH  13  20
ATOM     19  C   UNL     1       0.853  -4.438   6.137  0.00  0.00    +0.027 C 
ATOM     20  C   UNL     1      -0.594  -4.003   5.897  0.00  0.00    +0.068 C 
ATOM     21  C   UNL     1      -1.280  -3.747   7.241  0.00  0.00    +0.027 C 
ENDBRANCH  13  20
ENDBRANCH   1  16
BRANCH   8  22
ATOM     22  C   UNL     1       3.655  -0.622   0.577  0.00  0.00    -0.005 C 
BRANCH  22  23
ATOM     23  C   UNL     1       4.838  -0.356  -0.355  0.00  0.00    +0.094 C 
BRANCH  23  24
ATOM     24  C   UNL     1       6.056  -1.080   0.160  0.00  0.00    +0.213 C 
ATOM     25  O   UNL     1       5.983  -1.743   1.173  0.00  0.00    -0.276 OA
ATOM     26  N   UNL     1       7.224  -0.990  -0.505  0.00  0.00    -0.311 N 
ATOM     27  H   UNL     1       7.282  -0.460  -1.315  0.00  0.00    +0.149 HD
BRANCH  26  28
ATOM     28  C   UNL     1       8.408  -1.694  -0.004  0.00  0.00    +0.141 C 
BRANCH  28  29
ATOM     29  C   UNL     1       9.574  -1.432  -0.922  0.00  0.00    -0.012 A 
ATOM     30  C   UNL     1      10.413  -0.351  -0.701  0.00  0.00    +0.008 A 
ATOM     31  C   UNL     1      11.473  -0.149  -1.571  0.00  0.00    +0.020 A 
ATOM     32  C   UNL     1      11.657  -1.026  -2.623  0.00  0.00    +0.111 A 
ATOM     33  N   UNL     1      10.839  -2.044  -2.804  0.00  0.00    -0.263 NA
ATOM     34  C   UNL     1       9.824  -2.270  -1.992  0.00  0.00    +0.115 A 
ENDBRANCH  28  29
ENDBRANCH  26  28
ENDBRANCH  23  24
ENDBRANCH  22  23
ENDBRANCH   8  22
TORSDOF 7
