REMARK  Name = ZINC11667703
REMARK  14 active torsions:
REMARK  status: ('A' for Active; 'I' for Inactive)
REMARK    1  A    between atoms: C_1  and  C_2
REMARK    2  A    between atoms: C_2  and  C_3
REMARK    3  A    between atoms: C_3  and  N_4
REMARK    4  A    between atoms: N_4  and  C_5
REMARK    5  A    between atoms: N_4  and  S_8
REMARK    6  A    between atoms: C_5  and  C_6
REMARK    7  A    between atoms: C_6  and  C_7
REMARK    8  A    between atoms: S_8  and  C_11
REMARK    9  A    between atoms: C_14  and  C_17
REMARK   10  A    between atoms: N_19  and  C_20
REMARK   11  A    between atoms: C_21  and  C_31
REMARK   12  A    between atoms: C_28  and  C_29
REMARK   13  A    between atoms: C_28  and  C_30
REMARK   14  A    between atoms: C_28  and  N_65
REMARK                            x       y       z     vdW  Elec       q    Type
REMARK                         _______ _______ _______ _____ _____    ______ ____
ROOT
ATOM      1  C   UNL     1      -1.187   1.624   0.017  0.00  0.00    +0.249 C 
ATOM      2  O   UNL     1      -1.204   2.839   0.023  0.00  0.00    -0.270 OA
ATOM      3  N   UNL     1      -0.011   0.966   0.007  0.00  0.00    -0.275 N 
ATOM      4  H   UNL     1       0.002  -0.004   0.002  0.00  0.00    +0.156 HD
ENDROOT
BRANCH   3   5
ATOM      5  C   UNL     1       1.180   1.675  -0.000  0.00  0.00    +0.090 A 
ATOM      6  C   UNL     1       2.478   1.182  -0.010  0.00  0.00    +0.083 A 
ATOM      7  C   UNL     1       3.560   2.147  -0.020  0.00  0.00    -0.022 A 
ATOM      8  C   UNL     1       3.178   3.445  -0.008  0.00  0.00    -0.021 A 
ATOM      9  S   UNL     1       1.410   3.393   0.007  0.00  0.00    -0.079 S 
ATOM     10  C   UNL     1       4.082   4.637  -0.008  0.00  0.00    -0.035 C 
ATOM     11  C   UNL     1       5.829   3.024  -0.476  0.00  0.00    -0.073 C 
ATOM     12  C   UNL     1       5.041   1.786  -0.037  0.00  0.00    +0.019 C 
ATOM     13  N   UNL     1       5.442   4.175   0.365  0.00  0.00    +0.384 N 
ATOM     14  H   UNL     1       5.437   3.884   1.349  0.00  0.00    -0.081 HD
BRANCH  13  15
ATOM     15  C   UNL     1       6.414   5.276   0.195  0.00  0.00    -0.074 C 
ATOM     16  C   UNL     1       6.435   5.751  -1.260  0.00  0.00    -0.014 C 
ATOM     17  C   UNL     1       6.014   6.439   1.105  0.00  0.00    -0.014 C 
ENDBRANCH  13  15
BRANCH   6  18
ATOM     18  C   UNL     1       2.737  -0.226  -0.013  0.00  0.00    +0.102 C 
ATOM     19  N   UNL     1       2.943  -1.343  -0.016  0.00  0.00    -0.191 NA
ENDBRANCH   6  18
ENDBRANCH   3   5
BRANCH   1  23
ATOM     20  C   UNL     1      -4.836  -0.550   0.023  0.00  0.00    +0.106 A 
ATOM     21  C   UNL     1      -4.859   0.834   0.030  0.00  0.00    +0.029 A 
ATOM     22  C   UNL     1      -3.677   1.546   0.028  0.00  0.00    +0.015 A 
ATOM     23  C   UNL     1      -2.457   0.868   0.018  0.00  0.00    +0.037 A 
ATOM     24  C   UNL     1      -2.442  -0.528   0.005  0.00  0.00    +0.015 A 
ATOM     25  C   UNL     1      -3.631  -1.228   0.014  0.00  0.00    +0.029 A 
BRANCH  20  26
ATOM     26  S   UNL     1      -6.350  -1.451   0.025  0.00  0.00    +0.061 S 
ATOM     27  O   UNL     1      -6.059  -2.732   0.568  0.00  0.00    -0.153 OA
ATOM     28  O   UNL     1      -7.334  -0.592   0.586  0.00  0.00    -0.153 OA
BRANCH  26  29
ATOM     29  N   UNL     1      -6.779  -1.694  -1.556  0.00  0.00    -0.177 NA
BRANCH  29  30
ATOM     30  C   UNL     1      -6.319  -2.891  -2.264  0.00  0.00    +0.109 C 
BRANCH  30  32
ATOM     31  C   UNL     1      -6.917  -5.225  -2.926  0.00  0.00    +0.005 C 
ATOM     32  C   UNL     1      -7.397  -3.974  -2.187  0.00  0.00    +0.014 C 
ENDBRANCH  30  32
ENDBRANCH  29  30
BRANCH  29  33
ATOM     33  C   UNL     1      -7.617  -0.711  -2.246  0.00  0.00    +0.109 C 
BRANCH  33  34
ATOM     34  C   UNL     1      -6.728   0.266  -3.018  0.00  0.00    +0.014 C 
ATOM     35  C   UNL     1      -7.604   1.292  -3.740  0.00  0.00    +0.005 C 
ENDBRANCH  33  34
ENDBRANCH  29  33
ENDBRANCH  26  29
ENDBRANCH  20  26
ENDBRANCH   1  23
TORSDOF 10
