REMARK  Name = ZINC35510829
REMARK  13 active torsions:
REMARK  status: ('A' for Active; 'I' for Inactive)
REMARK    1  A    between atoms: C_1  and  C_2
REMARK    2  A    between atoms: C_15  and  C_17
REMARK    3  A    between atoms: C_17  and  O_18
REMARK    4  A    between atoms: O_18  and  C_19
REMARK    5  A    between atoms: C_19  and  C_21
REMARK    6  A    between atoms: C_21  and  C_23
REMARK    7  A    between atoms: C_21  and  N_27
REMARK    8  A    between atoms: C_23  and  C_25
REMARK    9  A    between atoms: C_23  and  O_26
REMARK   10  A    between atoms: N_27  and  S_28
REMARK   11  A    between atoms: S_28  and  C_31
REMARK   12  A    between atoms: C_34  and  O_37
REMARK   13  A    between atoms: O_37  and  C_38
REMARK                            x       y       z     vdW  Elec       q    Type
REMARK                         _______ _______ _______ _____ _____    ______ ____
ROOT
ATOM      1  C   UNL     1       1.035  -9.566   3.687  0.00  0.00    +0.329 C 
ATOM      2  O   UNL     1       0.342 -10.484   3.314  0.00  0.00    -0.249 OA
ENDROOT
BRANCH   1   3
ATOM      3  O   UNL     1       0.825  -8.330   3.209  0.00  0.00    -0.456 OA
BRANCH   3   4
ATOM      4  C   UNL     1      -0.234  -8.170   2.263  0.00  0.00    +0.306 C 
BRANCH   4  18
ATOM      5  C   UNL     1      -0.019   1.526   0.010  0.00  0.00    +0.008 C 
ATOM      6  C   UNL     1       0.002  -0.004   0.002  0.00  0.00    -0.009 C 
ATOM      7  C   UNL     1      -1.433  -0.537   0.021  0.00  0.00    +0.008 C 
ATOM      8  C   UNL     1      -1.430  -2.044  -0.237  0.00  0.00    +0.037 C 
ATOM      9  C   UNL     1      -0.472  -2.712   0.745  0.00  0.00    -0.023 A 
ATOM     10  C   UNL     1       0.476  -1.985   1.383  0.00  0.00    -0.004 A 
ATOM     11  S   UNL     1       1.343  -3.148   2.406  0.00  0.00    -0.073 S 
ATOM     12  C   UNL     1       0.437  -4.601   1.978  0.00  0.00    +0.116 A 
ATOM     13  C   UNL     1      -0.517  -4.131   1.048  0.00  0.00    +0.075 A 
ATOM     14  C   UNL     1      -1.426  -5.099   0.502  0.00  0.00    +0.260 A 
ATOM     15  O   UNL     1      -2.286  -4.796  -0.308  0.00  0.00    -0.267 OA
ATOM     16  N   UNL     1      -1.267  -6.369   0.944  0.00  0.00    -0.308 N 
ATOM     17  H   UNL     1      -1.860  -7.056   0.601  0.00  0.00    +0.170 HD
ATOM     18  C   UNL     1      -0.319  -6.726   1.843  0.00  0.00    +0.149 A 
ATOM     19  N   UNL     1       0.532  -5.869   2.365  0.00  0.00    -0.223 NA
ATOM     20  C   UNL     1       0.737  -0.516   1.249  0.00  0.00    +0.046 C 
ENDBRANCH   4  18
ENDBRANCH   3   4
ENDBRANCH   1   3
BRANCH   1  21
ATOM     21  C   UNL     1       2.135  -9.811   4.688  0.00  0.00    +0.213 C 
BRANCH  21  22
ATOM     22  C   UNL     1       3.480  -9.419   4.074  0.00  0.00    +0.141 C 
ATOM     23  C   UNL     1       4.608  -9.783   5.042  0.00  0.00    +0.040 C 
BRANCH  22  24
ATOM     24  O   UNL     1       3.664 -10.121   2.842  0.00  0.00    -0.390 OA
ATOM     25  H   UNL     1       3.662 -11.083   2.934  0.00  0.00    +0.210 HD
ENDBRANCH  22  24
ENDBRANCH  21  22
BRANCH  21  26
ATOM     26  N   UNL     1       2.158 -11.231   5.050  0.00  0.00    -0.174 NA
ATOM     27  H   UNL     1       1.946 -11.905   4.385  0.00  0.00    +0.149 HD
BRANCH  26  28
ATOM     28  S   UNL     1       2.547 -11.685   6.594  0.00  0.00    +0.059 S 
ATOM     29  O   UNL     1       2.457 -13.102   6.636  0.00  0.00    -0.153 OA
ATOM     30  O   UNL     1       3.737 -10.987   6.935  0.00  0.00    -0.153 OA
BRANCH  28  31
ATOM     31  C   UNL     1       1.281 -11.069   7.653  0.00  0.00    +0.105 A 
ATOM     32  C   UNL     1       1.398  -9.807   8.208  0.00  0.00    +0.032 A 
ATOM     33  C   UNL     1       0.407  -9.322   9.039  0.00  0.00    +0.047 A 
ATOM     34  C   UNL     1      -0.707 -10.101   9.317  0.00  0.00    +0.120 A 
ATOM     35  C   UNL     1      -0.822 -11.366   8.759  0.00  0.00    +0.047 A 
ATOM     36  C   UNL     1       0.169 -11.845   7.924  0.00  0.00    +0.032 A 
BRANCH  34  37
ATOM     37  O   UNL     1      -1.683  -9.626  10.134  0.00  0.00    -0.495 OA
ATOM     38  C   UNL     1      -2.800 -10.483  10.376  0.00  0.00    +0.277 C 
ENDBRANCH  34  37
ENDBRANCH  28  31
ENDBRANCH  26  28
ENDBRANCH  21  26
ENDBRANCH   1  21
TORSDOF 10
