REMARK  Name = ZINC53362851
REMARK  5 active torsions:
REMARK  status: ('A' for Active; 'I' for Inactive)
REMARK    1  A    between atoms: C_1  and  C_2
REMARK    2  A    between atoms: C_5  and  C_8
REMARK    3  A    between atoms: C_10  and  C_24
REMARK    4  A    between atoms: C_13  and  C_16
REMARK    5  A    between atoms: C_21  and  O_22
REMARK                            x       y       z     vdW  Elec       q    Type
REMARK                         _______ _______ _______ _____ _____    ______ ____
ROOT
ATOM      1  C   UNL     1       0.059  -4.249  -0.021  0.00  0.00    +0.047 C 
ATOM      2  N   UNL     1       0.067  -4.853  -1.150  0.00  0.00    -0.264 NA
ATOM      3  C   UNL     1       0.076  -6.302  -1.302  0.00  0.00    +0.204 C 
ATOM      4  N   UNL     1       0.493  -6.952  -0.055  0.00  0.00    -0.284 NA
ATOM      5  C   UNL     1      -0.302  -6.442   1.075  0.00  0.00    +0.095 C 
ATOM      6  C   UNL     1       0.075  -4.973   1.297  0.00  0.00    +0.079 C 
ATOM      7  H   UNL     1       0.417  -7.956  -0.127  0.00  0.00    +0.125 HD
ENDROOT
BRANCH   1  12
ATOM      8  C   UNL     1      -0.018   1.503   0.010  0.00  0.00    +0.044 C 
ATOM      9  C   UNL     1       0.002  -0.004   0.002  0.00  0.00    -0.050 A 
ATOM     10  C   UNL     1       0.006  -0.686  -1.202  0.00  0.00    +0.004 A 
ATOM     11  C   UNL     1       0.024  -2.065  -1.217  0.00  0.00    +0.010 A 
ATOM     12  C   UNL     1       0.040  -2.773  -0.013  0.00  0.00    -0.004 A 
ATOM     13  C   UNL     1       0.036  -2.079   1.198  0.00  0.00    +0.010 A 
ATOM     14  C   UNL     1       0.023  -0.699   1.198  0.00  0.00    +0.004 A 
ENDBRANCH   1  12
BRANCH   5  15
ATOM     15  C   UNL     1       0.009  -7.238   2.317  0.00  0.00    +0.013 A 
ATOM     16  C   UNL     1       1.227  -7.879   2.439  0.00  0.00    +0.028 A 
ATOM     17  C   UNL     1       1.514  -8.610   3.579  0.00  0.00    +0.042 A 
ATOM     18  C   UNL     1       0.581  -8.701   4.597  0.00  0.00    +0.023 A 
ATOM     19  C   UNL     1      -0.638  -8.062   4.478  0.00  0.00    +0.047 A 
ATOM     20  C   UNL     1      -0.924  -7.324   3.339  0.00  0.00    +0.122 A 
ATOM     21 CL   UNL     1       3.044  -9.415   3.730  0.00  0.00    -0.084 Cl
BRANCH  20  22
ATOM     22  O   UNL     1      -2.121  -6.689   3.222  0.00  0.00    -0.506 OA
ATOM     23  H   UNL     1      -2.812  -7.226   2.813  0.00  0.00    +0.292 HD
ENDBRANCH  20  22
ENDBRANCH   5  15
BRANCH   3  24
ATOM     24  C   UNL     1      -1.309  -6.771  -1.667  0.00  0.00    -0.009 A 
ATOM     25  C   UNL     1      -1.739  -8.026  -1.276  0.00  0.00    +0.008 A 
ATOM     26  C   UNL     1      -3.009  -8.457  -1.609  0.00  0.00    +0.020 A 
ATOM     27  C   UNL     1      -3.851  -7.632  -2.334  0.00  0.00    +0.041 A 
ATOM     28  C   UNL     1      -3.420  -6.377  -2.725  0.00  0.00    +0.020 A 
ATOM     29  C   UNL     1      -2.152  -5.945  -2.386  0.00  0.00    +0.008 A 
ATOM     30 CL   UNL     1      -5.446  -8.173  -2.754  0.00  0.00    -0.084 Cl
ENDBRANCH   3  24
TORSDOF 4
