REMARK  Name = ZINC00351026
REMARK  11 active torsions:
REMARK  status: ('A' for Active; 'I' for Inactive)
REMARK    1  A    between atoms: C_1  and  C_2
REMARK    2  A    between atoms: C_2  and  O_3
REMARK    3  A    between atoms: O_3  and  C_4
REMARK    4  A    between atoms: C_7  and  C_10
REMARK    5  A    between atoms: C_12  and  C_24
REMARK    6  A    between atoms: C_13  and  C_20
REMARK    7  A    between atoms: C_15  and  N_19
REMARK    8  A    between atoms: C_16  and  C_17
REMARK    9  A    between atoms: C_20  and  C_21
REMARK   10  A    between atoms: C_20  and  C_22
REMARK   11  A    between atoms: C_20  and  C_23
REMARK                            x       y       z     vdW  Elec       q    Type
REMARK                         _______ _______ _______ _____ _____    ______ ____
ROOT
ATOM      1  C   UNL     1      -3.134   1.588   0.563  0.00  0.00    +0.108 C 
ATOM      2  C   UNL     1      -3.191   2.975  -0.017  0.00  0.00    +0.080 C 
ATOM      3  C   UNL     1      -2.086   3.718  -0.145  0.00  0.00    +0.127 C 
ATOM      4  O   UNL     1      -0.878   3.268   0.240  0.00  0.00    -0.444 OA
ATOM      5  C   UNL     1      -0.677   1.947   0.402  0.00  0.00    +0.198 C 
ATOM      6  C   UNL     1      -1.714   1.089   0.564  0.00  0.00    +0.099 C 
ENDROOT
BRANCH   1  10
ATOM      7  C   UNL     1      -4.614   1.664   4.571  0.00  0.00    +0.121 A 
ATOM      8  C   UNL     1      -5.244   0.883   3.612  0.00  0.00    +0.046 A 
ATOM      9  C   UNL     1      -4.763   0.860   2.317  0.00  0.00    +0.008 A 
ATOM     10  C   UNL     1      -3.656   1.615   1.976  0.00  0.00    -0.034 A 
ATOM     11  C   UNL     1      -3.024   2.390   2.931  0.00  0.00    +0.008 A 
ATOM     12  C   UNL     1      -3.504   2.421   4.226  0.00  0.00    +0.046 A 
BRANCH   7  13
ATOM     13  O   UNL     1      -5.085   1.687   5.846  0.00  0.00    -0.492 OA
BRANCH  13  15
ATOM     14  C   UNL     1      -5.057   2.412   8.151  0.00  0.00    +0.048 C 
ATOM     15  C   UNL     1      -4.387   2.514   6.779  0.00  0.00    +0.225 C 
ENDBRANCH  13  15
ENDBRANCH   7  13
ENDBRANCH   1  10
BRANCH   3  16
ATOM     16  C   UNL     1      -2.200   5.101  -0.731  0.00  0.00    +0.021 C 
ATOM     17  C   UNL     1      -3.148   5.942   0.126  0.00  0.00    +0.019 C 
ATOM     18  C   UNL     1      -0.818   5.759  -0.759  0.00  0.00    +0.019 C 
ATOM     19  C   UNL     1      -2.748   5.008  -2.157  0.00  0.00    +0.019 C 
ENDBRANCH   3  16
BRANCH   5  20
ATOM     20  N   UNL     1       0.605   1.459   0.409  0.00  0.00    -0.328 N 
ATOM     21  H   UNL     1       0.762   0.509   0.530  0.00  0.00    +0.145 HD
ATOM     22  H   UNL     1       1.355   2.063   0.290  0.00  0.00    +0.145 HD
ENDBRANCH   5  20
BRANCH   6  23
ATOM     23  C   UNL     1      -1.456  -0.308   0.738  0.00  0.00    +0.101 C 
ATOM     24  N   UNL     1      -1.250  -1.417   0.876  0.00  0.00    -0.191 NA
ENDBRANCH   6  23
BRANCH   2  25
ATOM     25  C   UNL     1      -4.450   3.509  -0.440  0.00  0.00    +0.099 C 
ATOM     26  N   UNL     1      -5.449   3.933  -0.775  0.00  0.00    -0.191 NA
ENDBRANCH   2  25
TORSDOF 7
