REMARK  Name = ZINC14992270
REMARK  6 active torsions:
REMARK  status: ('A' for Active; 'I' for Inactive)
REMARK    1  A    between atoms: C_4  and  C_7
REMARK    2  A    between atoms: C_7  and  N_8
REMARK    3  A    between atoms: C_19  and  N_58
REMARK    4  A    between atoms: C_23  and  C_24
REMARK    5  A    between atoms: C_23  and  N_58
REMARK    6  A    between atoms: C_24  and  O_30
REMARK                            x       y       z     vdW  Elec       q    Type
REMARK                         _______ _______ _______ _____ _____    ______ ____
ROOT
ATOM      1  N   UNL     1      -0.698   1.558   1.213  0.00  0.00    -0.294 N 
ATOM      2  C   UNL     1      -0.336   2.746   1.763  0.00  0.00    +0.203 A 
ATOM      3  N   UNL     1      -0.927   3.204   2.833  0.00  0.00    -0.230 NA
ATOM      4  C   UNL     1      -1.897   2.514   3.427  0.00  0.00    +0.116 A 
ATOM      5  C   UNL     1      -2.336   1.275   2.936  0.00  0.00    +0.076 A 
ATOM      6  C   UNL     1      -1.671   0.804   1.757  0.00  0.00    +0.263 A 
ATOM      7  O   UNL     1      -1.982  -0.263   1.255  0.00  0.00    -0.267 OA
ATOM      8  C   UNL     1      -3.410   0.631   3.692  0.00  0.00    -0.023 A 
ATOM      9  C   UNL     1      -3.871   1.286   4.779  0.00  0.00    -0.006 A 
ATOM     10  S   UNL     1      -2.915   2.776   4.857  0.00  0.00    -0.073 S 
ATOM     11  C   UNL     1      -4.956   0.843   5.712  0.00  0.00    +0.027 C 
ATOM     12  C   UNL     1      -5.224  -0.649   5.470  0.00  0.00    -0.067 C 
ATOM     13  C   UNL     1      -5.358  -0.887   3.963  0.00  0.00    -0.011 C 
ATOM     14  C   UNL     1      -3.997  -0.718   3.287  0.00  0.00    +0.035 C 
ENDROOT
BRANCH  12  15
ATOM     15  N   UNL     1      -6.478  -1.043   6.139  0.00  0.00    +0.383 N 
ATOM     16  H   UNL     1      -6.875  -1.861   5.662  0.00  0.00    -0.085 HD
ATOM     17  H   UNL     1      -7.145  -0.263   6.093  0.00  0.00    -0.085 HD
BRANCH  15  18
ATOM     18  C   UNL     1      -6.221  -1.381   7.552  0.00  0.00    -0.047 C 
BRANCH  18  19
ATOM     19  C   UNL     1      -7.538  -1.784   8.218  0.00  0.00    +0.051 C 
ATOM     20  C   UNL     1      -8.567  -0.667   8.031  0.00  0.00    +0.033 C 
ATOM     21  C   UNL     1      -9.884  -1.070   8.697  0.00  0.00    +0.003 C 
ATOM     22  C   UNL     1      -9.650  -1.302  10.191  0.00  0.00    +0.000 C 
ATOM     23  C   UNL     1      -8.621  -2.418  10.379  0.00  0.00    +0.003 C 
ATOM     24  C   UNL     1      -7.304  -2.015   9.712  0.00  0.00    +0.033 C 
BRANCH  19  25
ATOM     25  O   UNL     1      -8.026  -2.986   7.620  0.00  0.00    -0.390 OA
ATOM     26  H   UNL     1      -8.197  -2.913   6.672  0.00  0.00    +0.210 HD
ENDBRANCH  19  25
ENDBRANCH  18  19
ENDBRANCH  15  18
ENDBRANCH  12  15
BRANCH   1  27
ATOM     27  C   UNL     1      -0.013   1.086   0.008  0.00  0.00    +0.161 C 
BRANCH  27  31
ATOM     28  C   UNL     1      -2.078   2.501  -3.453  0.00  0.00    +0.000 A 
ATOM     29  C   UNL     1      -1.066   3.259  -2.894  0.00  0.00    +0.000 A 
ATOM     30  C   UNL     1      -0.398   2.801  -1.774  0.00  0.00    +0.005 A 
ATOM     31  C   UNL     1      -0.742   1.585  -1.213  0.00  0.00    -0.028 A 
ATOM     32  C   UNL     1      -1.750   0.825  -1.775  0.00  0.00    +0.005 A 
ATOM     33  C   UNL     1      -2.422   1.285  -2.892  0.00  0.00    +0.000 A 
ENDBRANCH  27  31
ENDBRANCH   1  27
TORSDOF 6
