REMARK  Name = ZINC48803430
REMARK  7 active torsions:
REMARK  status: ('A' for Active; 'I' for Inactive)
REMARK    1  A    between atoms: C_1  and  C_2
REMARK    2  A    between atoms: C_2  and  C_4
REMARK    3  A    between atoms: C_2  and  N_12
REMARK    4  A    between atoms: C_13  and  C_15
REMARK    5  A    between atoms: N_17  and  C_18
REMARK    6  A    between atoms: C_23  and  C_24
REMARK    7  A    between atoms: C_24  and  C_25
REMARK                            x       y       z     vdW  Elec       q    Type
REMARK                         _______ _______ _______ _____ _____    ______ ____
ROOT
ATOM      1  C   UNL     1      -3.431  -1.169   1.191  0.00  0.00    +0.303 C 
ATOM      2  O   UNL     1      -3.976  -1.466   0.148  0.00  0.00    -0.265 OA
ATOM      3  N   UNL     1      -4.086  -1.316   2.360  0.00  0.00    -0.277 N 
ATOM      4  H   UNL     1      -3.625  -1.156   3.198  0.00  0.00    +0.155 HD
ENDROOT
BRANCH   3   5
ATOM      5  C   UNL     1      -5.430  -1.700   2.364  0.00  0.00    +0.037 A 
ATOM      6  C   UNL     1      -6.231  -1.441   1.258  0.00  0.00    +0.023 A 
ATOM      7  C   UNL     1      -7.558  -1.821   1.266  0.00  0.00    +0.002 A 
ATOM      8  C   UNL     1      -8.091  -2.459   2.371  0.00  0.00    +0.000 A 
ATOM      9  C   UNL     1      -7.296  -2.718   3.473  0.00  0.00    +0.006 A 
ATOM     10  C   UNL     1      -5.966  -2.346   3.470  0.00  0.00    -0.017 A 
BRANCH  10  11
ATOM     11  C   UNL     1      -5.099  -2.635   4.668  0.00  0.00    +0.132 C 
BRANCH  11  12
ATOM     12  C   UNL     1      -5.069  -1.427   5.569  0.00  0.00    +0.215 C 
ATOM     13  O   UNL     1      -5.690  -0.430   5.268  0.00  0.00    -0.276 OA
ATOM     14  N   UNL     1      -4.351  -1.455   6.710  0.00  0.00    -0.329 N 
ATOM     15  H   UNL     1      -3.855  -2.253   6.951  0.00  0.00    +0.145 HD
ATOM     16  H   UNL     1      -4.332  -0.678   7.290  0.00  0.00    +0.145 HD
ENDBRANCH  11  12
ENDBRANCH  10  11
ENDBRANCH   3   5
BRANCH   1  18
ATOM     17  N   UNL     1      -1.378  -0.494   0.012  0.00  0.00    -0.301 N 
ATOM     18  C   UNL     1      -2.034  -0.641   1.180  0.00  0.00    +0.300 C 
ATOM     19  O   UNL     1      -1.489  -0.344   2.223  0.00  0.00    -0.265 OA
ATOM     20  H   UNL     1      -1.814  -0.731  -0.822  0.00  0.00    +0.150 HD
BRANCH  17  22
ATOM     21  C   UNL     1      -0.041   1.554   0.006  0.00  0.00    +0.033 C 
ATOM     22  C   UNL     1      -0.008   0.024   0.001  0.00  0.00    +0.101 C 
BRANCH  22  23
ATOM     23  C   UNL     1       0.702  -0.459  -1.238  0.00  0.00    -0.026 A 
ATOM     24  C   UNL     1       0.032  -0.498  -2.447  0.00  0.00    +0.007 A 
ATOM     25  C   UNL     1       0.681  -0.941  -3.584  0.00  0.00    +0.022 A 
ATOM     26  C   UNL     1       2.002  -1.345  -3.513  0.00  0.00    +0.059 A 
ATOM     27  C   UNL     1       2.673  -1.306  -2.302  0.00  0.00    +0.060 A 
ATOM     28  C   UNL     1       2.023  -0.857  -1.166  0.00  0.00    +0.027 A 
ATOM     29 CL   UNL     1       4.331  -1.813  -2.211  0.00  0.00    -0.082 Cl
ATOM     30 CL   UNL     1       2.818  -1.902  -4.940  0.00  0.00    -0.082 Cl
ENDBRANCH  22  23
ENDBRANCH  17  22
ENDBRANCH   1  18
TORSDOF 6
