REMARK  Name = ZINC64392099
REMARK  7 active torsions:
REMARK  status: ('A' for Active; 'I' for Inactive)
REMARK    1  A    between atoms: C_1  and  C_2
REMARK    2  A    between atoms: C_2  and  O_3
REMARK    3  A    between atoms: O_3  and  C_4
REMARK    4  A    between atoms: C_8  and  C_10
REMARK    5  A    between atoms: C_12  and  C_16
REMARK    6  A    between atoms: N_26  and  C_29
REMARK    7  A    between atoms: C_29  and  C_30
REMARK                            x       y       z     vdW  Elec       q    Type
REMARK                         _______ _______ _______ _____ _____    ______ ____
ROOT
ATOM      1  C   UNL     1       4.888  -5.711  -5.108  0.00  0.00    +0.006 A 
ATOM      2  C   UNL     1       5.585  -5.027  -4.125  0.00  0.00    +0.009 A 
ATOM      3  C   UNL     1       6.961  -5.107  -4.060  0.00  0.00    +0.016 A 
ATOM      4  C   UNL     1       7.647  -5.882  -4.991  0.00  0.00    +0.063 A 
ATOM      5  C   UNL     1       6.939  -6.576  -5.988  0.00  0.00    +0.056 A 
ATOM      6  C   UNL     1       5.556  -6.487  -6.034  0.00  0.00    +0.034 A 
ATOM      7  N   UNL     1       7.650  -7.340  -6.902  0.00  0.00    -0.307 N 
ATOM      8  H   UNL     1       7.174  -7.824  -7.595  0.00  0.00    +0.170 HD
ATOM      9  C   UNL     1       8.990  -7.417  -6.836  0.00  0.00    +0.330 A 
ATOM     10  O   UNL     1       9.575  -8.098  -7.656  0.00  0.00    -0.246 OA
ATOM     11  N   UNL     1       9.710  -6.774  -5.903  0.00  0.00    -0.256 N 
ATOM     12  C   UNL     1       9.116  -6.003  -4.967  0.00  0.00    +0.265 A 
ATOM     13  O   UNL     1       9.776  -5.424  -4.125  0.00  0.00    -0.267 OA
ENDROOT
BRANCH   1  16
ATOM     14  C   UNL     1       2.209  -4.262  -3.803  0.00  0.00    +0.134 C 
ATOM     15  N   UNL     1       2.841  -5.395  -3.818  0.00  0.00    -0.339 N 
ATOM     16  C   UNL     1       3.385  -5.611  -5.164  0.00  0.00    +0.274 C 
ATOM     17  O   UNL     1       2.990  -4.461  -5.926  0.00  0.00    -0.243 OA
ATOM     18  N   UNL     1       2.250  -3.648  -5.030  0.00  0.00    -0.247 N 
ATOM     19  H   UNL     1       1.841  -2.796  -5.248  0.00  0.00    +0.196 HD
ATOM     20  H   UNL     1       2.937  -5.998  -3.065  0.00  0.00    +0.164 HD
BRANCH  14  25
ATOM     21  C   UNL     1       0.777  -1.810  -1.336  0.00  0.00    +0.121 A 
ATOM     22  C   UNL     1       0.242  -2.668  -0.385  0.00  0.00    +0.045 A 
ATOM     23  C   UNL     1       0.346  -4.037  -0.546  0.00  0.00    +0.004 A 
ATOM     24  C   UNL     1       0.984  -4.559  -1.653  0.00  0.00    +0.012 A 
ATOM     25  C   UNL     1       1.524  -3.705  -2.614  0.00  0.00    +0.020 A 
ATOM     26  C   UNL     1       1.413  -2.325  -2.453  0.00  0.00    +0.057 A 
BRANCH  21  27
ATOM     27  O   UNL     1       0.671  -0.465  -1.174  0.00  0.00    -0.492 OA
BRANCH  27  29
ATOM     28  C   UNL     1      -0.019   1.526   0.010  0.00  0.00    +0.048 C 
ATOM     29  C   UNL     1       0.002  -0.004   0.002  0.00  0.00    +0.225 C 
ENDBRANCH  27  29
ENDBRANCH  21  27
ENDBRANCH  14  25
ENDBRANCH   1  16
BRANCH  11  30
ATOM     30  C   UNL     1      11.169  -6.911  -5.902  0.00  0.00    +0.165 C 
BRANCH  30  31
ATOM     31  C   UNL     1      11.776  -5.832  -6.760  0.00  0.00    -0.027 A 
ATOM     32  C   UNL     1      11.982  -6.056  -8.109  0.00  0.00    +0.008 A 
ATOM     33  C   UNL     1      12.538  -5.067  -8.897  0.00  0.00    +0.038 A 
ATOM     34  C   UNL     1      12.889  -3.851  -8.337  0.00  0.00    +0.123 A 
ATOM     35  C   UNL     1      12.682  -3.627  -6.986  0.00  0.00    +0.038 A 
ATOM     36  C   UNL     1      12.120  -4.616  -6.200  0.00  0.00    +0.008 A 
ATOM     37  F   UNL     1      13.433  -2.883  -9.107  0.00  0.00    -0.205 F 
ENDBRANCH  30  31
ENDBRANCH  11  30
TORSDOF 6
