REMARK  Name = ZINC58951129
REMARK  9 active torsions:
REMARK  status: ('A' for Active; 'I' for Inactive)
REMARK    1  A    between atoms: C_1  and  C_2
REMARK    2  A    between atoms: N_5  and  C_8
REMARK    3  A    between atoms: C_8  and  C_9
REMARK    4  A    between atoms: C_14  and  C_15
REMARK    5  A    between atoms: C_15  and  N_16
REMARK    6  A    between atoms: C_17  and  C_19
REMARK    7  A    between atoms: C_19  and  N_20
REMARK    8  A    between atoms: C_21  and  C_23
REMARK    9  A    between atoms: C_23  and  C_24
REMARK                            x       y       z     vdW  Elec       q    Type
REMARK                         _______ _______ _______ _____ _____    ______ ____
ROOT
ATOM      1  N   UNL     1      -3.193  -4.878   3.388  0.00  0.00    -0.310 N 
ATOM      2  C   UNL     1      -4.517  -4.655   3.270  0.00  0.00    +0.230 C 
ATOM      3  O   UNL     1      -4.975  -3.566   3.545  0.00  0.00    -0.274 OA
ATOM      4  H   UNL     1      -2.827  -5.749   3.168  0.00  0.00    +0.149 HD
ENDROOT
BRANCH   1   5
ATOM      5  C   UNL     1      -2.307  -3.806   3.848  0.00  0.00    +0.139 C 
BRANCH   5  11
ATOM      6  C   UNL     1      -0.143  -4.380   2.730  0.00  0.00    -0.059 A 
ATOM      7  C   UNL     1       1.161  -4.838   2.771  0.00  0.00    +0.002 A 
ATOM      8  C   UNL     1       1.718  -5.231   3.973  0.00  0.00    +0.000 A 
ATOM      9  C   UNL     1       0.971  -5.166   5.135  0.00  0.00    +0.000 A 
ATOM     10  C   UNL     1      -0.332  -4.708   5.094  0.00  0.00    +0.005 A 
ATOM     11  C   UNL     1      -0.888  -4.311   3.892  0.00  0.00    -0.029 A 
BRANCH   6  12
ATOM     12  C   UNL     1      -0.750  -3.952   1.419  0.00  0.00    -0.043 C 
BRANCH  12  17
ATOM     13  C   UNL     1      -0.019   1.526   0.010  0.00  0.00    +0.007 C 
ATOM     14  C   UNL     1       0.002  -0.004   0.002  0.00  0.00    -0.018 C 
ATOM     15  C   UNL     1      -1.434  -0.536   0.023  0.00  0.00    -0.016 C 
ATOM     16  C   UNL     1      -1.405  -2.064   0.095  0.00  0.00    -0.078 C 
ATOM     17  N   UNL     1      -0.707  -2.487   1.315  0.00  0.00    +0.382 N 
ATOM     18  C   UNL     1       0.691  -2.042   1.269  0.00  0.00    -0.078 C 
ATOM     19  C   UNL     1       0.743  -0.513   1.242  0.00  0.00    -0.016 C 
ATOM     20  H   UNL     1      -1.162  -2.082   2.119  0.00  0.00    -0.081 HD
ENDBRANCH  12  17
ENDBRANCH   6  12
ENDBRANCH   5  11
ENDBRANCH   1   5
BRANCH   2  21
ATOM     21  C   UNL     1      -5.428  -5.758   2.797  0.00  0.00    +0.200 C 
BRANCH  21  22
ATOM     22  N   UNL     1      -6.808  -5.268   2.754  0.00  0.00    -0.306 N 
ATOM     23  C   UNL     1      -7.802  -6.086   2.358  0.00  0.00    +0.218 C 
ATOM     24  O   UNL     1      -7.555  -7.229   2.037  0.00  0.00    -0.275 OA
ATOM     25  H   UNL     1      -7.005  -4.353   3.011  0.00  0.00    +0.149 HD
BRANCH  23  26
ATOM     26  C   UNL     1      -9.221  -5.582   2.314  0.00  0.00    +0.131 C 
BRANCH  26  27
ATOM     27  C   UNL     1     -10.133  -6.685   1.841  0.00  0.00    -0.031 A 
ATOM     28  C   UNL     1     -10.465  -6.780   0.524  0.00  0.00    +0.005 A 
ATOM     29  C   UNL     1     -11.306  -7.793   0.068  0.00  0.00    +0.001 A 
ATOM     30  C   UNL     1     -11.820  -8.717   0.926  0.00  0.00    +0.008 A 
ATOM     31  C   UNL     1     -11.499  -8.651   2.293  0.00  0.00    -0.018 A 
ATOM     32  C   UNL     1     -10.639  -7.624   2.756  0.00  0.00    -0.014 A 
ATOM     33  C   UNL     1     -10.313  -7.561   4.121  0.00  0.00    +0.009 A 
ATOM     34  C   UNL     1     -10.822  -8.488   4.978  0.00  0.00    +0.001 A 
ATOM     35  C   UNL     1     -11.663  -9.502   4.522  0.00  0.00    +0.001 A 
ATOM     36  C   UNL     1     -12.011  -9.586   3.209  0.00  0.00    +0.008 A 
ENDBRANCH  26  27
ENDBRANCH  23  26
ENDBRANCH  21  22
ENDBRANCH   2  21
TORSDOF 8
