REMARK  Name = ZINC65548859
REMARK  9 active torsions:
REMARK  status: ('A' for Active; 'I' for Inactive)
REMARK    1  A    between atoms: C_1  and  O_2
REMARK    2  A    between atoms: O_2  and  C_3
REMARK    3  A    between atoms: C_6  and  C_11
REMARK    4  A    between atoms: C_8  and  O_9
REMARK    5  A    between atoms: O_9  and  C_10
REMARK    6  A    between atoms: C_15  and  S_24
REMARK    7  A    between atoms: N_17  and  C_18
REMARK    8  A    between atoms: S_24  and  C_25
REMARK    9  A    between atoms: C_25  and  C_26
REMARK                            x       y       z     vdW  Elec       q    Type
REMARK                         _______ _______ _______ _____ _____    ______ ____
ROOT
ATOM      1  C   UNL     1       2.697  -2.575  -4.492  0.00  0.00    +0.189 C 
ATOM      2  N   UNL     1       2.025  -3.881  -4.677  0.00  0.00    -0.230 NA
ATOM      3  N   UNL     1       0.845  -3.571  -5.500  0.00  0.00    -0.226 NA
ATOM      4  C   UNL     1       1.353  -2.535  -6.436  0.00  0.00    +0.217 C 
ATOM      5  N   UNL     1       2.270  -1.719  -5.613  0.00  0.00    -0.284 N 
ATOM      6  H   UNL     1       2.631  -4.537  -5.146  0.00  0.00    +0.143 HD
ATOM      7  H   UNL     1       0.093  -3.209  -4.932  0.00  0.00    +0.143 HD
ENDROOT
BRANCH   1  11
ATOM      8  C   UNL     1       1.502  -0.827  -0.777  0.00  0.00    +0.162 A 
ATOM      9  C   UNL     1       0.554  -1.125  -1.742  0.00  0.00    +0.050 A 
ATOM     10  C   UNL     1       0.944  -1.690  -2.943  0.00  0.00    +0.010 A 
ATOM     11  C   UNL     1       2.278  -1.959  -3.182  0.00  0.00    -0.008 A 
ATOM     12  C   UNL     1       3.229  -1.665  -2.223  0.00  0.00    +0.056 A 
ATOM     13  C   UNL     1       2.846  -1.093  -1.020  0.00  0.00    +0.162 A 
BRANCH   8  15
ATOM     14  C   UNL     1      -0.276  -0.026   0.585  0.00  0.00    +0.277 C 
ATOM     15  O   UNL     1       1.120  -0.271   0.404  0.00  0.00    -0.491 OA
ENDBRANCH   8  15
BRANCH  13  16
ATOM     16  O   UNL     1       3.781  -0.797  -0.078  0.00  0.00    -0.491 OA
ATOM     17  C   UNL     1       5.141  -1.097  -0.397  0.00  0.00    +0.277 C 
ENDBRANCH  13  16
ENDBRANCH   1  11
BRANCH   5  18
ATOM     18  C   UNL     1       2.656  -0.397  -5.849  0.00  0.00    +0.033 A 
ATOM     19  C   UNL     1       3.432   0.279  -4.916  0.00  0.00    +0.023 A 
ATOM     20  C   UNL     1       3.812   1.585  -5.154  0.00  0.00    +0.002 A 
ATOM     21  C   UNL     1       3.420   2.220  -6.318  0.00  0.00    +0.000 A 
ATOM     22  C   UNL     1       2.648   1.550  -7.249  0.00  0.00    +0.002 A 
ATOM     23  C   UNL     1       2.269   0.241  -7.020  0.00  0.00    +0.023 A 
ENDBRANCH   5  18
BRANCH   4  24
ATOM     24  S   UNL     1      -0.014  -1.521  -7.063  0.00  0.00    -0.118 S 
BRANCH  24  25
ATOM     25  C   UNL     1      -0.761  -0.817  -5.567  0.00  0.00    +0.119 C 
BRANCH  25  26
ATOM     26  C   UNL     1      -1.943   0.072  -5.958  0.00  0.00    +0.184 C 
ATOM     27  N   UNL     1      -2.919  -0.700  -6.738  0.00  0.00    -0.363 N 
ATOM     28  C   UNL     1      -3.019  -0.136  -7.906  0.00  0.00    +0.060 A 
ATOM     29  C   UNL     1      -3.820  -0.443  -9.099  0.00  0.00    +0.027 A 
ATOM     30  C   UNL     1      -3.713   0.339 -10.192  0.00  0.00    +0.002 A 
ATOM     31  C   UNL     1      -2.856   1.453 -10.246  0.00  0.00    +0.002 A 
ATOM     32  C   UNL     1      -2.078   1.822  -9.209  0.00  0.00    +0.027 A 
ATOM     33  C   UNL     1      -2.113   1.044  -7.963  0.00  0.00    +0.060 A 
ATOM     34  N   UNL     1      -1.488   1.163  -6.828  0.00  0.00    -0.363 N 
ATOM     35  H   UNL     1      -3.400  -1.487  -6.437  0.00  0.00    +0.162 HD
ATOM     36  H   UNL     1      -0.839   1.847  -6.599  0.00  0.00    +0.162 HD
ENDBRANCH  25  26
ENDBRANCH  24  25
ENDBRANCH   4  24
TORSDOF 7
