REMARK  Name = ZINC11818823
REMARK  11 active torsions:
REMARK  status: ('A' for Active; 'I' for Inactive)
REMARK    1  A    between atoms: C_1  and  C_2
REMARK    2  A    between atoms: C_2  and  C_3
REMARK    3  A    between atoms: C_2  and  C_4
REMARK    4  A    between atoms: C_7  and  N_10
REMARK    5  A    between atoms: N_10  and  C_11
REMARK    6  A    between atoms: C_18  and  C_20
REMARK    7  A    between atoms: C_23  and  C_25
REMARK    8  A    between atoms: C_26  and  C_27
REMARK    9  A    between atoms: C_27  and  C_28
REMARK   10  A    between atoms: C_27  and  C_29
REMARK   11  A    between atoms: C_27  and  O_30
REMARK                            x       y       z     vdW  Elec       q    Type
REMARK                         _______ _______ _______ _____ _____    ______ ____
ROOT
ATOM      1  C   UNL     1       0.569  -0.483   1.677  0.00  0.00    +0.088 C 
ATOM      2  C   UNL     1      -0.411   0.071   0.640  0.00  0.00    +0.025 C 
ATOM      3  C   UNL     1      -0.415   1.600   0.705  0.00  0.00    +0.021 C 
ATOM      4  C   UNL     1       0.986   2.125   0.375  0.00  0.00    +0.108 C 
ATOM      5  N   UNL     1       1.954   1.485   1.276  0.00  0.00    -0.293 N 
ATOM      6  C   UNL     1       1.980   0.018   1.358  0.00  0.00    +0.130 C 
ATOM      7  C   UNL     1       2.803   2.229   2.011  0.00  0.00    +0.282 C 
ATOM      8  O   UNL     1       3.507   1.699   2.851  0.00  0.00    -0.267 OA
ENDROOT
BRANCH   7   9
ATOM      9  C   UNL     1       2.879   3.677   1.801  0.00  0.00    +0.191 A 
ATOM     10  C   UNL     1       3.587   4.569   2.577  0.00  0.00    +0.056 A 
ATOM     11  C   UNL     1       3.387   5.837   2.023  0.00  0.00    +0.059 A 
ATOM     12  C   UNL     1       2.557   5.672   0.935  0.00  0.00    +0.179 A 
ATOM     13  O   UNL     1       2.263   4.366   0.818  0.00  0.00    -0.442 OA
BRANCH  12  14
ATOM     14  C   UNL     1       2.088   6.717   0.075  0.00  0.00    -0.026 C 
ATOM     15  C   UNL     1       1.703   7.573  -0.630  0.00  0.00    -0.060 C 
BRANCH  15  16
ATOM     16  C   UNL     1       1.220   8.646  -1.515  0.00  0.00    +0.121 C 
ATOM     17  C   UNL     1       1.685   8.375  -2.947  0.00  0.00    +0.055 C 
ATOM     18  C   UNL     1      -0.308   8.692  -1.474  0.00  0.00    +0.055 C 
BRANCH  16  19
ATOM     19  O   UNL     1       1.746   9.900  -1.073  0.00  0.00    -0.377 OA
ATOM     20  H   UNL     1       2.712   9.943  -1.073  0.00  0.00    +0.211 HD
ENDBRANCH  16  19
ENDBRANCH  15  16
ENDBRANCH  12  14
ENDBRANCH   7   9
BRANCH   1  21
ATOM     21  N   UNL     1       0.548  -1.947   1.637  0.00  0.00    -0.339 N 
ATOM     22  H   UNL     1       0.279  -2.406   0.825  0.00  0.00    +0.146 HD
BRANCH  21  26
ATOM     23  C   UNL     1       1.644  -4.139   5.002  0.00  0.00    -0.045 A 
ATOM     24  C   UNL     1       1.260  -4.795   3.847  0.00  0.00    +0.006 A 
ATOM     25  C   UNL     1       0.896  -4.071   2.729  0.00  0.00    +0.023 A 
ATOM     26  C   UNL     1       0.915  -2.682   2.766  0.00  0.00    +0.027 A 
ATOM     27  C   UNL     1       1.306  -2.027   3.926  0.00  0.00    +0.023 A 
ATOM     28  C   UNL     1       1.664  -2.757   5.043  0.00  0.00    +0.006 A 
BRANCH  23  30
ATOM     29  C   UNL     1       3.483  -4.594   6.602  0.00  0.00    +0.012 C 
ATOM     30  C   UNL     1       2.041  -4.932   6.221  0.00  0.00    +0.013 C 
ATOM     31  C   UNL     1       1.110  -4.581   7.383  0.00  0.00    +0.012 C 
ENDBRANCH  23  30
ENDBRANCH  21  26
ENDBRANCH   1  21
TORSDOF 7
