REMARK  Name = ZINC65074871
REMARK  6 active torsions:
REMARK  status: ('A' for Active; 'I' for Inactive)
REMARK    1  A    between atoms: C_1  and  C_2
REMARK    2  A    between atoms: C_2  and  C_3
REMARK    3  A    between atoms: C_6  and  S_9
REMARK    4  A    between atoms: S_9  and  N_12
REMARK    5  A    between atoms: N_23  and  C_24
REMARK    6  A    between atoms: C_24  and  C_25
REMARK                            x       y       z     vdW  Elec       q    Type
REMARK                         _______ _______ _______ _____ _____    ______ ____
ROOT
ATOM      1  N   UNL     1      -6.666  -0.779   0.055  0.00  0.00    -0.176 NA
ATOM      2  C   UNL     1      -7.107  -0.183   1.324  0.00  0.00    +0.111 C 
ATOM      3  C   UNL     1      -6.784   1.314   1.304  0.00  0.00    +0.047 C 
ATOM      4  C   UNL     1      -7.411   1.951   0.061  0.00  0.00    +0.075 C 
ATOM      5  C   UNL     1      -6.813   1.311  -1.195  0.00  0.00    +0.047 C 
ATOM      6  C   UNL     1      -7.132  -0.183  -1.204  0.00  0.00    +0.111 C 
ATOM      7  C   UNL     1      -7.128   3.427   0.056  0.00  0.00    +0.089 C 
ATOM      8  N   UNL     1      -8.003   4.314  -0.234  0.00  0.00    -0.374 N 
ATOM      9  C   UNL     1      -9.385   4.006  -0.586  0.00  0.00    +0.129 C 
ATOM     10  C   UNL     1      -9.513   2.529  -0.967  0.00  0.00    +0.102 C 
ATOM     11  N   UNL     1      -8.863   1.720   0.078  0.00  0.00    -0.303 NA
ATOM     12  N   UNL     1      -5.864   3.845   0.379  0.00  0.00    -0.329 N 
ATOM     13  H   UNL     1      -9.075   0.740  -0.039  0.00  0.00    +0.123 HD
ATOM     14  H   UNL     1      -5.181   3.194   0.604  0.00  0.00    +0.147 HD
ATOM     15  H   UNL     1      -7.732   5.245  -0.219  0.00  0.00    +0.161 HD
ENDROOT
BRANCH   1  16
ATOM     16  S   UNL     1      -5.658  -2.093   0.045  0.00  0.00    +0.061 S 
ATOM     17  O   UNL     1      -5.858  -2.749  -1.200  0.00  0.00    -0.153 OA
ATOM     18  O   UNL     1      -5.838  -2.753   1.291  0.00  0.00    -0.153 OA
BRANCH  16  22
ATOM     19  C   UNL     1      -1.412  -0.526   0.013  0.00  0.00    -0.048 A 
ATOM     20  C   UNL     1      -2.051  -0.766   1.215  0.00  0.00    +0.005 A 
ATOM     21  C   UNL     1      -3.348  -1.244   1.225  0.00  0.00    +0.029 A 
ATOM     22  C   UNL     1      -4.006  -1.482   0.032  0.00  0.00    +0.105 A 
ATOM     23  C   UNL     1      -3.367  -1.241  -1.170  0.00  0.00    +0.029 A 
ATOM     24  C   UNL     1      -2.072  -0.758  -1.179  0.00  0.00    +0.005 A 
BRANCH  19  26
ATOM     25  C   UNL     1      -0.019   1.526   0.010  0.00  0.00    +0.009 C 
ATOM     26  C   UNL     1       0.002  -0.004   0.002  0.00  0.00    +0.032 C 
ENDBRANCH  19  26
ENDBRANCH  16  22
ENDBRANCH   1  16
BRANCH  12  27
ATOM     27  C   UNL     1      -5.545   5.274   0.387  0.00  0.00    +0.138 C 
BRANCH  27  28
ATOM     28  C   UNL     1      -4.101   5.465   0.773  0.00  0.00    -0.030 A 
ATOM     29  C   UNL     1      -3.755   5.611   2.103  0.00  0.00    +0.006 A 
ATOM     30  C   UNL     1      -2.430   5.785   2.458  0.00  0.00    +0.020 A 
ATOM     31  C   UNL     1      -1.451   5.814   1.481  0.00  0.00    +0.041 A 
ATOM     32  C   UNL     1      -1.798   5.668   0.150  0.00  0.00    +0.020 A 
ATOM     33  C   UNL     1      -3.122   5.487  -0.203  0.00  0.00    +0.006 A 
ATOM     34 CL   UNL     1       0.213   6.034   1.926  0.00  0.00    -0.084 Cl
ENDBRANCH  27  28
ENDBRANCH  12  27
TORSDOF 5
