REMARK  Name = ZINC12150146
REMARK  9 active torsions:
REMARK  status: ('A' for Active; 'I' for Inactive)
REMARK    1  A    between atoms: C_1  and  C_2
REMARK    2  A    between atoms: C_8  and  C_9
REMARK    3  A    between atoms: C_8  and  N_67
REMARK    4  A    between atoms: C_11  and  C_28
REMARK    5  A    between atoms: C_14  and  O_15
REMARK    6  A    between atoms: O_15  and  C_16
REMARK    7  A    between atoms: C_16  and  C_17
REMARK    8  A    between atoms: N_19  and  C_20
REMARK    9  A    between atoms: C_20  and  C_21
REMARK                            x       y       z     vdW  Elec       q    Type
REMARK                         _______ _______ _______ _____ _____    ______ ____
ROOT
ATOM      1  C   UNL     1      -2.439  -2.862   0.009  0.00  0.00    -0.022 A 
ATOM      2  C   UNL     1      -1.253  -2.158   0.002  0.00  0.00    +0.013 A 
ATOM      3  C   UNL     1      -1.272  -0.764   0.010  0.00  0.00    -0.017 A 
ATOM      4  C   UNL     1      -2.490  -0.087   0.030  0.00  0.00    +0.012 A 
ATOM      5  C   UNL     1      -3.672  -0.796   0.031  0.00  0.00    +0.046 A 
ATOM      6  C   UNL     1      -3.650  -2.184   0.023  0.00  0.00    +0.123 A 
ENDROOT
BRANCH   3   7
ATOM      7  C   UNL     1       0.002  -0.004   0.002  0.00  0.00    -0.014 A 
ATOM      8  C   UNL     1       1.220  -0.682  -0.013  0.00  0.00    +0.012 A 
ATOM      9  C   UNL     1       2.404   0.026  -0.021  0.00  0.00    +0.050 A 
ATOM     10  C   UNL     1       2.387   1.413  -0.014  0.00  0.00    +0.166 A 
ATOM     11  C   UNL     1       1.173   2.096   0.002  0.00  0.00    +0.167 A 
ATOM     12  C   UNL     1      -0.017   1.389   0.010  0.00  0.00    +0.058 A 
ATOM     13  O   UNL     1       1.426   3.437   0.006  0.00  0.00    -0.453 OA
ATOM     14  C   UNL     1       2.803   3.566   0.407  0.00  0.00    +0.466 C 
ATOM     15  O   UNL     1       3.401   2.328  -0.018  0.00  0.00    -0.453 OA
ENDBRANCH   3   7
BRANCH   1  16
ATOM     16  C   UNL     1      -2.420  -4.369   0.001  0.00  0.00    -0.039 C 
BRANCH  16  23
ATOM     17  C   UNL     1      -2.552  -8.296  -2.958  0.00  0.00    +0.005 C 
ATOM     18  C   UNL     1      -2.827  -6.795  -2.851  0.00  0.00    -0.031 C 
ATOM     19  C   UNL     1      -2.012  -6.048  -3.910  0.00  0.00    -0.001 C 
ATOM     20  C   UNL     1      -2.246  -4.543  -3.757  0.00  0.00    -0.018 C 
ATOM     21  C   UNL     1      -1.858  -4.113  -2.340  0.00  0.00    -0.078 C 
ATOM     22  C   UNL     1      -2.422  -6.299  -1.460  0.00  0.00    -0.075 C 
ATOM     23  N   UNL     1      -2.695  -4.849  -1.369  0.00  0.00    +0.383 N 
ATOM     24  H   UNL     1      -3.684  -4.683  -1.588  0.00  0.00    -0.081 HD
ENDBRANCH  16  23
ENDBRANCH   1  16
BRANCH   6  25
ATOM     25  O   UNL     1      -4.817  -2.881   0.029  0.00  0.00    -0.483 OA
BRANCH  25  26
ATOM     26  C   UNL     1      -6.027  -2.120   0.044  0.00  0.00    +0.324 C 
BRANCH  26  27
ATOM     27  C   UNL     1      -7.208  -3.056   0.049  0.00  0.00    +0.251 C 
ATOM     28  O   UNL     1      -7.032  -4.256   0.040  0.00  0.00    -0.272 OA
ATOM     29  N   UNL     1      -8.461  -2.559   0.062  0.00  0.00    -0.308 N 
ATOM     30  H   UNL     1      -8.602  -1.599   0.069  0.00  0.00    +0.149 HD
BRANCH  29  31
ATOM     31  C   UNL     1      -9.610  -3.468   0.067  0.00  0.00    +0.142 C 
BRANCH  31  32
ATOM     32  C   UNL     1     -10.885  -2.666   0.082  0.00  0.00    +0.005 A 
ATOM     33  C   UNL     1     -11.574  -2.485   1.267  0.00  0.00    +0.008 A 
ATOM     34  C   UNL     1     -12.741  -1.745   1.283  0.00  0.00    +0.000 A 
ATOM     35  C   UNL     1     -13.227  -1.194   0.111  0.00  0.00    +0.003 A 
ATOM     36  C   UNL     1     -12.543  -1.377  -1.075  0.00  0.00    +0.038 A 
ATOM     37  C   UNL     1     -11.371  -2.115  -1.091  0.00  0.00    +0.128 A 
ATOM     38  F   UNL     1     -10.701  -2.295  -2.250  0.00  0.00    -0.205 F 
ENDBRANCH  31  32
ENDBRANCH  29  31
ENDBRANCH  26  27
ENDBRANCH  25  26
ENDBRANCH   6  25
TORSDOF 8
