REMARK  Name = ZINC10042627
REMARK  13 active torsions:
REMARK  status: ('A' for Active; 'I' for Inactive)
REMARK    1  A    between atoms: C_1  and  C_2
REMARK    2  A    between atoms: C_2  and  O_3
REMARK    3  A    between atoms: O_3  and  C_4
REMARK    4  A    between atoms: C_4  and  C_6
REMARK    5  A    between atoms: C_11  and  C_12
REMARK    6  A    between atoms: C_15  and  C_17
REMARK    7  A    between atoms: N_18  and  N_19
REMARK    8  A    between atoms: C_20  and  C_22
REMARK    9  A    between atoms: C_22  and  C_24
REMARK   10  A    between atoms: C_22  and  N_27
REMARK   11  A    between atoms: C_24  and  C_25
REMARK   12  A    between atoms: C_24  and  C_26
REMARK   13  A    between atoms: C_28  and  C_30
REMARK                            x       y       z     vdW  Elec       q    Type
REMARK                         _______ _______ _______ _____ _____    ______ ____
ROOT
ATOM      1  N   UNL     1       3.499  -6.421  -0.447  0.00  0.00    -0.205 N 
ATOM      2  C   UNL     1       3.304  -5.113  -0.708  0.00  0.00    +0.253 C 
ATOM      3  O   UNL     1       4.250  -4.397  -0.960  0.00  0.00    -0.272 OA
ATOM      4  H   UNL     1       2.738  -7.010  -0.323  0.00  0.00    +0.177 HD
ENDROOT
BRANCH   1   6
ATOM      5  C   UNL     1       4.991  -8.210  -0.214  0.00  0.00    +0.176 C 
ATOM      6  N   UNL     1       4.801  -6.930  -0.356  0.00  0.00    -0.185 NA
BRANCH   5  10
ATOM      7  C   UNL     1       1.803  -9.895  -0.496  0.00  0.00    +0.137 A 
ATOM      8  C   UNL     1       2.608 -10.981  -0.304  0.00  0.00    +0.050 A 
ATOM      9  C   UNL     1       3.918 -10.504  -0.177  0.00  0.00    +0.051 A 
ATOM     10  C   UNL     1       3.855  -9.131  -0.289  0.00  0.00    +0.148 A 
ATOM     11  O   UNL     1       2.567  -8.785  -0.485  0.00  0.00    -0.454 OA
BRANCH   7  17
ATOM     12  C   UNL     1      -0.494  -9.098   0.086  0.00  0.00    +0.070 A 
ATOM     13  C   UNL     1      -1.875  -9.140  -0.109  0.00  0.00    +0.016 A 
ATOM     14  C   UNL     1      -2.413 -10.000  -1.043  0.00  0.00    +0.001 A 
ATOM     15  C   UNL     1      -1.590 -10.823  -1.798  0.00  0.00    +0.001 A 
ATOM     16  C   UNL     1      -0.223 -10.793  -1.626  0.00  0.00    +0.012 A 
ATOM     17  C   UNL     1       0.344  -9.931  -0.685  0.00  0.00    +0.031 A 
BRANCH  12  18
ATOM     18  C   UNL     1       0.086  -8.185   1.087  0.00  0.00    +0.340 C 
ATOM     19  O   UNL     1       1.290  -8.148   1.250  0.00  0.00    -0.245 OA
BRANCH  18  20
ATOM     20  O   UNL     1      -0.718  -7.392   1.822  0.00  0.00    -0.461 OA
BRANCH  20  22
ATOM     21  C   UNL     1      -1.143  -5.700   3.522  0.00  0.00    +0.048 C 
ATOM     22  C   UNL     1      -0.078  -6.518   2.789  0.00  0.00    +0.229 C 
ENDBRANCH  20  22
ENDBRANCH  18  20
ENDBRANCH  12  18
ENDBRANCH   7  17
ENDBRANCH   5  10
ENDBRANCH   1   6
BRANCH   2  23
ATOM     23  C   UNL     1       1.910  -4.540  -0.685  0.00  0.00    +0.163 C 
BRANCH  23  24
ATOM     24  N   UNL     1       1.959  -3.155  -0.209  0.00  0.00    -0.300 N 
ATOM     25  C   UNL     1       0.874  -2.603   0.369  0.00  0.00    +0.245 C 
ATOM     26  O   UNL     1      -0.145  -3.253   0.496  0.00  0.00    -0.270 OA
ATOM     27  H   UNL     1       2.772  -2.636  -0.311  0.00  0.00    +0.150 HD
BRANCH  25  28
ATOM     28  C   UNL     1       0.923  -1.206   0.849  0.00  0.00    +0.037 A 
ATOM     29  C   UNL     1      -0.199  -0.630   1.448  0.00  0.00    +0.014 A 
ATOM     30  C   UNL     1      -0.147   0.674   1.893  0.00  0.00    +0.021 A 
ATOM     31  C   UNL     1       1.016   1.413   1.747  0.00  0.00    +0.041 A 
ATOM     32  C   UNL     1       2.132   0.847   1.153  0.00  0.00    +0.021 A 
ATOM     33  C   UNL     1       2.092  -0.456   0.704  0.00  0.00    +0.014 A 
ATOM     34 CL   UNL     1       1.073   3.054   2.309  0.00  0.00    -0.084 Cl
ENDBRANCH  25  28
ENDBRANCH  23  24
BRANCH  23  35
ATOM     35  C   UNL     1       1.321  -4.574  -2.097  0.00  0.00    +0.012 C 
ATOM     36  C   UNL     1       1.267  -6.021  -2.592  0.00  0.00    +0.009 C 
ATOM     37  C   UNL     1      -0.092  -3.989  -2.074  0.00  0.00    +0.009 C 
ENDBRANCH  23  35
ENDBRANCH   2  23
TORSDOF 10
