REMARK  Name = ZINC39673236
REMARK  6 active torsions:
REMARK  status: ('A' for Active; 'I' for Inactive)
REMARK    1  A    between atoms: C_3  and  O_32
REMARK    2  A    between atoms: C_6  and  C_7
REMARK    3  A    between atoms: C_7  and  N_8
REMARK    4  A    between atoms: C_9  and  C_11
REMARK    5  A    between atoms: C_22  and  C_24
REMARK    6  A    between atoms: O_32  and  C_33
REMARK                            x       y       z     vdW  Elec       q    Type
REMARK                         _______ _______ _______ _____ _____    ______ ____
ROOT
ATOM      1  C   UNL     1      -3.626  -1.441  -2.645  0.00  0.00    +0.100 C 
ATOM      2  C   UNL     1      -3.874  -0.264  -3.614  0.00  0.00    +0.121 C 
ATOM      3  N   UNL     1      -5.006  -0.709  -4.461  0.00  0.00    -0.296 N 
ATOM      4  C   UNL     1      -5.911  -1.418  -3.524  0.00  0.00    +0.115 C 
ATOM      5  C   UNL     1      -4.965  -2.196  -2.588  0.00  0.00    -0.004 C 
ATOM      6  C   UNL     1      -5.513  -2.192  -1.164  0.00  0.00    -0.010 C 
ATOM      7  C   UNL     1      -6.814  -2.998  -1.121  0.00  0.00    -0.082 C 
ATOM      8  N   UNL     1      -6.556  -4.373  -1.564  0.00  0.00    +0.379 N 
ATOM      9  C   UNL     1      -6.117  -4.374  -2.965  0.00  0.00    -0.082 C 
ATOM     10  C   UNL     1      -4.786  -3.626  -3.086  0.00  0.00    -0.010 C 
ATOM     11  C   UNL     1      -5.175  -0.514  -5.784  0.00  0.00    +0.247 C 
ATOM     12  O   UNL     1      -4.281  -0.023  -6.444  0.00  0.00    -0.270 OA
ATOM     13  H   UNL     1      -5.835  -4.781  -0.988  0.00  0.00    -0.086 HD
ATOM     14  H   UNL     1      -7.401  -4.918  -1.477  0.00  0.00    -0.086 HD
ENDROOT
BRANCH  11  15
ATOM     15  C   UNL     1      -6.447  -0.896  -6.430  0.00  0.00    +0.038 A 
ATOM     16  C   UNL     1      -7.606  -1.046  -5.665  0.00  0.00    +0.014 A 
ATOM     17  C   UNL     1      -8.790  -1.403  -6.273  0.00  0.00    +0.022 A 
ATOM     18  C   UNL     1      -8.834  -1.614  -7.642  0.00  0.00    +0.059 A 
ATOM     19  C   UNL     1      -7.688  -1.467  -8.407  0.00  0.00    +0.060 A 
ATOM     20  C   UNL     1      -6.497  -1.104  -7.810  0.00  0.00    +0.034 A 
ATOM     21 CL   UNL     1      -7.751  -1.734 -10.122  0.00  0.00    -0.082 Cl
ATOM     22 CL   UNL     1     -10.329  -2.064  -8.400  0.00  0.00    -0.082 Cl
ENDBRANCH  11  15
BRANCH   1  24
ATOM     23  N   UNL     1      -2.444  -1.651  -0.481  0.00  0.00    -0.311 N 
ATOM     24  C   UNL     1      -3.255  -0.926  -1.278  0.00  0.00    +0.218 C 
ATOM     25  O   UNL     1      -3.686   0.141  -0.894  0.00  0.00    -0.275 OA
ATOM     26  H   UNL     1      -2.099  -2.504  -0.788  0.00  0.00    +0.149 HD
BRANCH  23  27
ATOM     27  C   UNL     1      -2.084  -1.150   0.847  0.00  0.00    +0.139 C 
BRANCH  27  33
ATOM     28  C   UNL     1       0.195  -2.040   1.373  0.00  0.00    +0.009 A 
ATOM     29  C   UNL     1       1.030  -2.947   1.996  0.00  0.00    +0.046 A 
ATOM     30  C   UNL     1       0.493  -3.958   2.779  0.00  0.00    +0.127 A 
ATOM     31  C   UNL     1      -0.882  -4.057   2.933  0.00  0.00    +0.046 A 
ATOM     32  C   UNL     1      -1.713  -3.148   2.308  0.00  0.00    +0.009 A 
ATOM     33  C   UNL     1      -1.175  -2.140   1.528  0.00  0.00    -0.030 A 
BRANCH  30  34
ATOM     34  O   UNL     1       1.313  -4.852   3.393  0.00  0.00    -0.434 OA
BRANCH  34  35
ATOM     35  C   UNL     1       0.690  -5.867   4.183  0.00  0.00    +0.541 C 
ATOM     36  F   UNL     1      -0.051  -5.270   5.208  0.00  0.00    -0.166 F 
ATOM     37  F   UNL     1      -0.160  -6.630   3.376  0.00  0.00    -0.166 F 
ENDBRANCH  34  35
ENDBRANCH  30  34
ENDBRANCH  27  33
ENDBRANCH  23  27
ENDBRANCH   1  24
TORSDOF 6
