REMARK  Name = ZINC20968971
REMARK  12 active torsions:
REMARK  status: ('A' for Active; 'I' for Inactive)
REMARK    1  A    between atoms: C_1  and  C_2
REMARK    2  A    between atoms: C_2  and  C_3
REMARK    3  A    between atoms: C_2  and  C_4
REMARK    4  A    between atoms: C_4  and  N_5
REMARK    5  A    between atoms: C_6  and  N_36
REMARK    6  A    between atoms: C_7  and  N_14
REMARK    7  A    between atoms: N_14  and  C_15
REMARK    8  A    between atoms: C_15  and  C_16
REMARK    9  A    between atoms: C_16  and  C_17
REMARK   10  A    between atoms: C_16  and  C_18
REMARK   11  A    between atoms: C_19  and  C_21
REMARK   12  A    between atoms: C_23  and  C_31
REMARK                            x       y       z     vdW  Elec       q    Type
REMARK                         _______ _______ _______ _____ _____    ______ ____
ROOT
ATOM      1  N   UNL     1      -1.227   3.619  -0.110  0.00  0.00    -0.260 N 
ATOM      2  C   UNL     1      -1.263   2.272  -0.074  0.00  0.00    +0.252 C 
ATOM      3  O   UNL     1      -0.226   1.637  -0.051  0.00  0.00    -0.270 OA
ENDROOT
BRANCH   2   4
ATOM      4  C   UNL     1      -2.563   1.567  -0.063  0.00  0.00    +0.048 A 
ATOM      5  C   UNL     1      -3.607   1.968  -0.883  0.00  0.00    +0.042 A 
ATOM      6  C   UNL     1      -4.827   1.272  -0.835  0.00  0.00    +0.079 A 
ATOM      7  N   UNL     1      -5.019   0.243  -0.033  0.00  0.00    -0.246 NA
ATOM      8  C   UNL     1      -4.069  -0.208   0.788  0.00  0.00    +0.072 A 
ATOM      9  C   UNL     1      -2.800   0.422   0.818  0.00  0.00    +0.013 A 
ATOM     10  C   UNL     1      -1.806  -0.054   1.680  0.00  0.00    +0.011 A 
ATOM     11  C   UNL     1      -2.068  -1.124   2.484  0.00  0.00    +0.001 A 
ATOM     12  C   UNL     1      -3.313  -1.748   2.458  0.00  0.00    +0.002 A 
ATOM     13  C   UNL     1      -4.302  -1.310   1.632  0.00  0.00    +0.028 A 
BRANCH   6  14
ATOM     14  C   UNL     1      -5.930   1.708  -1.712  0.00  0.00    +0.038 A 
ATOM     15  C   UNL     1      -7.223   1.252  -1.767  0.00  0.00    +0.017 A 
ATOM     16  C   UNL     1      -8.086   1.819  -2.675  0.00  0.00    +0.008 A 
ATOM     17  C   UNL     1      -7.632   2.803  -3.496  0.00  0.00    +0.046 A 
ATOM     18  S   UNL     1      -5.929   2.960  -2.985  0.00  0.00    -0.095 S 
ENDBRANCH   6  14
ENDBRANCH   2   4
BRANCH   1  21
ATOM     19  N   UNL     1      -4.360   5.058   1.157  0.00  0.00    -0.280 N 
ATOM     20  C   UNL     1      -3.197   4.326   1.112  0.00  0.00    +0.127 A 
ATOM     21  C   UNL     1      -2.425   4.358  -0.032  0.00  0.00    +0.140 A 
ATOM     22  C   UNL     1      -2.851   5.146  -1.118  0.00  0.00    +0.277 A 
ATOM     23  O   UNL     1      -2.186   5.197  -2.139  0.00  0.00    -0.266 OA
ATOM     24  N   UNL     1      -4.002   5.840  -1.024  0.00  0.00    -0.273 N 
ATOM     25  H   UNL     1      -4.347   6.451  -1.871  0.00  0.00    +0.173 HD
ATOM     26  C   UNL     1      -4.741   5.797   0.099  0.00  0.00    +0.331 A 
ATOM     27  O   UNL     1      -5.773   6.438   0.159  0.00  0.00    -0.246 OA
BRANCH  20  28
ATOM     28  N   UNL     1      -2.808   3.572   2.192  0.00  0.00    -0.343 N 
ATOM     29  H   UNL     1      -1.876   2.989   2.149  0.00  0.00    +0.144 HD
ATOM     30  H   UNL     1      -3.428   3.551   3.100  0.00  0.00    +0.144 HD
ENDBRANCH  20  28
BRANCH  19  31
ATOM     31  C   UNL     1      -5.189   5.034   2.364  0.00  0.00    +0.131 C 
BRANCH  31  33
ATOM     32  C   UNL     1      -5.023   7.510   2.656  0.00  0.00    +0.009 C 
ATOM     33  C   UNL     1      -4.748   6.153   3.309  0.00  0.00    +0.003 C 
ATOM     34  C   UNL     1      -5.528   6.051   4.621  0.00  0.00    +0.009 C 
ENDBRANCH  31  33
ENDBRANCH  19  31
ENDBRANCH   1  21
BRANCH   1  35
ATOM     35  C   UNL     1       0.057   4.315  -0.229  0.00  0.00    +0.117 C 
BRANCH  35  36
ATOM     36  C   UNL     1       0.548   4.720   1.162  0.00  0.00    +0.001 C 
ATOM     37  C   UNL     1       0.877   3.465   1.973  0.00  0.00    +0.009 C 
ATOM     38  C   UNL     1       1.804   5.583   1.028  0.00  0.00    +0.009 C 
ENDBRANCH  35  36
ENDBRANCH   1  35
TORSDOF 8
