REMARK  Name = ZINC04982268
REMARK  6 active torsions:
REMARK  status: ('A' for Active; 'I' for Inactive)
REMARK    1  A    between atoms: C_1  and  C_2
REMARK    2  A    between atoms: C_2  and  O_3
REMARK    3  A    between atoms: O_3  and  C_4
REMARK    4  A    between atoms: C_10  and  C_12
REMARK    5  A    between atoms: C_15  and  N_18
REMARK    6  A    between atoms: N_21  and  C_29
REMARK                            x       y       z     vdW  Elec       q    Type
REMARK                         _______ _______ _______ _____ _____    ______ ____
ROOT
ATOM      1  C   UNL     1       2.274   2.120  -1.102  0.00  0.00    +0.196 C 
ATOM      2  N   UNL     1       1.522   2.027  -2.163  0.00  0.00    -0.230 NA
ATOM      3  C   UNL     1       0.124   2.032  -1.789  0.00  0.00    +0.214 C 
ATOM      4  C   UNL     1       0.140   1.439  -0.342  0.00  0.00    +0.132 C 
ATOM      5  C   UNL     1       1.404   2.159   0.154  0.00  0.00    +0.128 C 
ATOM      6  N   UNL     1      -1.116   1.812   0.284  0.00  0.00    -0.324 N 
ATOM      7  C   UNL     1      -2.185   1.323  -0.506  0.00  0.00    +0.051 A 
ATOM      8  C   UNL     1      -3.414   1.132   0.114  0.00  0.00    +0.025 A 
ATOM      9  C   UNL     1      -4.475   0.602  -0.594  0.00  0.00    +0.002 A 
ATOM     10  C   UNL     1      -4.324   0.256  -1.924  0.00  0.00    +0.002 A 
ATOM     11  C   UNL     1      -3.108   0.449  -2.554  0.00  0.00    +0.025 A 
ATOM     12  C   UNL     1      -2.042   0.987  -1.851  0.00  0.00    +0.050 A 
ATOM     13  N   UNL     1      -0.810   1.192  -2.525  0.00  0.00    -0.320 N 
ATOM     14  C   UNL     1      -1.174   1.337   1.673  0.00  0.00    +0.130 C 
ATOM     15  H   UNL     1      -0.609   0.807  -3.392  0.00  0.00    +0.148 HD
ENDROOT
BRANCH   5  16
ATOM     16  C   UNL     1       1.097   3.579   0.557  0.00  0.00    -0.033 A 
ATOM     17  C   UNL     1       0.929   4.551  -0.411  0.00  0.00    +0.006 A 
ATOM     18  C   UNL     1       0.642   5.852  -0.041  0.00  0.00    +0.033 A 
ATOM     19  C   UNL     1       0.534   6.183   1.297  0.00  0.00    +0.126 A 
ATOM     20  C   UNL     1       0.707   5.211   2.265  0.00  0.00    +0.033 A 
ATOM     21  C   UNL     1       0.989   3.909   1.895  0.00  0.00    +0.006 A 
BRANCH  19  22
ATOM     22  N   UNL     1       0.233   7.577   1.693  0.00  0.00    +0.056 N 
ATOM     23  O   UNL     1       0.139   7.868   2.872  0.00  0.00    -0.126 OA
ATOM     24  O   UNL     1       0.081   8.433   0.840  0.00  0.00    -0.126 OA
ENDBRANCH  19  22
ENDBRANCH   5  16
BRANCH   1  25
ATOM     25  O   UNL     1       3.622   2.173  -1.112  0.00  0.00    -0.479 OA
BRANCH  25  27
ATOM     26  C   UNL     1       5.781   2.195  -2.197  0.00  0.00    +0.048 C 
ATOM     27  C   UNL     1       4.265   2.123  -2.387  0.00  0.00    +0.227 C 
ENDBRANCH  25  27
ENDBRANCH   1  25
TORSDOF 4
