REMARK  Name = ZINC39795554
REMARK  7 active torsions:
REMARK  status: ('A' for Active; 'I' for Inactive)
REMARK    1  A    between atoms: C_1  and  C_2
REMARK    2  A    between atoms: C_2  and  C_3
REMARK    3  A    between atoms: C_2  and  C_4
REMARK    4  A    between atoms: C_4  and  C_6
REMARK    5  A    between atoms: C_4  and  N_23
REMARK    6  A    between atoms: C_11  and  C_14
REMARK    7  A    between atoms: C_24  and  C_26
REMARK                            x       y       z     vdW  Elec       q    Type
REMARK                         _______ _______ _______ _____ _____    ______ ____
ROOT
ATOM      1  C   UNL     1      -2.424   0.483   1.039  0.00  0.00    +0.236 C 
ATOM      2  O   UNL     1      -3.296   1.297   0.821  0.00  0.00    -0.274 OA
ATOM      3  N   UNL     1      -2.086   0.182   2.309  0.00  0.00    -0.296 N 
ATOM      4  C   UNL     1      -2.685   0.894   3.450  0.00  0.00    +0.113 C 
ATOM      5  C   UNL     1      -3.469  -0.122   4.283  0.00  0.00    +0.054 C 
ATOM      6  C   UNL     1      -2.655  -1.365   4.494  0.00  0.00    -0.043 C 
ATOM      7  C   UNL     1      -1.610  -1.706   3.750  0.00  0.00    -0.004 C 
ATOM      8  C   UNL     1      -1.108  -0.874   2.608  0.00  0.00    +0.135 C 
ENDROOT
BRANCH   6   9
ATOM      9  C   UNL     1      -3.024  -2.224   5.549  0.00  0.00    -0.016 C 
ATOM     10  C   UNL     1      -4.139  -2.115   6.370  0.00  0.00    +0.003 A 
ATOM     11  C   UNL     1      -5.198  -1.180   6.424  0.00  0.00    +0.010 A 
ATOM     12  C   UNL     1      -6.175  -1.323   7.353  0.00  0.00    +0.001 A 
ATOM     13  C   UNL     1      -6.166  -2.380   8.270  0.00  0.00    +0.002 A 
ATOM     14  C   UNL     1      -5.184  -3.312   8.278  0.00  0.00    +0.026 A 
ATOM     15  C   UNL     1      -4.125  -3.230   7.335  0.00  0.00    +0.043 A 
ATOM     16  N   UNL     1      -3.073  -3.995   7.138  0.00  0.00    -0.380 N 
ATOM     17  C   UNL     1      -2.291  -3.462   6.018  0.00  0.00    +0.149 C 
ATOM     18  H   UNL     1      -2.851  -4.788   7.651  0.00  0.00    +0.160 HD
ENDBRANCH   6   9
BRANCH   1  19
ATOM     19  C   UNL     1      -1.719  -0.191  -0.109  0.00  0.00    +0.162 C 
BRANCH  19  20
ATOM     20  N   UNL     1      -2.598  -0.208  -1.280  0.00  0.00    -0.300 N 
ATOM     21  C   UNL     1      -2.436  -1.149  -2.232  0.00  0.00    +0.245 C 
ATOM     22  O   UNL     1      -1.560  -1.984  -2.118  0.00  0.00    -0.270 OA
ATOM     23  H   UNL     1      -3.298   0.458  -1.371  0.00  0.00    +0.150 HD
BRANCH  21  24
ATOM     24  C   UNL     1      -3.324  -1.166  -3.413  0.00  0.00    +0.037 A 
ATOM     25  C   UNL     1      -4.327  -0.205  -3.550  0.00  0.00    +0.014 A 
ATOM     26  C   UNL     1      -5.152  -0.226  -4.655  0.00  0.00    +0.021 A 
ATOM     27  C   UNL     1      -4.986  -1.197  -5.628  0.00  0.00    +0.041 A 
ATOM     28  C   UNL     1      -3.992  -2.153  -5.498  0.00  0.00    +0.021 A 
ATOM     29  C   UNL     1      -3.158  -2.139  -4.400  0.00  0.00    +0.014 A 
ATOM     30 CL   UNL     1      -6.029  -1.218  -7.016  0.00  0.00    -0.084 Cl
ENDBRANCH  21  24
ENDBRANCH  19  20
BRANCH  19  32
ATOM     31  C   UNL     1      -0.780   2.044  -0.713  0.00  0.00    +0.009 C 
ATOM     32  C   UNL     1      -0.439   0.577  -0.444  0.00  0.00    +0.012 C 
ATOM     33  C   UNL     1       0.532   0.488   0.736  0.00  0.00    +0.009 C 
ENDBRANCH  19  32
ENDBRANCH   1  19
TORSDOF 5
