REMARK  Name = ZINC53165525
REMARK  4 active torsions:
REMARK  status: ('A' for Active; 'I' for Inactive)
REMARK    1  A    between atoms: C_3  and  O_8
REMARK    2  A    between atoms: C_6  and  O_7
REMARK    3  A    between atoms: O_8  and  C_9
REMARK    4  A    between atoms: C_10  and  N_17
REMARK                            x       y       z     vdW  Elec       q    Type
REMARK                         _______ _______ _______ _____ _____    ______ ____
ROOT
ATOM      1  C   UNL     1       4.711   1.404  -0.036  0.00  0.00    +0.196 A 
ATOM      2  C   UNL     1       5.314   1.032   1.157  0.00  0.00    +0.171 A 
ATOM      3  C   UNL     1       6.495   0.316   1.141  0.00  0.00    +0.039 A 
ATOM      4  C   UNL     1       7.079  -0.031  -0.062  0.00  0.00    +0.044 A 
ATOM      5  C   UNL     1       6.482   0.337  -1.256  0.00  0.00    +0.162 A 
ATOM      6  C   UNL     1       5.294   1.049  -1.245  0.00  0.00    +0.203 A 
ATOM      7  F   UNL     1       4.707   1.403  -2.409  0.00  0.00    -0.199 F 
ATOM      8  F   UNL     1       7.055  -0.003  -2.431  0.00  0.00    -0.202 F 
ENDROOT
BRANCH   2   9
ATOM      9  N   UNL     1       4.691   1.404   2.448  0.00  0.00    +0.060 N 
ATOM     10  O   UNL     1       5.216   1.081   3.488  0.00  0.00    -0.126 OA
ATOM     11  O   UNL     1       3.658   2.031   2.462  0.00  0.00    -0.126 OA
ENDBRANCH   2   9
BRANCH   1  12
ATOM     12  O   UNL     1       3.549   2.108  -0.021  0.00  0.00    -0.451 OA
BRANCH  12  15
ATOM     13  C   UNL     1      -0.017   1.383   0.010  0.00  0.00    +0.049 A 
ATOM     14  C   UNL     1       1.170   2.090   0.002  0.00  0.00    +0.050 A 
ATOM     15  C   UNL     1       2.381   1.413  -0.013  0.00  0.00    +0.129 A 
ATOM     16  C   UNL     1       2.399   0.025  -0.021  0.00  0.00    +0.050 A 
ATOM     17  C   UNL     1       1.212  -0.681  -0.013  0.00  0.00    +0.049 A 
ATOM     18  C   UNL     1       0.002  -0.004   0.002  0.00  0.00    +0.117 A 
BRANCH  18  19
ATOM     19  O   UNL     1      -1.166  -0.700   0.009  0.00  0.00    -0.507 OA
ATOM     20  H   UNL     1      -1.512  -0.896  -0.872  0.00  0.00    +0.292 HD
ENDBRANCH  18  19
ENDBRANCH  12  15
ENDBRANCH   1  12
TORSDOF 4
