REMARK  Name = ZINC39631893
REMARK  11 active torsions:
REMARK  status: ('A' for Active; 'I' for Inactive)
REMARK    1  A    between atoms: C_1  and  C_2
REMARK    2  A    between atoms: C_2  and  C_4
REMARK    3  A    between atoms: C_2  and  N_11
REMARK    4  A    between atoms: C_4  and  C_5
REMARK    5  A    between atoms: C_5  and  C_6
REMARK    6  A    between atoms: C_6  and  C_7
REMARK    7  A    between atoms: C_7  and  C_8
REMARK    8  A    between atoms: C_7  and  C_9
REMARK    9  A    between atoms: C_7  and  O_10
REMARK   10  A    between atoms: C_12  and  C_14
REMARK   11  A    between atoms: C_25  and  C_27
REMARK                            x       y       z     vdW  Elec       q    Type
REMARK                         _______ _______ _______ _____ _____    ______ ____
ROOT
ATOM      1  C   UNL     1       0.712  -1.094  -3.598  0.00  0.00    +0.100 C 
ATOM      2  C   UNL     1       1.732  -0.041  -4.085  0.00  0.00    +0.121 C 
ATOM      3  N   UNL     1       1.653  -0.098  -5.564  0.00  0.00    -0.297 N 
ATOM      4  C   UNL     1       0.209  -0.272  -5.849  0.00  0.00    +0.115 C 
ATOM      5  C   UNL     1      -0.287  -1.243  -4.759  0.00  0.00    -0.004 C 
ATOM      6  C   UNL     1      -1.689  -0.852  -4.303  0.00  0.00    -0.010 C 
ATOM      7  C   UNL     1      -2.674  -1.064  -5.457  0.00  0.00    -0.082 C 
ATOM      8  N   UNL     1      -2.647  -2.471  -5.873  0.00  0.00    +0.379 N 
ATOM      9  C   UNL     1      -1.320  -2.813  -6.397  0.00  0.00    -0.082 C 
ATOM     10  C   UNL     1      -0.278  -2.676  -5.283  0.00  0.00    -0.010 C 
ATOM     11  C   UNL     1       2.666  -0.012  -6.449  0.00  0.00    +0.260 C 
ATOM     12  O   UNL     1       2.439  -0.077  -7.638  0.00  0.00    -0.271 OA
ATOM     13  H   UNL     1      -2.856  -3.059  -5.080  0.00  0.00    -0.086 HD
ATOM     14  H   UNL     1      -3.340  -2.621  -6.591  0.00  0.00    -0.086 HD
ENDROOT
BRANCH  11  15
ATOM     15  C   UNL     1       4.080   0.164  -5.960  0.00  0.00    +0.296 C 
ATOM     16  C   UNL     1       4.223   1.528  -5.270  0.00  0.00    +0.283 C 
ATOM     17  O   UNL     1       5.579   1.668  -4.832  0.00  0.00    -0.484 OA
ATOM     18  C   UNL     1       6.549   1.336  -5.728  0.00  0.00    +0.162 A 
ATOM     19  C   UNL     1       7.847   1.778  -5.520  0.00  0.00    +0.049 A 
ATOM     20  C   UNL     1       8.843   1.446  -6.419  0.00  0.00    +0.004 A 
ATOM     21  C   UNL     1       8.549   0.674  -7.527  0.00  0.00    +0.004 A 
ATOM     22  C   UNL     1       7.257   0.232  -7.741  0.00  0.00    +0.049 A 
ATOM     23  C   UNL     1       6.252   0.562  -6.843  0.00  0.00    +0.163 A 
ATOM     24  O   UNL     1       4.983   0.126  -7.071  0.00  0.00    -0.473 OA
ENDBRANCH  11  15
BRANCH   1  26
ATOM     25  N   UNL     1      -0.440  -1.494  -1.446  0.00  0.00    -0.312 N 
ATOM     26  C   UNL     1       0.006  -0.608  -2.358  0.00  0.00    +0.218 C 
ATOM     27  O   UNL     1      -0.160   0.580  -2.182  0.00  0.00    -0.275 OA
ATOM     28  H   UNL     1      -0.307  -2.444  -1.587  0.00  0.00    +0.149 HD
BRANCH  25  30
ATOM     29  C   UNL     1      -0.090  -0.664   0.828  0.00  0.00    +0.028 C 
ATOM     30  C   UNL     1      -1.125  -1.022  -0.241  0.00  0.00    +0.070 C 
BRANCH  30  31
ATOM     31  C   UNL     1      -2.045  -2.124   0.288  0.00  0.00    +0.022 C 
BRANCH  31  32
ATOM     32  C   UNL     1      -3.155  -2.394  -0.729  0.00  0.00    +0.005 C 
BRANCH  32  33
ATOM     33  C   UNL     1      -4.074  -3.497  -0.200  0.00  0.00    +0.034 C 
BRANCH  33  34
ATOM     34  C   UNL     1      -5.184  -3.768  -1.218  0.00  0.00    +0.061 C 
ATOM     35  C   UNL     1      -4.564  -4.213  -2.543  0.00  0.00    +0.041 C 
ATOM     36  C   UNL     1      -6.104  -4.870  -0.689  0.00  0.00    +0.041 C 
BRANCH  34  37
ATOM     37  O   UNL     1      -5.942  -2.574  -1.424  0.00  0.00    -0.389 OA
ATOM     38  H   UNL     1      -6.365  -2.233  -0.624  0.00  0.00    +0.210 HD
ENDBRANCH  34  37
ENDBRANCH  33  34
ENDBRANCH  32  33
ENDBRANCH  31  32
ENDBRANCH  30  31
ENDBRANCH  25  30
ENDBRANCH   1  26
TORSDOF 8
