REMARK  Name = ZINC12097257
REMARK  10 active torsions:
REMARK  status: ('A' for Active; 'I' for Inactive)
REMARK    1  A    between atoms: C_1  and  C_2
REMARK    2  A    between atoms: C_2  and  C_3
REMARK    3  A    between atoms: C_2  and  O_4
REMARK    4  A    between atoms: O_4  and  C_5
REMARK    5  A    between atoms: C_5  and  C_6
REMARK    6  A    between atoms: C_6  and  C_7
REMARK    7  A    between atoms: C_7  and  N_8
REMARK    8  A    between atoms: C_17  and  C_19
REMARK    9  A    between atoms: C_19  and  N_64
REMARK   10  A    between atoms: C_24  and  C_26
REMARK                            x       y       z     vdW  Elec       q    Type
REMARK                         _______ _______ _______ _____ _____    ______ ____
ROOT
ATOM      1  N   UNL     1       3.427   2.265  -0.018  0.00  0.00    -0.328 N 
ATOM      2  C   UNL     1       2.289   1.488  -0.012  0.00  0.00    +0.130 A 
ATOM      3  C   UNL     1       2.373   0.074  -0.020  0.00  0.00    +0.042 A 
ATOM      4  C   UNL     1       3.601  -0.598  -0.037  0.00  0.00    +0.033 A 
ATOM      5  C   UNL     1       3.620  -1.963  -0.045  0.00  0.00    +0.042 A 
ATOM      6  C   UNL     1       2.434  -2.694  -0.038  0.00  0.00    +0.022 A 
ATOM      7  C   UNL     1       1.224  -2.069  -0.021  0.00  0.00    +0.030 A 
ATOM      8  C   UNL     1       1.167  -0.668  -0.013  0.00  0.00    +0.076 A 
ATOM      9  N   UNL     1       0.002  -0.004   0.002  0.00  0.00    -0.234 NA
ATOM     10  C   UNL     1      -0.016   1.307   0.009  0.00  0.00    +0.115 A 
ATOM     11  N   UNL     1       1.085   2.043   0.003  0.00  0.00    -0.219 NA
ATOM     12 CL   UNL     1       5.142  -2.798  -0.066  0.00  0.00    -0.084 Cl
ATOM     13  H   UNL     1       4.302   1.845  -0.029  0.00  0.00    +0.147 HD
ENDROOT
BRANCH   1  14
ATOM     14  C   UNL     1       3.317   3.726  -0.009  0.00  0.00    +0.105 C 
BRANCH  14  15
ATOM     15  C   UNL     1       4.717   4.343  -0.019  0.00  0.00    +0.047 C 
BRANCH  15  16
ATOM     16  C   UNL     1       4.601   5.869  -0.009  0.00  0.00    +0.161 C 
BRANCH  16  17
ATOM     17  O   UNL     1       5.909   6.446  -0.018  0.00  0.00    -0.377 OA
BRANCH  17  19
ATOM     18  C   UNL     1       7.171   8.377   0.702  0.00  0.00    +0.037 C 
ATOM     19  C   UNL     1       5.914   7.875  -0.011  0.00  0.00    +0.112 C 
ATOM     20  C   UNL     1       5.902   8.393  -1.450  0.00  0.00    +0.037 C 
ENDBRANCH  17  19
ENDBRANCH  16  17
ENDBRANCH  15  16
ENDBRANCH  14  15
ENDBRANCH   1  14
BRANCH  10  21
ATOM     21  C   UNL     1      -1.350   2.009   0.019  0.00  0.00    -0.000 C 
BRANCH  21  27
ATOM     22  C   UNL     1      -0.673   2.757   2.220  0.00  0.00    -0.077 C 
ATOM     23  C   UNL     1      -1.109   2.836   3.685  0.00  0.00    -0.019 C 
ATOM     24  C   UNL     1      -2.333   3.748   3.799  0.00  0.00    -0.003 C 
ATOM     25  C   UNL     1      -3.451   3.204   2.906  0.00  0.00    -0.009 C 
ATOM     26  C   UNL     1      -2.947   3.113   1.464  0.00  0.00    -0.018 C 
ATOM     27  N   UNL     1      -1.784   2.202   1.418  0.00  0.00    +0.390 N 
ATOM     28  H   UNL     1      -2.057   1.294   1.811  0.00  0.00    -0.080 HD
BRANCH  26  29
ATOM     29  C   UNL     1      -4.038   2.559   0.585  0.00  0.00    +0.028 A 
ATOM     30  C   UNL     1      -4.994   3.410   0.062  0.00  0.00    +0.021 A 
ATOM     31  C   UNL     1      -5.993   2.890  -0.746  0.00  0.00    +0.003 A 
ATOM     32  C   UNL     1      -5.994   1.527  -1.000  0.00  0.00    +0.020 A 
ATOM     33  C   UNL     1      -5.006   0.738  -0.442  0.00  0.00    +0.111 A 
ATOM     34  N   UNL     1      -4.067   1.268   0.318  0.00  0.00    -0.262 NA
ENDBRANCH  26  29
ENDBRANCH  21  27
ENDBRANCH  10  21
TORSDOF 8
