REMARK  Name = ZINC24133843
REMARK  9 active torsions:
REMARK  status: ('A' for Active; 'I' for Inactive)
REMARK    1  A    between atoms: C_1  and  C_2
REMARK    2  A    between atoms: C_2  and  C_3
REMARK    3  A    between atoms: C_3  and  C_5
REMARK    4  A    between atoms: C_3  and  C_29
REMARK    5  A    between atoms: C_5  and  N_6
REMARK    6  A    between atoms: C_7  and  C_9
REMARK    7  A    between atoms: C_9  and  S_10
REMARK    8  A    between atoms: S_10  and  C_11
REMARK    9  A    between atoms: C_17  and  C_22
REMARK                            x       y       z     vdW  Elec       q    Type
REMARK                         _______ _______ _______ _____ _____    ______ ____
ROOT
ATOM      1  C   UNL     1      -5.205   0.209  -0.566  0.00  0.00    +0.170 A 
ATOM      2  N   UNL     1      -6.519   0.572  -0.628  0.00  0.00    -0.301 N 
ATOM      3  H   UNL     1      -6.799   1.634  -0.580  0.00  0.00    +0.171 HD
ATOM      4  C   UNL     1      -7.492  -0.350  -0.746  0.00  0.00    +0.261 A 
ATOM      5  O   UNL     1      -8.661  -0.010  -0.800  0.00  0.00    -0.267 OA
ATOM      6  C   UNL     1      -7.137  -1.733  -0.809  0.00  0.00    +0.080 A 
ATOM      7  C   UNL     1      -8.003  -2.902  -0.936  0.00  0.00    +0.004 A 
ATOM      8  C   UNL     1      -7.436  -4.130  -0.977  0.00  0.00    +0.056 A 
ATOM      9  S   UNL     1      -5.692  -3.787  -0.845  0.00  0.00    -0.076 S 
ATOM     10  C   UNL     1      -5.762  -2.017  -0.739  0.00  0.00    +0.117 A 
ATOM     11  N   UNL     1      -4.850  -1.058  -0.627  0.00  0.00    -0.216 NA
ENDROOT
BRANCH   7  12
ATOM     12  C   UNL     1      -9.474  -2.745  -1.020  0.00  0.00    -0.016 A 
ATOM     13  C   UNL     1     -10.149  -1.964  -0.084  0.00  0.00    +0.011 A 
ATOM     14  C   UNL     1     -11.519  -1.817  -0.169  0.00  0.00    +0.039 A 
ATOM     15  C   UNL     1     -12.224  -2.454  -1.177  0.00  0.00    +0.123 A 
ATOM     16  C   UNL     1     -11.558  -3.236  -2.107  0.00  0.00    +0.039 A 
ATOM     17  C   UNL     1     -10.189  -3.385  -2.033  0.00  0.00    +0.011 A 
ATOM     18  F   UNL     1     -13.566  -2.312  -1.254  0.00  0.00    -0.205 F 
ENDBRANCH   7  12
BRANCH   1  19
ATOM     19  S   UNL     1      -3.966   1.452  -0.411  0.00  0.00    -0.078 S 
BRANCH  19  20
ATOM     20  C   UNL     1      -2.482   0.416  -0.380  0.00  0.00    +0.173 C 
BRANCH  20  22
ATOM     21  N   UNL     1      -0.035   0.732  -0.205  0.00  0.00    -0.314 N 
ATOM     22  C   UNL     1      -1.262   1.290  -0.249  0.00  0.00    +0.223 C 
ATOM     23  O   UNL     1      -1.383   2.495  -0.183  0.00  0.00    -0.275 OA
ATOM     24  H   UNL     1       0.074  -0.361  -0.261  0.00  0.00    +0.149 HD
BRANCH  21  25
ATOM     25  C   UNL     1       1.152   1.582  -0.084  0.00  0.00    +0.112 C 
BRANCH  25  26
ATOM     26  C   UNL     1       2.393   0.703   0.084  0.00  0.00    +0.036 C 
BRANCH  26  27
ATOM     27  C   UNL     1       3.626   1.569   0.075  0.00  0.00    -0.043 A 
ATOM     28  C   UNL     1       3.782   2.560   1.027  0.00  0.00    +0.004 A 
ATOM     29  C   UNL     1       4.915   3.352   1.021  0.00  0.00    +0.000 A 
ATOM     30  C   UNL     1       5.889   3.158   0.059  0.00  0.00    +0.000 A 
ATOM     31  C   UNL     1       5.731   2.171  -0.895  0.00  0.00    +0.000 A 
ATOM     32  C   UNL     1       4.599   1.376  -0.887  0.00  0.00    +0.004 A 
ENDBRANCH  26  27
BRANCH  26  34
ATOM     33  C   UNL     1       3.483  -1.025   1.522  0.00  0.00    +0.004 C 
ATOM     34  C   UNL     1       2.308  -0.051   1.413  0.00  0.00    +0.006 C 
ENDBRANCH  26  34
ENDBRANCH  25  26
ENDBRANCH  21  25
ENDBRANCH  20  22
ENDBRANCH  19  20
ENDBRANCH   1  19
TORSDOF 8
