REMARK  Name = ZINC08892399
REMARK  9 active torsions:
REMARK  status: ('A' for Active; 'I' for Inactive)
REMARK    1  A    between atoms: C_1  and  C_2
REMARK    2  A    between atoms: C_2  and  C_3
REMARK    3  A    between atoms: C_3  and  O_4
REMARK    4  A    between atoms: O_4  and  C_5
REMARK    5  A    between atoms: C_5  and  C_7
REMARK    6  A    between atoms: C_8  and  C_39
REMARK    7  A    between atoms: C_12  and  C_14
REMARK    8  A    between atoms: C_19  and  N_20
REMARK    9  A    between atoms: C_29  and  C_32
REMARK                            x       y       z     vdW  Elec       q    Type
REMARK                         _______ _______ _______ _____ _____    ______ ____
ROOT
ATOM      1  C   UNL     1       0.458   2.651   1.626  0.00  0.00    +0.154 C 
ATOM      2  C   UNL     1       1.096   3.804   1.362  0.00  0.00    +0.031 C 
ATOM      3  N   UNL     1       0.609   4.989   1.839  0.00  0.00    -0.260 NA
ATOM      4  C   UNL     1      -0.696   5.098   2.238  0.00  0.00    +0.049 C 
ATOM      5  C   UNL     1      -1.409   3.994   2.553  0.00  0.00    +0.025 C 
ATOM      6  C   UNL     1      -0.789   2.623   2.459  0.00  0.00    +0.076 C 
ATOM      7  C   UNL     1      -2.748   4.091   2.972  0.00  0.00    +0.162 C 
ATOM      8  O   UNL     1      -3.367   3.079   3.228  0.00  0.00    -0.292 OA
ATOM      9  C   UNL     1      -3.426   5.427   3.107  0.00  0.00    +0.088 C 
ATOM     10  C   UNL     1      -2.372   6.491   3.432  0.00  0.00    +0.032 C 
ATOM     11  C   UNL     1      -1.308   6.472   2.333  0.00  0.00    +0.064 C 
ATOM     12  C   UNL     1       2.356   3.790   0.536  0.00  0.00    +0.061 C 
ENDROOT
BRANCH   6  13
ATOM     13  C   UNL     1      -0.440   2.141   3.844  0.00  0.00    -0.005 A 
ATOM     14  C   UNL     1       0.360   2.916   4.663  0.00  0.00    +0.056 A 
ATOM     15  C   UNL     1       0.681   2.476   5.936  0.00  0.00    +0.167 A 
ATOM     16  C   UNL     1       0.195   1.251   6.388  0.00  0.00    +0.168 A 
ATOM     17  C   UNL     1      -0.606   0.480   5.562  0.00  0.00    +0.082 A 
ATOM     18  C   UNL     1      -0.926   0.928   4.294  0.00  0.00    +0.134 A 
ATOM     19  O   UNL     1       0.647   1.045   7.660  0.00  0.00    -0.453 OA
ATOM     20  C   UNL     1       1.744   1.962   7.831  0.00  0.00    +0.466 C 
ATOM     21  O   UNL     1       1.436   3.037   6.925  0.00  0.00    -0.453 OA
BRANCH  18  22
ATOM     22  N   UNL     1      -1.788   0.106   3.416  0.00  0.00    +0.057 N 
ATOM     23  O   UNL     1      -1.585  -1.091   3.311  0.00  0.00    -0.126 OA
ATOM     24  O   UNL     1      -2.700   0.625   2.798  0.00  0.00    -0.126 OA
ENDBRANCH  18  22
ENDBRANCH   6  13
BRANCH  10  25
ATOM     25  C   UNL     1      -3.022   7.849   3.484  0.00  0.00    -0.043 A 
ATOM     26  C   UNL     1      -3.680   8.344   2.374  0.00  0.00    +0.005 A 
ATOM     27  C   UNL     1      -4.282   9.587   2.423  0.00  0.00    +0.020 A 
ATOM     28  C   UNL     1      -4.216  10.342   3.581  0.00  0.00    +0.041 A 
ATOM     29  C   UNL     1      -3.552   9.848   4.691  0.00  0.00    +0.020 A 
ATOM     30  C   UNL     1      -2.956   8.603   4.642  0.00  0.00    +0.005 A 
ATOM     31 CL   UNL     1      -4.965  11.906   3.642  0.00  0.00    -0.084 Cl
ENDBRANCH  10  25
BRANCH   1  32
ATOM     32  C   UNL     1       0.974   1.439   1.111  0.00  0.00    +0.317 C 
ATOM     33  O   UNL     1       1.759   1.458   0.181  0.00  0.00    -0.250 OA
BRANCH  32  34
ATOM     34  O   UNL     1       0.596   0.261   1.650  0.00  0.00    -0.464 OA
BRANCH  34  35
ATOM     35  C   UNL     1       1.156  -0.924   1.080  0.00  0.00    +0.232 C 
BRANCH  35  37
ATOM     36  C   UNL     1       1.215  -3.418   1.206  0.00  0.00    +0.007 C 
ATOM     37  C   UNL     1       0.615  -2.150   1.817  0.00  0.00    +0.038 C 
ENDBRANCH  35  37
ENDBRANCH  34  35
ENDBRANCH  32  34
ENDBRANCH   1  32
TORSDOF 7
