REMARK  Name = ZINC39918937
REMARK  5 active torsions:
REMARK  status: ('A' for Active; 'I' for Inactive)
REMARK    1  A    between atoms: C_1  and  C_2
REMARK    2  A    between atoms: C_11  and  N_33
REMARK    3  A    between atoms: C_12  and  C_31
REMARK    4  A    between atoms: N_20  and  C_23
REMARK    5  A    between atoms: C_23  and  C_24
REMARK                            x       y       z     vdW  Elec       q    Type
REMARK                         _______ _______ _______ _____ _____    ______ ____
ROOT
ATOM      1  C   UNL     1      -0.018   1.503   0.010  0.00  0.00    +0.063 C 
ATOM      2  C   UNL     1       0.002  -0.004   0.002  0.00  0.00    +0.034 C 
ATOM      3  N   UNL     1       0.005  -0.644  -1.147  0.00  0.00    -0.185 NA
ATOM      4  C   UNL     1       0.033  -1.966  -1.230  0.00  0.00    +0.248 C 
ATOM      5  O   UNL     1       0.006  -2.479  -2.332  0.00  0.00    -0.273 OA
ATOM      6  C   UNL     1       0.096  -2.857  -0.027  0.00  0.00    +0.167 C 
ATOM      7  C   UNL     1       0.043  -2.043   1.244  0.00  0.00    +0.122 C 
ATOM      8  C   UNL     1       0.023  -0.697   1.216  0.00  0.00    +0.063 C 
ATOM      9  O   UNL     1       0.019  -2.717   2.415  0.00  0.00    -0.445 OA
ATOM     10  C   UNL     1      -0.746  -3.830   2.465  0.00  0.00    +0.199 C 
ATOM     11  C   UNL     1      -1.283  -4.392   1.359  0.00  0.00    +0.107 C 
ATOM     12  C   UNL     1      -1.099  -3.812  -0.012  0.00  0.00    +0.131 C 
ATOM     13  C   UNL     1      -0.928  -4.894  -1.032  0.00  0.00    -0.005 A 
ATOM     14  C   UNL     1       0.025  -5.879  -1.168  0.00  0.00    +0.007 A 
ATOM     15  C   UNL     1      -0.109  -6.742  -2.250  0.00  0.00    +0.000 A 
ATOM     16  C   UNL     1      -1.151  -6.615  -3.146  0.00  0.00    +0.002 A 
ATOM     17  C   UNL     1      -2.115  -5.627  -3.015  0.00  0.00    +0.024 A 
ATOM     18  C   UNL     1      -1.991  -4.754  -1.933  0.00  0.00    +0.041 A 
ATOM     19  N   UNL     1      -2.798  -3.692  -1.564  0.00  0.00    -0.266 N 
ATOM     20  C   UNL     1      -2.351  -3.081  -0.447  0.00  0.00    +0.237 C 
ATOM     21  O   UNL     1      -2.856  -2.126   0.105  0.00  0.00    -0.274 OA
ENDROOT
BRANCH  10  22
ATOM     22  N   UNL     1      -0.986  -4.412   3.685  0.00  0.00    -0.328 N 
ATOM     23  H   UNL     1      -0.609  -4.024   4.490  0.00  0.00    +0.145 HD
ATOM     24  H   UNL     1      -1.532  -5.212   3.741  0.00  0.00    +0.145 HD
ENDBRANCH  10  22
BRANCH  11  25
ATOM     25  C   UNL     1      -2.061  -5.586   1.504  0.00  0.00    +0.101 C 
ATOM     26  N   UNL     1      -2.679  -6.532   1.618  0.00  0.00    -0.191 NA
ENDBRANCH  11  25
BRANCH  19  27
ATOM     27  C   UNL     1      -3.995  -3.279  -2.299  0.00  0.00    +0.148 C 
BRANCH  27  28
ATOM     28  C   UNL     1      -5.196  -4.012  -1.758  0.00  0.00    -0.028 A 
ATOM     29  C   UNL     1      -5.561  -5.232  -2.296  0.00  0.00    +0.005 A 
ATOM     30  C   UNL     1      -6.662  -5.905  -1.799  0.00  0.00    +0.002 A 
ATOM     31  C   UNL     1      -7.398  -5.358  -0.765  0.00  0.00    +0.020 A 
ATOM     32  C   UNL     1      -7.033  -4.138  -0.226  0.00  0.00    +0.041 A 
ATOM     33  C   UNL     1      -5.927  -3.467  -0.719  0.00  0.00    +0.025 A 
ATOM     34 CL   UNL     1      -7.957  -3.450   1.073  0.00  0.00    -0.084 Cl
ENDBRANCH  27  28
ENDBRANCH  19  27
TORSDOF 4
