REMARK  Name = ZINC00958604
REMARK  8 active torsions:
REMARK  status: ('A' for Active; 'I' for Inactive)
REMARK    1  A    between atoms: C_1  and  C_2
REMARK    2  A    between atoms: C_2  and  C_37
REMARK    3  A    between atoms: C_6  and  C_26
REMARK    4  A    between atoms: C_13  and  S_17
REMARK    5  A    between atoms: S_17  and  C_18
REMARK    6  A    between atoms: C_18  and  C_19
REMARK    7  A    between atoms: C_31  and  O_32
REMARK    8  A    between atoms: O_32  and  C_33
REMARK                            x       y       z     vdW  Elec       q    Type
REMARK                         _______ _______ _______ _____ _____    ______ ____
ROOT
ATOM      1  C   UNL     1      -1.053   8.548   2.820  0.00  0.00    +0.011 C 
ATOM      2  C   UNL     1      -1.708   7.331   3.476  0.00  0.00    -0.023 C 
ATOM      3  C   UNL     1      -2.737   6.722   2.521  0.00  0.00    +0.058 C 
ATOM      4  C   UNL     1      -2.047   6.263   1.259  0.00  0.00    +0.017 C 
ATOM      5  C   UNL     1      -0.772   5.826   1.285  0.00  0.00    +0.024 C 
ATOM      6  C   UNL     1      -0.082   5.350   0.031  0.00  0.00    +0.096 C 
ATOM      7  C   UNL     1      -0.792   5.836  -1.197  0.00  0.00    +0.069 A 
ATOM      8  C   UNL     1      -0.141   5.842  -2.436  0.00  0.00    +0.258 A 
ATOM      9  O   UNL     1       1.012   5.454  -2.534  0.00  0.00    -0.267 OA
ATOM     10  N   UNL     1      -0.812   6.285  -3.520  0.00  0.00    -0.302 N 
ATOM     11  H   UNL     1      -0.377   6.298  -4.387  0.00  0.00    +0.171 HD
ATOM     12  C   UNL     1      -2.099   6.713  -3.400  0.00  0.00    +0.171 A 
ATOM     13  N   UNL     1      -2.717   6.711  -2.236  0.00  0.00    -0.208 NA
ATOM     14  C   UNL     1      -2.099   6.287  -1.128  0.00  0.00    +0.135 A 
ATOM     15  N   UNL     1      -2.754   6.300   0.088  0.00  0.00    -0.302 N 
ATOM     16  C   UNL     1      -0.038   5.802   2.486  0.00  0.00    +0.162 C 
ATOM     17  O   UNL     1       1.106   5.392   2.477  0.00  0.00    -0.292 OA
ATOM     18  C   UNL     1      -0.643   6.272   3.780  0.00  0.00    +0.086 C 
ATOM     19  C   UNL     1      -2.398   7.755   4.774  0.00  0.00    +0.011 C 
ATOM     20  H   UNL     1      -3.723   6.334   0.112  0.00  0.00    +0.153 HD
ENDROOT
BRANCH   6  21
ATOM     21  C   UNL     1      -0.057   3.844   0.023  0.00  0.00    +0.006 A 
ATOM     22  C   UNL     1      -1.242   3.132   0.031  0.00  0.00    +0.008 A 
ATOM     23  C   UNL     1      -1.220   1.750   0.017  0.00  0.00    +0.001 A 
ATOM     24  C   UNL     1      -0.013   1.076   0.008  0.00  0.00    +0.004 A 
ATOM     25  C   UNL     1       1.174   1.782   0.000  0.00  0.00    +0.046 A 
ATOM     26  C   UNL     1       1.155   3.169   0.008  0.00  0.00    +0.124 A 
BRANCH  26  27
ATOM     27  O   UNL     1       2.321   3.867   0.000  0.00  0.00    -0.495 OA
ATOM     28  C   UNL     1       3.531   3.107  -0.016  0.00  0.00    +0.277 C 
ENDBRANCH  26  27
ENDBRANCH   6  21
BRANCH  12  29
ATOM     29  S   UNL     1      -2.956   7.284  -4.830  0.00  0.00    -0.083 S 
BRANCH  29  30
ATOM     30  C   UNL     1      -4.554   7.705  -4.091  0.00  0.00    +0.114 C 
BRANCH  30  31
ATOM     31  C   UNL     1      -5.478   8.231  -5.159  0.00  0.00    -0.019 A 
ATOM     32  C   UNL     1      -5.516   9.585  -5.436  0.00  0.00    +0.006 A 
ATOM     33  C   UNL     1      -6.360  10.067  -6.418  0.00  0.00    +0.000 A 
ATOM     34  C   UNL     1      -7.175   9.196  -7.119  0.00  0.00    +0.001 A 
ATOM     35  C   UNL     1      -7.141   7.843  -6.840  0.00  0.00    +0.020 A 
ATOM     36  C   UNL     1      -6.293   7.359  -5.859  0.00  0.00    +0.045 A 
ATOM     37 CL   UNL     1      -6.251   5.660  -5.508  0.00  0.00    -0.083 Cl
ENDBRANCH  30  31
ENDBRANCH  29  30
ENDBRANCH  12  29
TORSDOF 5
