REMARK  Name = ZINC63731177
REMARK  9 active torsions:
REMARK  status: ('A' for Active; 'I' for Inactive)
REMARK    1  A    between atoms: C_1  and  S_2
REMARK    2  A    between atoms: S_2  and  C_3
REMARK    3  A    between atoms: C_3  and  C_4
REMARK    4  A    between atoms: C_4  and  C_5
REMARK    5  A    between atoms: C_5  and  C_7
REMARK    6  A    between atoms: C_5  and  N_16
REMARK    7  A    between atoms: C_17  and  C_19
REMARK    8  A    between atoms: C_19  and  N_20
REMARK    9  A    between atoms: C_21  and  C_23
REMARK                            x       y       z     vdW  Elec       q    Type
REMARK                         _______ _______ _______ _____ _____    ______ ____
ROOT
ATOM      1  C   UNL     1      -3.356  -2.382   0.021  0.00  0.00    +0.116 C 
ENDROOT
BRANCH   1   2
ATOM      2  C   UNL     1      -3.482  -3.902   0.140  0.00  0.00    +0.195 C 
ATOM      3  N   UNL     1      -2.916  -4.356   1.417  0.00  0.00    -0.362 N 
ATOM      4  C   UNL     1      -3.873  -4.933   2.085  0.00  0.00    +0.060 A 
ATOM      5  C   UNL     1      -3.922  -5.575   3.405  0.00  0.00    +0.027 A 
ATOM      6  C   UNL     1      -5.083  -6.100   3.847  0.00  0.00    +0.002 A 
ATOM      7  C   UNL     1      -6.268  -6.061   3.091  0.00  0.00    +0.002 A 
ATOM      8  C   UNL     1      -6.333  -5.497   1.868  0.00  0.00    +0.027 A 
ATOM      9  C   UNL     1      -5.127  -4.892   1.285  0.00  0.00    +0.060 A 
ATOM     10  N   UNL     1      -4.897  -4.292   0.153  0.00  0.00    -0.362 N 
ATOM     11  H   UNL     1      -1.997  -4.247   1.708  0.00  0.00    +0.162 HD
ATOM     12  H   UNL     1      -5.543  -4.130  -0.553  0.00  0.00    +0.162 HD
ENDBRANCH   1   2
BRANCH   1  13
ATOM     13  N   UNL     1      -3.989  -1.935  -1.222  0.00  0.00    -0.307 N 
ATOM     14  C   UNL     1      -4.456  -0.675  -1.326  0.00  0.00    +0.231 C 
ATOM     15  O   UNL     1      -4.352   0.089  -0.390  0.00  0.00    -0.274 OA
ATOM     16  H   UNL     1      -4.073  -2.547  -1.971  0.00  0.00    +0.149 HD
BRANCH  14  17
ATOM     17  C   UNL     1      -5.107  -0.216  -2.605  0.00  0.00    +0.200 C 
BRANCH  17  18
ATOM     18  N   UNL     1      -5.525   1.181  -2.466  0.00  0.00    -0.300 N 
ATOM     19  C   UNL     1      -6.135   1.808  -3.492  0.00  0.00    +0.280 C 
ATOM     20  O   UNL     1      -6.338   1.213  -4.534  0.00  0.00    -0.267 OA
ATOM     21  H   UNL     1      -5.364   1.655  -1.635  0.00  0.00    +0.150 HD
BRANCH  19  22
ATOM     22  C   UNL     1      -6.553   3.205  -3.352  0.00  0.00    +0.191 A 
ATOM     23  C   UNL     1      -7.183   3.954  -4.306  0.00  0.00    +0.056 A 
ATOM     24  C   UNL     1      -7.394   5.223  -3.749  0.00  0.00    +0.058 A 
ATOM     25  C   UNL     1      -6.890   5.196  -2.494  0.00  0.00    +0.171 A 
ATOM     26  O   UNL     1      -6.390   3.976  -2.257  0.00  0.00    -0.444 OA
ATOM     27 BR   UNL     1      -6.898   6.640  -1.272  0.00  0.00    -0.008 Br
ENDBRANCH  19  22
ENDBRANCH  17  18
ENDBRANCH  14  17
ENDBRANCH   1  13
BRANCH   1  28
ATOM     28  C   UNL     1      -1.877  -1.992   0.009  0.00  0.00    +0.037 C 
BRANCH  28  29
ATOM     29  C   UNL     1      -1.752  -0.467   0.016  0.00  0.00    +0.071 C 
BRANCH  29  31
ATOM     30  C   UNL     1      -0.022   1.810   0.012  0.00  0.00    +0.084 C 
ATOM     31  S   UNL     1       0.002  -0.004   0.002  0.00  0.00    -0.164 S 
ENDBRANCH  29  31
ENDBRANCH  28  29
ENDBRANCH   1  28
TORSDOF 8
