REMARK  Name = ZINC59600481
REMARK  9 active torsions:
REMARK  status: ('A' for Active; 'I' for Inactive)
REMARK    1  A    between atoms: C_1  and  C_2
REMARK    2  A    between atoms: C_2  and  O_3
REMARK    3  A    between atoms: O_3  and  C_4
REMARK    4  A    between atoms: C_4  and  C_6
REMARK    5  A    between atoms: C_7  and  C_37
REMARK    6  A    between atoms: C_14  and  C_15
REMARK    7  A    between atoms: C_18  and  S_20
REMARK    8  A    between atoms: S_20  and  C_21
REMARK    9  A    between atoms: C_28  and  C_30
REMARK                            x       y       z     vdW  Elec       q    Type
REMARK                         _______ _______ _______ _____ _____    ______ ____
ROOT
ATOM      1  C   UNL     1      -2.762  -2.382  -0.011  0.00  0.00    +0.085 C 
ATOM      2  C   UNL     1      -2.950  -3.704  -0.308  0.00  0.00    +0.053 C 
ATOM      3  N   UNL     1      -4.171  -4.192  -0.476  0.00  0.00    -0.228 NA
ATOM      4  C   UNL     1      -5.279  -3.493  -0.381  0.00  0.00    +0.178 A 
ATOM      5  N   UNL     1      -5.310  -2.152  -0.091  0.00  0.00    -0.275 N 
ATOM      6  C   UNL     1      -6.506  -1.549  -0.021  0.00  0.00    +0.268 A 
ATOM      7  O   UNL     1      -6.609  -0.361   0.232  0.00  0.00    -0.266 OA
ATOM      8  C   UNL     1      -7.643  -2.359  -0.255  0.00  0.00    +0.084 A 
ATOM      9  C   UNL     1      -8.979  -2.014  -0.249  0.00  0.00    +0.066 C 
ATOM     10  S   UNL     1      -6.886  -3.944  -0.561  0.00  0.00    -0.046 S 
ATOM     11  C   UNL     1      -3.986  -1.505   0.123  0.00  0.00    +0.162 C 
ATOM     12  C   UNL     1      -1.757  -4.615  -0.445  0.00  0.00    +0.066 C 
ENDROOT
BRANCH  11  13
ATOM     13  C   UNL     1      -3.977  -0.903   1.505  0.00  0.00    -0.020 A 
ATOM     14  C   UNL     1      -4.405  -1.651   2.586  0.00  0.00    +0.009 A 
ATOM     15  C   UNL     1      -4.396  -1.100   3.854  0.00  0.00    +0.039 A 
ATOM     16  C   UNL     1      -3.958   0.200   4.041  0.00  0.00    +0.123 A 
ATOM     17  C   UNL     1      -3.530   0.948   2.957  0.00  0.00    +0.039 A 
ATOM     18  C   UNL     1      -3.534   0.393   1.691  0.00  0.00    +0.009 A 
ATOM     19  F   UNL     1      -3.950   0.739   5.279  0.00  0.00    -0.205 F 
ENDBRANCH  11  13
BRANCH   9  20
ATOM     20  C   UNL     1      -9.958  -2.988  -0.511  0.00  0.00    +0.131 A 
ATOM     21  C   UNL     1     -11.327  -2.778  -0.541  0.00  0.00    +0.050 A 
ATOM     22  C   UNL     1     -11.917  -4.008  -0.836  0.00  0.00    +0.057 A 
ATOM     23  C   UNL     1     -10.897  -4.922  -0.976  0.00  0.00    +0.167 A 
ATOM     24  O   UNL     1      -9.726  -4.292  -0.783  0.00  0.00    -0.449 OA
BRANCH  23  25
ATOM     25  S   UNL     1     -11.094  -6.632  -1.351  0.00  0.00    -0.052 S 
BRANCH  25  26
ATOM     26  C   UNL     1      -9.463  -7.287  -1.223  0.00  0.00    +0.016 A 
ATOM     27  C   UNL     1      -8.978  -7.711   0.008  0.00  0.00    +0.015 A 
ATOM     28  C   UNL     1      -7.700  -8.224   0.105  0.00  0.00    +0.001 A 
ATOM     29  C   UNL     1      -6.903  -8.317  -1.022  0.00  0.00    +0.000 A 
ATOM     30  C   UNL     1      -7.383  -7.896  -2.249  0.00  0.00    +0.001 A 
ATOM     31  C   UNL     1      -8.662  -7.388  -2.354  0.00  0.00    +0.015 A 
ENDBRANCH  25  26
ENDBRANCH  23  25
ENDBRANCH   9  20
BRANCH   1  32
ATOM     32  C   UNL     1      -1.473  -1.857   0.169  0.00  0.00    +0.339 C 
ATOM     33  O   UNL     1      -0.509  -2.602   0.188  0.00  0.00    -0.245 OA
BRANCH  32  34
ATOM     34  O   UNL     1      -1.301  -0.526   0.321  0.00  0.00    -0.462 OA
BRANCH  34  36
ATOM     35  C   UNL     1       0.034   1.461   0.655  0.00  0.00    +0.048 C 
ATOM     36  C   UNL     1       0.039  -0.061   0.500  0.00  0.00    +0.229 C 
ENDBRANCH  34  36
ENDBRANCH  32  34
ENDBRANCH   1  32
TORSDOF 7
