REMARK  Name = ZINC39684815
REMARK  7 active torsions:
REMARK  status: ('A' for Active; 'I' for Inactive)
REMARK    1  A    between atoms: C_3  and  C_35
REMARK    2  A    between atoms: C_6  and  C_7
REMARK    3  A    between atoms: C_7  and  N_8
REMARK    4  A    between atoms: C_9  and  C_11
REMARK    5  A    between atoms: C_22  and  C_24
REMARK    6  A    between atoms: C_27  and  O_30
REMARK    7  A    between atoms: O_30  and  C_31
REMARK                            x       y       z     vdW  Elec       q    Type
REMARK                         _______ _______ _______ _____ _____    ______ ____
ROOT
ATOM      1  C   UNL     1      -3.624  -1.442  -2.648  0.00  0.00    +0.100 C 
ATOM      2  C   UNL     1      -3.873  -0.262  -3.614  0.00  0.00    +0.121 C 
ATOM      3  N   UNL     1      -5.007  -0.704  -4.460  0.00  0.00    -0.296 N 
ATOM      4  C   UNL     1      -5.910  -1.415  -3.525  0.00  0.00    +0.115 C 
ATOM      5  C   UNL     1      -4.964  -2.196  -2.592  0.00  0.00    -0.004 C 
ATOM      6  C   UNL     1      -4.787  -3.625  -3.095  0.00  0.00    -0.010 C 
ATOM      7  C   UNL     1      -6.119  -4.371  -2.976  0.00  0.00    -0.082 C 
ATOM      8  N   UNL     1      -6.556  -4.375  -1.575  0.00  0.00    +0.379 N 
ATOM      9  C   UNL     1      -6.813  -3.001  -1.127  0.00  0.00    -0.082 C 
ATOM     10  C   UNL     1      -5.511  -2.197  -1.167  0.00  0.00    -0.010 C 
ATOM     11  C   UNL     1      -5.177  -0.504  -5.782  0.00  0.00    +0.247 C 
ATOM     12  O   UNL     1      -4.283  -0.012  -6.443  0.00  0.00    -0.270 OA
ATOM     13  H   UNL     1      -7.402  -4.918  -1.489  0.00  0.00    -0.086 HD
ATOM     14  H   UNL     1      -5.836  -4.786  -1.000  0.00  0.00    -0.086 HD
ENDROOT
BRANCH  11  15
ATOM     15  C   UNL     1      -6.449  -0.884  -6.428  0.00  0.00    +0.037 A 
ATOM     16  C   UNL     1      -7.607  -1.032  -5.661  0.00  0.00    +0.016 A 
ATOM     17  C   UNL     1      -8.792  -1.386  -6.267  0.00  0.00    +0.047 A 
ATOM     18  C   UNL     1      -8.836  -1.597  -7.640  0.00  0.00    +0.130 A 
ATOM     19  C   UNL     1      -7.686  -1.451  -8.407  0.00  0.00    +0.047 A 
ATOM     20  C   UNL     1      -6.499  -1.092  -7.809  0.00  0.00    +0.016 A 
BRANCH  18  21
ATOM     21  O   UNL     1     -10.006  -1.947  -8.234  0.00  0.00    -0.406 OA
BRANCH  21  22
ATOM     22  C   UNL     1      -9.980  -2.148  -9.648  0.00  0.00    +0.575 C 
ATOM     23  F   UNL     1      -9.080  -3.173  -9.957  0.00  0.00    -0.133 F 
ATOM     24  F   UNL     1     -11.259  -2.500 -10.092  0.00  0.00    -0.133 F 
ATOM     25  F   UNL     1      -9.576  -0.967 -10.280  0.00  0.00    -0.133 F 
ENDBRANCH  21  22
ENDBRANCH  18  21
ENDBRANCH  11  15
BRANCH   1  27
ATOM     26  N   UNL     1      -2.441  -1.657  -0.486  0.00  0.00    -0.311 N 
ATOM     27  C   UNL     1      -3.252  -0.930  -1.280  0.00  0.00    +0.218 C 
ATOM     28  O   UNL     1      -3.683   0.136  -0.893  0.00  0.00    -0.275 OA
ATOM     29  H   UNL     1      -2.097  -2.510  -0.795  0.00  0.00    +0.149 HD
BRANCH  26  30
ATOM     30  C   UNL     1      -2.080  -1.160   0.844  0.00  0.00    +0.139 C 
BRANCH  30  36
ATOM     31  C   UNL     1       0.200  -2.052   1.363  0.00  0.00    +0.006 A 
ATOM     32  C   UNL     1       1.037  -2.957   1.981  0.00  0.00    +0.019 A 
ATOM     33  C   UNL     1       0.499  -3.978   2.767  0.00  0.00    +0.052 A 
ATOM     34  C   UNL     1      -0.886  -4.074   2.922  0.00  0.00    +0.019 A 
ATOM     35  C   UNL     1      -1.712  -3.162   2.299  0.00  0.00    +0.006 A 
ATOM     36  C   UNL     1      -1.171  -2.153   1.521  0.00  0.00    -0.030 A 
BRANCH  33  37
ATOM     37  C   UNL     1       1.362  -4.921   3.411  0.00  0.00    +0.099 C 
ATOM     38  N   UNL     1       2.047  -5.670   3.922  0.00  0.00    -0.191 NA
ENDBRANCH  33  37
ENDBRANCH  30  36
ENDBRANCH  26  30
ENDBRANCH   1  27
TORSDOF 7
