REMARK  Name = ZINC17114065
REMARK  3 active torsions:
REMARK  status: ('A' for Active; 'I' for Inactive)
REMARK    1  A    between atoms: C_1  and  C_2
REMARK    2  A    between atoms: C_14  and  C_15
REMARK    3  A    between atoms: N_17  and  N_18
REMARK                            x       y       z     vdW  Elec       q    Type
REMARK                         _______ _______ _______ _____ _____    ______ ____
ROOT
ATOM      1  C   UNL     1      -4.794   2.790   0.065  0.00  0.00    +0.296 C 
ATOM      2  O   UNL     1      -5.421   3.833   0.076  0.00  0.00    -0.265 OA
ATOM      3  N   UNL     1      -5.448   1.611   0.064  0.00  0.00    -0.217 N 
ATOM      4  H   UNL     1      -4.948   0.779   0.055  0.00  0.00    +0.174 HD
ENDROOT
BRANCH   1  18
ATOM      5  C   UNL     1      -3.050   5.361   0.064  0.00  0.00    +0.048 C 
ATOM      6  C   UNL     1      -2.558   3.937   0.050  0.00  0.00    +0.008 A 
ATOM      7  C   UNL     1      -1.206   3.510   0.034  0.00  0.00    +0.024 A 
ATOM      8  C   UNL     1       0.024   4.199   0.026  0.00  0.00    +0.012 A 
ATOM      9  C   UNL     1       1.196   3.523   0.011  0.00  0.00    +0.009 A 
ATOM     10  C   UNL     1       1.206   2.112   0.002  0.00  0.00    -0.014 A 
ATOM     11  C   UNL     1       2.415   1.400  -0.014  0.00  0.00    +0.008 A 
ATOM     12  C   UNL     1       2.397   0.037  -0.021  0.00  0.00    +0.001 A 
ATOM     13  C   UNL     1       1.195  -0.663  -0.013  0.00  0.00    +0.001 A 
ATOM     14  C   UNL     1       0.002  -0.004   0.002  0.00  0.00    +0.012 A 
ATOM     15  C   UNL     1      -0.017   1.399   0.010  0.00  0.00    +0.025 A 
ATOM     16  C   UNL     1      -1.236   2.111   0.031  0.00  0.00    +0.144 A 
ATOM     17  O   UNL     1      -2.525   1.728   0.036  0.00  0.00    -0.449 OA
ATOM     18  C   UNL     1      -3.326   2.815   0.051  0.00  0.00    +0.195 A 
ENDBRANCH   1  18
BRANCH   3  19
ATOM     19  N   UNL     1      -6.849   1.587   0.077  0.00  0.00    -0.137 N 
ATOM     20  C   UNL     1      -7.612   1.291  -0.996  0.00  0.00    +0.263 C 
ATOM     21  O   UNL     1      -7.231   1.006  -2.111  0.00  0.00    -0.271 OA
ATOM     22  C   UNL     1      -9.041   1.389  -0.513  0.00  0.00    +0.114 C 
ATOM     23  C   UNL     1      -9.742   0.042  -0.651  0.00  0.00    +0.035 C 
ATOM     24  C   UNL     1     -11.177   0.155  -0.132  0.00  0.00    +0.003 C 
ATOM     25  C   UNL     1     -11.926   1.222  -0.933  0.00  0.00    +0.000 C 
ATOM     26  C   UNL     1     -11.225   2.572  -0.765  0.00  0.00    +0.003 C 
ATOM     27  C   UNL     1      -9.790   2.469  -1.287  0.00  0.00    +0.035 C 
ATOM     28  N   UNL     1      -8.915   1.762   0.901  0.00  0.00    -0.284 N 
ATOM     29  C   UNL     1      -7.596   1.849   1.156  0.00  0.00    +0.326 C 
ATOM     30  O   UNL     1      -7.135   2.136   2.244  0.00  0.00    -0.251 OA
ATOM     31  H   UNL     1      -9.639   1.912   1.529  0.00  0.00    +0.151 HD
ENDBRANCH   3  19
TORSDOF 2
