REMARK  Name = ZINC33604773
REMARK  9 active torsions:
REMARK  status: ('A' for Active; 'I' for Inactive)
REMARK    1  A    between atoms: C_1  and  C_2
REMARK    2  A    between atoms: C_7  and  N_8
REMARK    3  A    between atoms: C_13  and  C_31
REMARK    4  A    between atoms: C_16  and  C_21
REMARK    5  A    between atoms: C_16  and  C_28
REMARK    6  A    between atoms: C_21  and  C_22
REMARK    7  A    between atoms: C_34  and  O_39
REMARK    8  A    between atoms: C_35  and  O_37
REMARK    9  A    between atoms: O_37  and  C_38
REMARK                            x       y       z     vdW  Elec       q    Type
REMARK                         _______ _______ _______ _____ _____    ______ ____
ROOT
ATOM      1  N   UNL     1       0.930   0.265   2.428  0.00  0.00    -0.210 N 
ATOM      2  C   UNL     1      -0.362   0.307   2.889  0.00  0.00    +0.229 C 
ATOM      3  O   UNL     1      -1.327  -0.275   2.441  0.00  0.00    -0.275 OA
ATOM      4  C   UNL     1      -0.319   1.195   4.024  0.00  0.00    +0.077 C 
ATOM      5  C   UNL     1      -1.082   1.524   5.240  0.00  0.00    -0.027 C 
ATOM      6  N   UNL     1      -0.131   2.428   5.974  0.00  0.00    +0.395 N 
ATOM      7  C   UNL     1       1.249   2.131   5.487  0.00  0.00    +0.048 C 
ATOM      8  C   UNL     1       1.102   0.864   4.632  0.00  0.00    +0.086 C 
ATOM      9  C   UNL     1       1.825   0.792   3.316  0.00  0.00    +0.229 C 
ATOM     10  O   UNL     1       2.966   1.133   3.089  0.00  0.00    -0.275 OA
ATOM     11  H   UNL     1      -0.361   3.392   5.784  0.00  0.00    -0.083 HD
ATOM     12  H   UNL     1      -0.189   2.252   6.966  0.00  0.00    -0.083 HD
ENDROOT
BRANCH   1  19
ATOM     13  C   UNL     1       0.990   2.013   0.182  0.00  0.00    +0.045 C 
ATOM     14  C   UNL     1       1.335   0.551   0.062  0.00  0.00    -0.029 A 
ATOM     15  C   UNL     1       1.699   0.025  -1.162  0.00  0.00    +0.005 A 
ATOM     16  C   UNL     1       2.017  -1.316  -1.274  0.00  0.00    +0.000 A 
ATOM     17  C   UNL     1       1.971  -2.135  -0.160  0.00  0.00    +0.002 A 
ATOM     18  C   UNL     1       1.608  -1.615   1.067  0.00  0.00    +0.024 A 
ATOM     19  C   UNL     1       1.294  -0.268   1.183  0.00  0.00    +0.047 A 
ENDBRANCH   1  19
BRANCH   5  20
ATOM     20  C   UNL     1      -2.357   2.249   4.896  0.00  0.00    -0.057 A 
ATOM     21  C   UNL     1      -2.309   3.560   4.460  0.00  0.00    +0.006 A 
ATOM     22  C   UNL     1      -3.476   4.230   4.143  0.00  0.00    +0.049 A 
ATOM     23  C   UNL     1      -4.698   3.587   4.260  0.00  0.00    +0.158 A 
ATOM     24  C   UNL     1      -4.747   2.267   4.698  0.00  0.00    +0.161 A 
ATOM     25  C   UNL     1      -3.573   1.600   5.010  0.00  0.00    +0.051 A 
BRANCH  24  26
ATOM     26  O   UNL     1      -5.943   1.631   4.815  0.00  0.00    -0.491 OA
ATOM     27  C   UNL     1      -5.917   0.277   5.271  0.00  0.00    +0.277 C 
ENDBRANCH  24  26
BRANCH  23  28
ATOM     28  O   UNL     1      -5.847   4.244   3.949  0.00  0.00    -0.503 OA
ATOM     29  H   UNL     1      -6.112   4.155   3.023  0.00  0.00    +0.292 HD
ENDBRANCH  23  28
ENDBRANCH   5  20
BRANCH   7  30
ATOM     30  C   UNL     1       2.166   1.857   6.652  0.00  0.00    +0.346 C 
ATOM     31  O   UNL     1       1.740   1.925   7.792  0.00  0.00    -0.248 OA
ATOM     32  O   UNL     1       3.333   1.567   6.453  0.00  0.00    -0.248 OA
ENDBRANCH   7  30
BRANCH   7  33
ATOM     33  C   UNL     1       1.781   3.301   4.657  0.00  0.00    +0.003 C 
BRANCH  33  34
ATOM     34  C   UNL     1       2.083   4.485   5.579  0.00  0.00    -0.012 C 
ATOM     35  C   UNL     1       0.791   4.949   6.253  0.00  0.00    +0.003 C 
ATOM     36  C   UNL     1       1.093   6.132   7.175  0.00  0.00    +0.000 C 
ATOM     37  C   UNL     1       1.681   7.281   6.353  0.00  0.00    +0.000 C 
ATOM     38  C   UNL     1       2.974   6.817   5.679  0.00  0.00    +0.000 C 
ATOM     39  C   UNL     1       2.672   5.633   4.758  0.00  0.00    +0.003 C 
ENDBRANCH  33  34
ENDBRANCH   7  33
TORSDOF 7
