REMARK  Name = ZINC58491236
REMARK  8 active torsions:
REMARK  status: ('A' for Active; 'I' for Inactive)
REMARK    1  A    between atoms: C_1  and  C_2
REMARK    2  A    between atoms: C_3  and  N_14
REMARK    3  A    between atoms: C_4  and  C_13
REMARK    4  A    between atoms: N_5  and  C_7
REMARK    5  A    between atoms: C_15  and  C_17
REMARK    6  A    between atoms: C_17  and  C_18
REMARK    7  A    between atoms: C_18  and  N_19
REMARK    8  A    between atoms: C_27  and  C_29
REMARK                            x       y       z     vdW  Elec       q    Type
REMARK                         _______ _______ _______ _____ _____    ______ ____
ROOT
ATOM      1  C   UNL     1       0.493   1.469  -4.124  0.00  0.00    +0.078 C 
ENDROOT
BRANCH   1   3
ATOM      2  N   UNL     1      -0.015  -0.279  -2.450  0.00  0.00    -0.283 N 
ATOM      3  C   UNL     1       0.604   0.882  -2.740  0.00  0.00    +0.215 C 
ATOM      4  O   UNL     1       1.249   1.456  -1.889  0.00  0.00    -0.276 OA
ATOM      5  H   UNL     1      -0.494  -0.761  -3.142  0.00  0.00    +0.155 HD
BRANCH   2   8
ATOM      6  C   UNL     1      -1.058   1.215   0.076  0.00  0.00    +0.069 C 
ATOM      7  C   UNL     1      -0.425  -0.151   0.018  0.00  0.00    +0.082 A 
ATOM      8  C   UNL     1       0.035  -0.794  -1.141  0.00  0.00    +0.078 A 
ATOM      9  C   UNL     1       0.535  -2.002  -0.775  0.00  0.00    +0.063 A 
ATOM     10  N   UNL     1       0.394  -2.114   0.573  0.00  0.00    -0.235 N 
ATOM     11  N   UNL     1      -0.205  -0.937   1.041  0.00  0.00    -0.170 NA
ATOM     12  C   UNL     1       1.137  -3.033  -1.696  0.00  0.00    +0.068 C 
BRANCH  10  13
ATOM     13  C   UNL     1       0.783  -3.209   1.356  0.00  0.00    +0.066 A 
ATOM     14  C   UNL     1       2.021  -3.804   1.154  0.00  0.00    +0.028 A 
ATOM     15  C   UNL     1       2.401  -4.883   1.927  0.00  0.00    +0.002 A 
ATOM     16  C   UNL     1       1.551  -5.372   2.902  0.00  0.00    +0.000 A 
ATOM     17  C   UNL     1       0.317  -4.781   3.106  0.00  0.00    +0.002 A 
ATOM     18  C   UNL     1      -0.067  -3.698   2.340  0.00  0.00    +0.028 A 
ENDBRANCH  10  13
ENDBRANCH   2   8
ENDBRANCH   1   3
BRANCH   1  19
ATOM     19  C   UNL     1       1.281   2.779  -4.187  0.00  0.00    -0.068 C 
BRANCH  19  20
ATOM     20  N   UNL     1       1.173   3.351  -5.536  0.00  0.00    +0.388 N 
ATOM     21  C   UNL     1       1.801   2.437  -6.500  0.00  0.00    -0.072 C 
ATOM     22  C   UNL     1       1.402   2.864  -7.923  0.00  0.00    +0.024 C 
ATOM     23  C   UNL     1       1.600   4.341  -8.022  0.00  0.00    -0.010 A 
ATOM     24  C   UNL     1       1.801   5.202  -6.985  0.00  0.00    -0.047 A 
ATOM     25  C   UNL     1       1.968   6.545  -7.315  0.00  0.00    +0.010 A 
ATOM     26  C   UNL     1       1.922   6.934  -8.611  0.00  0.00    +0.045 A 
ATOM     27  S   UNL     1       1.634   5.384  -9.452  0.00  0.00    -0.101 S 
ATOM     28  C   UNL     1       1.829   4.663  -5.558  0.00  0.00    -0.006 C 
ATOM     29  H   UNL     1       0.199   3.462  -5.772  0.00  0.00    -0.080 HD
BRANCH  28  30
ATOM     30  C   UNL     1       1.093   5.611  -4.646  0.00  0.00    -0.057 A 
ATOM     31  C   UNL     1      -0.288   5.591  -4.597  0.00  0.00    +0.002 A 
ATOM     32  C   UNL     1      -0.963   6.460  -3.761  0.00  0.00    +0.000 A 
ATOM     33  C   UNL     1      -0.256   7.349  -2.972  0.00  0.00    +0.000 A 
ATOM     34  C   UNL     1       1.125   7.368  -3.020  0.00  0.00    +0.000 A 
ATOM     35  C   UNL     1       1.800   6.496  -3.853  0.00  0.00    +0.002 A 
ENDBRANCH  28  30
ENDBRANCH  19  20
ENDBRANCH   1  19
TORSDOF 6
