REMARK  Name = ZINC08647337
REMARK  5 active torsions:
REMARK  status: ('A' for Active; 'I' for Inactive)
REMARK    1  A    between atoms: C_5  and  C_7
REMARK    2  A    between atoms: C_7  and  S_8
REMARK    3  A    between atoms: S_8  and  C_9
REMARK    4  A    between atoms: C_12  and  C_15
REMARK    5  A    between atoms: N_13  and  N_14
REMARK                            x       y       z     vdW  Elec       q    Type
REMARK                         _______ _______ _______ _____ _____    ______ ____
ROOT
ATOM      1  C   UNL     1      -3.409  -1.833  -1.388  0.00  0.00    +0.209 A 
ATOM      2  N   UNL     1      -3.908  -2.164  -0.218  0.00  0.00    -0.121 NA
ATOM      3  N   UNL     1      -4.886  -2.984  -0.372  0.00  0.00    -0.127 NA
ATOM      4  C   UNL     1      -5.066  -3.232  -1.648  0.00  0.00    +0.183 A 
ATOM      5  N   UNL     1      -4.125  -2.503  -2.338  0.00  0.00    -0.224 N 
ENDROOT
BRANCH   4   6
ATOM      6  C   UNL     1      -6.086  -4.127  -2.234  0.00  0.00    +0.039 A 
ATOM      7  C   UNL     1      -5.726  -5.055  -3.213  0.00  0.00    +0.013 A 
ATOM      8  C   UNL     1      -6.684  -5.888  -3.755  0.00  0.00    +0.001 A 
ATOM      9  C   UNL     1      -7.998  -5.805  -3.331  0.00  0.00    +0.001 A 
ATOM     10  C   UNL     1      -8.363  -4.887  -2.362  0.00  0.00    +0.021 A 
ATOM     11  C   UNL     1      -7.414  -4.052  -1.807  0.00  0.00    +0.052 A 
ATOM     12 CL   UNL     1      -7.871  -2.905  -0.586  0.00  0.00    -0.083 Cl
ENDBRANCH   4   6
BRANCH   5  13
ATOM     13  N   UNL     1      -3.944  -2.459  -3.691  0.00  0.00    -0.295 N 
ATOM     14  H   UNL     1      -3.363  -3.222  -4.004  0.00  0.00    +0.163 HD
ATOM     15  H   UNL     1      -4.830  -2.458  -4.175  0.00  0.00    +0.163 HD
ENDBRANCH   5  13
BRANCH   1  16
ATOM     16  S   UNL     1      -2.062  -0.734  -1.675  0.00  0.00    -0.080 S 
BRANCH  16  17
ATOM     17  C   UNL     1      -1.665  -0.271   0.029  0.00  0.00    +0.114 C 
BRANCH  17  22
ATOM     18  C   UNL     1       1.852   1.101   0.103  0.00  0.00    +0.000 A 
ATOM     19  C   UNL     1       1.620   2.462   0.032  0.00  0.00    +0.001 A 
ATOM     20  C   UNL     1       0.325   2.939  -0.040  0.00  0.00    +0.020 A 
ATOM     21  C   UNL     1      -0.739   2.055  -0.041  0.00  0.00    +0.045 A 
ATOM     22  C   UNL     1      -0.506   0.693   0.030  0.00  0.00    -0.019 A 
ATOM     23  C   UNL     1       0.790   0.217   0.102  0.00  0.00    +0.006 A 
ATOM     24 CL   UNL     1      -2.366   2.654  -0.139  0.00  0.00    -0.083 Cl
ENDBRANCH  17  22
ENDBRANCH  16  17
ENDBRANCH   1  16
TORSDOF 5
