REMARK  Name = ZINC22530667
REMARK  1 active torsions:
REMARK  status: ('A' for Active; 'I' for Inactive)
REMARK    1  A    between atoms: C_9  and  C_11
REMARK                            x       y       z     vdW  Elec       q    Type
REMARK                         _______ _______ _______ _____ _____    ______ ____
ROOT
ATOM      1  C   UNL     1       1.420   2.051  -0.001  0.00  0.00    +0.058 C 
ATOM      2  C   UNL     1      -0.019   1.526   0.010  0.00  0.00    +0.030 C 
ATOM      3  C   UNL     1       0.002  -0.004   0.002  0.00  0.00    +0.110 C 
ATOM      4  N   UNL     1       0.706  -0.479  -1.196  0.00  0.00    -0.285 N 
ATOM      5  C   UNL     1       2.103  -0.026  -1.205  0.00  0.00    +0.110 C 
ATOM      6  C   UNL     1       2.145   1.503  -1.232  0.00  0.00    +0.030 C 
ATOM      7  C   UNL     1       0.631  -1.849  -1.302  0.00  0.00    +0.291 A 
ATOM      8  N   UNL     1       1.163  -2.557  -2.265  0.00  0.00    -0.195 NA
ATOM      9  C   UNL     1       0.889  -3.872  -2.043  0.00  0.00    +0.111 A 
ATOM     10  C   UNL     1       1.197  -5.049  -2.726  0.00  0.00    +0.031 A 
ATOM     11  C   UNL     1       0.762  -6.260  -2.233  0.00  0.00    +0.002 A 
ATOM     12  C   UNL     1       0.021  -6.314  -1.062  0.00  0.00    +0.004 A 
ATOM     13  C   UNL     1      -0.291  -5.157  -0.377  0.00  0.00    +0.048 A 
ATOM     14  C   UNL     1       0.139  -3.931  -0.860  0.00  0.00    +0.157 A 
ATOM     15  O   UNL     1       0.005  -2.656  -0.428  0.00  0.00    -0.424 OA
ENDROOT
BRANCH   1  24
ATOM     16  C   UNL     1       1.314   8.019  -0.826  0.00  0.00    +0.002 A 
ATOM     17  C   UNL     1       1.429   8.028   0.557  0.00  0.00    +0.002 A 
ATOM     18  C   UNL     1       1.494   6.857   1.258  0.00  0.00    +0.030 A 
ATOM     19  C   UNL     1       1.445   5.636   0.581  0.00  0.00    +0.089 A 
ATOM     20  C   UNL     1       1.330   5.626  -0.819  0.00  0.00    +0.066 A 
ATOM     21  C   UNL     1       1.265   6.826  -1.515  0.00  0.00    +0.028 A 
ATOM     22  N   UNL     1       1.312   4.297  -1.191  0.00  0.00    -0.342 N 
ATOM     23  H   UNL     1       1.233   4.024  -2.253  0.00  0.00    +0.167 HD
ATOM     24  C   UNL     1       1.405   3.557  -0.053  0.00  0.00    +0.111 A 
ATOM     25  N   UNL     1       1.486   4.340   0.984  0.00  0.00    -0.232 NA
ENDBRANCH   1  24
TORSDOF 1
