REMARK  Name = ZINC35707683
REMARK  11 active torsions:
REMARK  status: ('A' for Active; 'I' for Inactive)
REMARK    1  A    between atoms: C_1  and  C_2
REMARK    2  A    between atoms: C_3  and  C_31
REMARK    3  A    between atoms: C_4  and  C_11
REMARK    4  A    between atoms: N_9  and  C_10
REMARK    5  A    between atoms: C_15  and  N_17
REMARK    6  A    between atoms: N_17  and  S_18
REMARK    7  A    between atoms: S_18  and  C_21
REMARK    8  A    between atoms: C_31  and  O_33
REMARK    9  A    between atoms: O_33  and  C_34
REMARK   10  A    between atoms: C_34  and  C_35
REMARK   11  A    between atoms: C_34  and  C_36
REMARK                            x       y       z     vdW  Elec       q    Type
REMARK                         _______ _______ _______ _____ _____    ______ ____
ROOT
ATOM      1  C   UNL     1      -2.329  -2.492   0.922  0.00  0.00    -0.021 A 
ATOM      2  C   UNL     1      -1.829  -2.248   2.189  0.00  0.00    +0.006 A 
ATOM      3  C   UNL     1      -2.606  -2.507   3.303  0.00  0.00    +0.002 A 
ATOM      4  C   UNL     1      -3.885  -3.009   3.154  0.00  0.00    +0.024 A 
ATOM      5  C   UNL     1      -4.389  -3.255   1.883  0.00  0.00    +0.048 A 
ATOM      6  C   UNL     1      -3.607  -2.989   0.766  0.00  0.00    +0.030 A 
ENDROOT
BRANCH   1  10
ATOM      7  C   UNL     1      -0.946  -5.114  -2.768  0.00  0.00    +0.061 C 
ATOM      8  C   UNL     1      -1.366  -3.805  -2.151  0.00  0.00    +0.024 C 
ATOM      9  C   UNL     1      -1.035  -3.538  -0.870  0.00  0.00    +0.078 C 
ATOM     10  C   UNL     1      -1.478  -2.209  -0.289  0.00  0.00    +0.144 C 
ATOM     11  N   UNL     1      -2.237  -1.313  -1.177  0.00  0.00    -0.288 N 
ATOM     12  C   UNL     1      -2.490  -1.721  -2.437  0.00  0.00    +0.307 C 
ATOM     13  O   UNL     1      -3.116  -0.989  -3.177  0.00  0.00    -0.252 OA
ATOM     14  N   UNL     1      -2.070  -2.905  -2.900  0.00  0.00    -0.262 N 
ATOM     15  C   UNL     1      -2.389  -3.258  -4.285  0.00  0.00    +0.139 C 
ATOM     16  H   UNL     1      -2.548  -0.450  -0.863  0.00  0.00    +0.151 HD
BRANCH   9  17
ATOM     17  C   UNL     1      -0.301  -4.466  -0.095  0.00  0.00    +0.339 C 
ATOM     18  O   UNL     1       0.128  -5.482  -0.609  0.00  0.00    -0.245 OA
BRANCH  17  19
ATOM     19  O   UNL     1      -0.078  -4.225   1.214  0.00  0.00    -0.459 OA
BRANCH  19  20
ATOM     20  C   UNL     1       0.764  -5.147   1.909  0.00  0.00    +0.171 C 
ATOM     21  C   UNL     1       2.206  -4.635   1.891  0.00  0.00    +0.052 C 
ATOM     22  C   UNL     1       0.288  -5.281   3.357  0.00  0.00    +0.052 C 
ENDBRANCH  19  20
ENDBRANCH  17  19
ENDBRANCH   9  17
ENDBRANCH   1  10
BRANCH   5  23
ATOM     23  N   UNL     1      -5.681  -3.762   1.729  0.00  0.00    -0.216 N 
ATOM     24  H   UNL     1      -5.841  -4.508   1.130  0.00  0.00    +0.174 HD
BRANCH  23  25
ATOM     25  S   UNL     1      -6.940  -3.091   2.570  0.00  0.00    +0.072 S 
ATOM     26  O   UNL     1      -8.116  -3.771   2.151  0.00  0.00    -0.150 OA
ATOM     27  O   UNL     1      -6.536  -3.035   3.931  0.00  0.00    -0.150 OA
BRANCH  25  28
ATOM     28  C   UNL     1      -7.101  -1.424   2.023  0.00  0.00    +0.109 A 
ATOM     29  C   UNL     1      -6.318  -0.430   2.608  0.00  0.00    +0.029 A 
ATOM     30  C   UNL     1      -6.418   0.867   2.209  0.00  0.00    +0.010 A 
ATOM     31  C   UNL     1      -7.323   1.214   1.192  0.00  0.00    -0.018 A 
ATOM     32  C   UNL     1      -7.454   2.543   0.753  0.00  0.00    +0.008 A 
ATOM     33  C   UNL     1      -8.341   2.841  -0.235  0.00  0.00    +0.001 A 
ATOM     34  C   UNL     1      -9.124   1.848  -0.820  0.00  0.00    +0.001 A 
ATOM     35  C   UNL     1      -9.025   0.551  -0.421  0.00  0.00    +0.008 A 
ATOM     36  C   UNL     1      -8.119   0.204   0.597  0.00  0.00    -0.016 A 
ATOM     37  C   UNL     1      -7.984  -1.126   1.031  0.00  0.00    +0.037 A 
ENDBRANCH  25  28
ENDBRANCH  23  25
ENDBRANCH   5  23
TORSDOF 7
