REMARK  Name = ZINC39604144
REMARK  10 active torsions:
REMARK  status: ('A' for Active; 'I' for Inactive)
REMARK    1  A    between atoms: C_1  and  C_2
REMARK    2  A    between atoms: C_2  and  O_3
REMARK    3  A    between atoms: O_3  and  C_4
REMARK    4  A    between atoms: C_4  and  C_6
REMARK    5  A    between atoms: C_6  and  C_7
REMARK    6  A    between atoms: C_7  and  N_8
REMARK    7  A    between atoms: C_9  and  C_11
REMARK    8  A    between atoms: C_22  and  C_24
REMARK    9  A    between atoms: C_26  and  O_31
REMARK   10  A    between atoms: O_31  and  C_32
REMARK                            x       y       z     vdW  Elec       q    Type
REMARK                         _______ _______ _______ _____ _____    ______ ____
ROOT
ATOM      1  C   UNL     1      -6.084  -6.616  -0.468  0.00  0.00    +0.100 C 
ATOM      2  C   UNL     1      -6.572  -6.223   0.944  0.00  0.00    +0.121 C 
ATOM      3  N   UNL     1      -7.241  -7.439   1.462  0.00  0.00    -0.296 N 
ATOM      4  C   UNL     1      -6.388  -8.557   0.993  0.00  0.00    +0.115 C 
ATOM      5  C   UNL     1      -5.964  -8.149  -0.431  0.00  0.00    -0.004 C 
ATOM      6  C   UNL     1      -4.521  -8.572  -0.694  0.00  0.00    -0.010 C 
ATOM      7  C   UNL     1      -4.438 -10.101  -0.710  0.00  0.00    -0.082 C 
ATOM      8  N   UNL     1      -5.322 -10.630  -1.756  0.00  0.00    +0.379 N 
ATOM      9  C   UNL     1      -6.718 -10.298  -1.446  0.00  0.00    -0.082 C 
ATOM     10  C   UNL     1      -6.898  -8.777  -1.461  0.00  0.00    -0.010 C 
ATOM     11  C   UNL     1      -8.371  -7.513   2.192  0.00  0.00    +0.248 C 
ATOM     12  O   UNL     1      -8.746  -8.585   2.627  0.00  0.00    -0.270 OA
ATOM     13  H   UNL     1      -5.070 -10.224  -2.645  0.00  0.00    -0.086 HD
ATOM     14  H   UNL     1      -5.219 -11.632  -1.806  0.00  0.00    -0.086 HD
ENDROOT
BRANCH  11  15
ATOM     15  C   UNL     1      -9.155  -6.290   2.466  0.00  0.00    +0.054 A 
ATOM     16  C   UNL     1      -8.505  -5.074   2.679  0.00  0.00    +0.059 A 
ATOM     17  C   UNL     1      -9.246  -3.933   2.934  0.00  0.00    +0.121 A 
ATOM     18  C   UNL     1     -10.632  -3.999   2.978  0.00  0.00    +0.047 A 
ATOM     19  C   UNL     1     -11.279  -5.202   2.767  0.00  0.00    +0.019 A 
ATOM     20  C   UNL     1     -10.550  -6.346   2.507  0.00  0.00    +0.030 A 
ATOM     21 BR   UNL     1     -11.440  -7.989   2.212  0.00  0.00    -0.050 Br
BRANCH  17  22
ATOM     22  O   UNL     1      -8.616  -2.747   3.143  0.00  0.00    -0.495 OA
ATOM     23  C   UNL     1      -9.442  -1.610   3.401  0.00  0.00    +0.277 C 
ENDBRANCH  17  22
ENDBRANCH  11  15
BRANCH   1  25
ATOM     24  N   UNL     1      -4.395  -5.692  -2.020  0.00  0.00    -0.314 N 
ATOM     25  C   UNL     1      -4.743  -5.991  -0.753  0.00  0.00    +0.218 C 
ATOM     26  O   UNL     1      -3.977  -5.757   0.158  0.00  0.00    -0.275 OA
ATOM     27  H   UNL     1      -5.007  -5.879  -2.749  0.00  0.00    +0.149 HD
BRANCH  24  28
ATOM     28  C   UNL     1      -3.091  -5.084  -2.297  0.00  0.00    +0.115 C 
BRANCH  28  29
ATOM     29  C   UNL     1      -2.947  -4.849  -3.802  0.00  0.00    +0.139 C 
BRANCH  29  30
ATOM     30  C   UNL     1      -1.606  -4.223  -4.088  0.00  0.00    +0.309 C 
ATOM     31  O   UNL     1      -0.843  -3.990  -3.180  0.00  0.00    -0.251 OA
BRANCH  30  32
ATOM     32  O   UNL     1      -1.259  -3.926  -5.349  0.00  0.00    -0.465 OA
BRANCH  32  34
ATOM     33  C   UNL     1       0.243  -3.069  -7.038  0.00  0.00    +0.048 C 
ATOM     34  C   UNL     1       0.027  -3.335  -5.546  0.00  0.00    +0.229 C 
ENDBRANCH  32  34
ENDBRANCH  30  32
ENDBRANCH  29  30
ENDBRANCH  28  29
ENDBRANCH  24  28
ENDBRANCH   1  25
TORSDOF 8
