REMARK  Name = ZINC12943675
REMARK  13 active torsions:
REMARK  status: ('A' for Active; 'I' for Inactive)
REMARK    1  A    between atoms: C_1  and  C_2
REMARK    2  A    between atoms: C_2  and  C_3
REMARK    3  A    between atoms: C_3  and  C_4
REMARK    4  A    between atoms: C_4  and  N_5
REMARK    5  A    between atoms: C_6  and  N_30
REMARK    6  A    between atoms: C_7  and  N_14
REMARK    7  A    between atoms: N_14  and  C_15
REMARK    8  A    between atoms: C_15  and  C_16
REMARK    9  A    between atoms: C_16  and  C_17
REMARK   10  A    between atoms: C_18  and  C_20
REMARK   11  A    between atoms: C_20  and  C_21
REMARK   12  A    between atoms: C_21  and  C_22
REMARK   13  A    between atoms: C_22  and  N_69
REMARK                            x       y       z     vdW  Elec       q    Type
REMARK                         _______ _______ _______ _____ _____    ______ ____
ROOT
ATOM      1  N   UNL     1      -1.350  -4.842  -2.321  0.00  0.00    -0.264 N 
ATOM      2  C   UNL     1      -1.510  -4.188  -3.490  0.00  0.00    +0.220 C 
ATOM      3  O   UNL     1      -1.571  -2.976  -3.504  0.00  0.00    -0.275 OA
ENDROOT
BRANCH   1   6
ATOM      4  N   UNL     1      -0.261  -3.348   0.854  0.00  0.00    -0.280 N 
ATOM      5  C   UNL     1      -0.220  -4.048  -0.329  0.00  0.00    +0.127 A 
ATOM      6  C   UNL     1      -1.359  -4.127  -1.105  0.00  0.00    +0.140 A 
ATOM      7  C   UNL     1      -2.526  -3.475  -0.666  0.00  0.00    +0.277 A 
ATOM      8  O   UNL     1      -3.545  -3.525  -1.335  0.00  0.00    -0.266 OA
ATOM      9  N   UNL     1      -2.512  -2.798   0.498  0.00  0.00    -0.273 N 
ATOM     10  H   UNL     1      -3.341  -2.335   0.811  0.00  0.00    +0.173 HD
ATOM     11  C   UNL     1      -1.395  -2.737   1.245  0.00  0.00    +0.331 A 
ATOM     12  O   UNL     1      -1.409  -2.119   2.292  0.00  0.00    -0.246 OA
BRANCH   5  13
ATOM     13  N   UNL     1       0.939  -4.667  -0.730  0.00  0.00    -0.343 N 
ATOM     14  H   UNL     1       1.747  -4.574  -0.202  0.00  0.00    +0.144 HD
ATOM     15  H   UNL     1       0.950  -5.198  -1.542  0.00  0.00    +0.144 HD
ENDBRANCH   5  13
BRANCH   4  16
ATOM     16  C   UNL     1       0.938  -3.261   1.691  0.00  0.00    +0.128 C 
BRANCH  16  17
ATOM     17  C   UNL     1       0.952  -4.426   2.683  0.00  0.00    +0.021 C 
BRANCH  17  19
ATOM     18  C   UNL     1       2.219  -5.501   4.549  0.00  0.00    +0.004 C 
ATOM     19  C   UNL     1       2.205  -4.336   3.557  0.00  0.00    -0.002 C 
ENDBRANCH  17  19
ENDBRANCH  16  17
ENDBRANCH   4  16
ENDBRANCH   1   6
BRANCH   1  20
ATOM     20  C   UNL     1      -1.167  -6.296  -2.314  0.00  0.00    +0.113 C 
BRANCH  20  21
ATOM     21  C   UNL     1      -2.535  -6.982  -2.349  0.00  0.00    +0.016 C 
ATOM     22  C   UNL     1      -2.344  -8.500  -2.342  0.00  0.00    +0.005 C 
ENDBRANCH  20  21
ENDBRANCH   1  20
BRANCH   2  23
ATOM     23  C   UNL     1      -1.612  -4.962  -4.779  0.00  0.00    +0.094 C 
BRANCH  23  24
ATOM     24  C   UNL     1      -1.788  -3.988  -5.946  0.00  0.00    -0.009 C 
BRANCH  24  25
ATOM     25  C   UNL     1      -1.892  -4.774  -7.255  0.00  0.00    -0.078 C 
BRANCH  25  33
ATOM     26  C   UNL     1      -1.115  -2.721  -8.274  0.00  0.00    -0.079 C 
ATOM     27  C   UNL     1      -1.105  -1.923  -9.578  0.00  0.00    -0.019 C 
ATOM     28  C   UNL     1      -2.352  -1.034  -9.638  0.00  0.00    -0.002 C 
ATOM     29  C   UNL     1      -3.568  -1.910  -9.950  0.00  0.00    -0.000 C 
ATOM     30  C   UNL     1      -3.208  -2.902 -11.055  0.00  0.00    -0.002 C 
ATOM     31  C   UNL     1      -3.201  -4.321 -10.488  0.00  0.00    -0.019 C 
ATOM     32  C   UNL     1      -1.927  -4.533  -9.665  0.00  0.00    -0.079 C 
ATOM     33  N   UNL     1      -2.088  -3.829  -8.373  0.00  0.00    +0.380 N 
ATOM     34  H   UNL     1      -3.038  -3.443  -8.321  0.00  0.00    -0.082 HD
ENDBRANCH  25  33
ENDBRANCH  24  25
ENDBRANCH  23  24
ENDBRANCH   2  23
TORSDOF 11
