REMARK  Name = ZINC00815909
REMARK  9 active torsions:
REMARK  status: ('A' for Active; 'I' for Inactive)
REMARK    1  A    between atoms: C_1  and  C_2
REMARK    2  A    between atoms: C_7  and  C_17
REMARK    3  A    between atoms: C_21  and  O_25
REMARK    4  A    between atoms: C_22  and  O_23
REMARK    5  A    between atoms: O_23  and  C_24
REMARK    6  A    between atoms: O_25  and  C_26
REMARK    7  A    between atoms: C_29  and  C_31
REMARK    8  A    between atoms: C_31  and  O_33
REMARK    9  A    between atoms: O_33  and  C_34
REMARK                            x       y       z     vdW  Elec       q    Type
REMARK                         _______ _______ _______ _____ _____    ______ ____
ROOT
ATOM      1  C   UNL     1       2.891   2.327  -2.249  0.00  0.00    +0.009 C 
ATOM      2  C   UNL     1       2.297   3.559  -1.565  0.00  0.00    +0.013 C 
ATOM      3  C   UNL     1       0.912   3.227  -1.012  0.00  0.00    +0.055 C 
ATOM      4  C   UNL     1       1.013   2.100   0.001  0.00  0.00    +0.017 C 
ATOM      5  C   UNL     1       2.112   1.964   0.764  0.00  0.00    +0.037 C 
ATOM      6  C   UNL     1       2.336   0.901   1.812  0.00  0.00    +0.140 C 
ATOM      7  N   UNL     1       1.157   0.137   2.158  0.00  0.00    -0.331 N 
ATOM      8  C   UNL     1       0.535  -0.686   1.220  0.00  0.00    +0.049 A 
ATOM      9  C   UNL     1       0.544  -2.065   1.350  0.00  0.00    +0.025 A 
ATOM     10  C   UNL     1       0.017  -2.847   0.337  0.00  0.00    +0.002 A 
ATOM     11  C   UNL     1      -0.514  -2.259  -0.797  0.00  0.00    +0.002 A 
ATOM     12  C   UNL     1      -0.544  -0.880  -0.920  0.00  0.00    +0.025 A 
ATOM     13  C   UNL     1      -0.035  -0.097   0.101  0.00  0.00    +0.052 A 
ATOM     14  N   UNL     1      -0.075   1.292   0.065  0.00  0.00    -0.316 N 
ATOM     15  C   UNL     1       3.194   2.864   0.620  0.00  0.00    +0.177 C 
ATOM     16  O   UNL     1       4.167   2.730   1.335  0.00  0.00    -0.291 OA
ATOM     17  C   UNL     1       3.182   3.977  -0.384  0.00  0.00    +0.171 C 
ATOM     18  H   UNL     1       0.793   0.199   3.055  0.00  0.00    +0.147 HD
ATOM     19  H   UNL     1      -0.948   1.715   0.083  0.00  0.00    +0.152 HD
ENDROOT
BRANCH   6  20
ATOM     20  C   UNL     1       3.390  -0.051   1.309  0.00  0.00    +0.023 A 
ATOM     21  C   UNL     1       3.124  -0.867   0.225  0.00  0.00    +0.009 A 
ATOM     22  C   UNL     1       4.089  -1.741  -0.239  0.00  0.00    +0.004 A 
ATOM     23  C   UNL     1       5.325  -1.802   0.378  0.00  0.00    +0.049 A 
ATOM     24  C   UNL     1       5.598  -0.987   1.464  0.00  0.00    +0.162 A 
ATOM     25  C   UNL     1       4.628  -0.104   1.928  0.00  0.00    +0.167 A 
BRANCH  25  26
ATOM     26  O   UNL     1       4.894   0.702   2.991  0.00  0.00    -0.491 OA
ATOM     27  C   UNL     1       4.586   0.187   4.288  0.00  0.00    +0.277 C 
ENDBRANCH  25  26
BRANCH  24  28
ATOM     28  O   UNL     1       6.814  -1.046   2.071  0.00  0.00    -0.491 OA
ATOM     29  C   UNL     1       7.762  -1.972   1.537  0.00  0.00    +0.277 C 
ENDBRANCH  24  28
ENDBRANCH   6  20
BRANCH  17  30
ATOM     30  C   UNL     1       4.584   4.240  -0.871  0.00  0.00    +0.318 C 
ATOM     31  O   UNL     1       4.851   4.108  -2.042  0.00  0.00    -0.250 OA
BRANCH  30  32
ATOM     32  O   UNL     1       5.535   4.622  -0.004  0.00  0.00    -0.467 OA
ATOM     33  C   UNL     1       6.862   4.857  -0.543  0.00  0.00    +0.280 C 
ENDBRANCH  30  32
ENDBRANCH  17  30
TORSDOF 5
