REMARK  Name = ZINC12565056
REMARK  8 active torsions:
REMARK  status: ('A' for Active; 'I' for Inactive)
REMARK    1  A    between atoms: C_1  and  C_2
REMARK    2  A    between atoms: C_2  and  C_4
REMARK    3  A    between atoms: C_2  and  N_14
REMARK    4  A    between atoms: C_15  and  C_17
REMARK    5  A    between atoms: C_17  and  S_18
REMARK    6  A    between atoms: S_18  and  C_19
REMARK    7  A    between atoms: C_22  and  C_31
REMARK    8  A    between atoms: C_23  and  C_25
REMARK                            x       y       z     vdW  Elec       q    Type
REMARK                         _______ _______ _______ _____ _____    ______ ____
ROOT
ATOM      1  S   UNL     1       1.209  -3.537  -1.203  0.00  0.00    -0.079 S 
ENDROOT
BRANCH   1   2
ATOM      2  C   UNL     1       0.484  -2.107  -0.473  0.00  0.00    +0.168 A 
ATOM      3  N   UNL     1       0.784  -0.818  -0.797  0.00  0.00    -0.332 N 
ATOM      4  H   UNL     1       1.446  -0.517  -1.483  0.00  0.00    +0.168 HD
ATOM      5  C   UNL     1       0.002  -0.004   0.002  0.00  0.00    +0.075 A 
ATOM      6  C   UNL     1      -0.761  -0.847   0.786  0.00  0.00    +0.098 A 
ATOM      7  N   UNL     1      -0.435  -2.114   0.464  0.00  0.00    -0.221 NA
BRANCH   6   8
ATOM      8  C   UNL     1      -1.758  -0.432   1.800  0.00  0.00    +0.002 A 
ATOM      9  C   UNL     1      -1.542   0.713   2.567  0.00  0.00    +0.010 A 
ATOM     10  C   UNL     1      -2.477   1.096   3.507  0.00  0.00    +0.001 A 
ATOM     11  C   UNL     1      -3.621   0.342   3.696  0.00  0.00    +0.000 A 
ATOM     12  C   UNL     1      -3.838  -0.798   2.942  0.00  0.00    +0.001 A 
ATOM     13  C   UNL     1      -2.913  -1.189   1.996  0.00  0.00    +0.010 A 
ENDBRANCH   6   8
BRANCH   5  14
ATOM     14  C   UNL     1      -0.018   1.471   0.010  0.00  0.00    +0.000 A 
ATOM     15  C   UNL     1      -1.235   2.157   0.020  0.00  0.00    +0.010 A 
ATOM     16  C   UNL     1      -1.246   3.536   0.034  0.00  0.00    +0.001 A 
ATOM     17  C   UNL     1      -0.056   4.241   0.026  0.00  0.00    +0.000 A 
ATOM     18  C   UNL     1       1.154   3.568   0.010  0.00  0.00    +0.001 A 
ATOM     19  C   UNL     1       1.181   2.190   0.003  0.00  0.00    +0.010 A 
ENDBRANCH   5  14
ENDBRANCH   1   2
BRANCH   1  20
ATOM     20  C   UNL     1       0.329  -4.833  -0.296  0.00  0.00    +0.173 C 
BRANCH  20  22
ATOM     21  N   UNL     1       0.279  -7.305  -0.228  0.00  0.00    -0.312 N 
ATOM     22  C   UNL     1       0.800  -6.185  -0.767  0.00  0.00    +0.224 C 
ATOM     23  O   UNL     1       1.647  -6.264  -1.631  0.00  0.00    -0.275 OA
ATOM     24  H   UNL     1      -0.398  -7.241   0.463  0.00  0.00    +0.149 HD
BRANCH  21  26
ATOM     25  C   UNL     1       2.002  -9.014   0.080  0.00  0.00    +0.028 C 
ATOM     26  C   UNL     1       0.737  -8.619  -0.686  0.00  0.00    +0.076 C 
BRANCH  26  27
ATOM     27  C   UNL     1      -0.357  -9.658  -0.432  0.00  0.00    -0.010 C 
ATOM     28  C   UNL     1      -1.622  -9.263  -1.198  0.00  0.00    +0.012 C 
ATOM     29  C   UNL     1      -2.717 -10.301  -0.944  0.00  0.00    -0.010 C 
ATOM     30  C   UNL     1      -2.239 -11.674  -1.423  0.00  0.00    +0.007 C 
ATOM     31  C   UNL     1      -0.974 -12.068  -0.657  0.00  0.00    -0.010 C 
ATOM     32  C   UNL     1       0.121 -11.030  -0.911  0.00  0.00    +0.012 C 
ATOM     33  C   UNL     1      -1.282 -12.129   0.840  0.00  0.00    +0.007 C 
ATOM     34  C   UNL     1      -1.760 -10.757   1.319  0.00  0.00    -0.010 C 
ATOM     35  C   UNL     1      -3.025 -10.362   0.553  0.00  0.00    +0.007 C 
ATOM     36  C   UNL     1      -0.666  -9.718   1.065  0.00  0.00    +0.012 C 
ENDBRANCH  26  27
ENDBRANCH  21  26
ENDBRANCH  20  22
ENDBRANCH   1  20
TORSDOF 7
