REMARK  Name = ZINC19597323
REMARK  10 active torsions:
REMARK  status: ('A' for Active; 'I' for Inactive)
REMARK    1  A    between atoms: C_1  and  C_2
REMARK    2  A    between atoms: C_2  and  C_3
REMARK    3  A    between atoms: C_2  and  O_4
REMARK    4  A    between atoms: O_4  and  C_5
REMARK    5  A    between atoms: C_5  and  C_7
REMARK    6  A    between atoms: C_7  and  C_35
REMARK    7  A    between atoms: C_12  and  C_32
REMARK    8  A    between atoms: C_15  and  C_29
REMARK    9  A    between atoms: C_17  and  C_19
REMARK   10  A    between atoms: C_24  and  C_25
REMARK                            x       y       z     vdW  Elec       q    Type
REMARK                         _______ _______ _______ _____ _____    ______ ____
ROOT
ATOM      1  C   UNL     1       0.950  -2.589  -0.106  0.00  0.00    +0.184 C 
ATOM      2  C   UNL     1       1.385  -1.273  -0.773  0.00  0.00    +0.128 C 
ATOM      3  C   UNL     1       2.790  -0.902  -0.372  0.00  0.00    -0.002 C 
ATOM      4  C   UNL     1       3.099   0.383  -0.218  0.00  0.00    +0.012 C 
ATOM      5  C   UNL     1       2.096   1.446  -0.439  0.00  0.00    +0.050 C 
ATOM      6  C   UNL     1       0.760   1.115  -0.436  0.00  0.00    +0.084 C 
ATOM      7  N   UNL     1       0.491  -0.213  -0.265  0.00  0.00    -0.314 N 
ATOM      8  C   UNL     1      -0.611  -0.844   0.466  0.00  0.00    +0.169 C 
ATOM      9  C   UNL     1       0.031  -2.129   1.057  0.00  0.00    +0.082 C 
ENDROOT
BRANCH   9  10
ATOM     10  C   UNL     1       0.838  -1.811   2.289  0.00  0.00    -0.028 A 
ATOM     11  C   UNL     1       1.775  -0.794   2.258  0.00  0.00    +0.004 A 
ATOM     12  C   UNL     1       2.512  -0.499   3.390  0.00  0.00    +0.000 A 
ATOM     13  C   UNL     1       2.320  -1.227   4.549  0.00  0.00    +0.001 A 
ATOM     14  C   UNL     1       1.388  -2.247   4.578  0.00  0.00    +0.012 A 
ATOM     15  C   UNL     1       0.646  -2.539   3.448  0.00  0.00    +0.058 A 
BRANCH  15  16
ATOM     16  C   UNL     1      -0.370  -3.651   3.480  0.00  0.00    +0.418 C 
ATOM     17  F   UNL     1      -0.382  -4.236   4.751  0.00  0.00    -0.166 F 
ATOM     18  F   UNL     1      -1.637  -3.133   3.193  0.00  0.00    -0.166 F 
ATOM     19  F   UNL     1      -0.034  -4.617   2.525  0.00  0.00    -0.166 F 
ENDBRANCH  15  16
ENDBRANCH   9  10
BRANCH   8  20
ATOM     20  C   UNL     1      -1.737  -1.193  -0.472  0.00  0.00    +0.232 C 
ATOM     21  O   UNL     1      -1.533  -1.262  -1.666  0.00  0.00    -0.274 OA
ATOM     22  N   UNL     1      -2.972  -1.428   0.015  0.00  0.00    -0.328 N 
ATOM     23  H   UNL     1      -3.794  -1.683  -0.670  0.00  0.00    +0.145 HD
ATOM     24  H   UNL     1      -3.157  -1.365   1.097  0.00  0.00    +0.145 HD
ENDBRANCH   8  20
BRANCH   5  25
ATOM     25  C   UNL     1       2.519   2.833  -0.658  0.00  0.00    +0.243 C 
ATOM     26  O   UNL     1       1.685   3.701  -0.840  0.00  0.00    -0.270 OA
ATOM     27  N   UNL     1       3.829   3.146  -0.659  0.00  0.00    -0.325 N 
ATOM     28  H   UNL     1       4.146   4.187  -0.824  0.00  0.00    +0.145 HD
ATOM     29  H   UNL     1       4.583   2.361  -0.496  0.00  0.00    +0.145 HD
ENDBRANCH   5  25
BRANCH   1  30
ATOM     30  C   UNL     1       2.147  -3.332   0.428  0.00  0.00    +0.330 C 
ATOM     31  O   UNL     1       2.277  -3.492   1.619  0.00  0.00    -0.249 OA
BRANCH  30  32
ATOM     32  O   UNL     1       3.069  -3.816  -0.418  0.00  0.00    -0.461 OA
BRANCH  32  34
ATOM     33  C   UNL     1       4.696  -5.585  -0.813  0.00  0.00    +0.052 C 
ATOM     34  C   UNL     1       4.196  -4.521   0.167  0.00  0.00    +0.170 C 
ATOM     35  C   UNL     1       5.323  -3.528   0.459  0.00  0.00    +0.052 C 
ENDBRANCH  32  34
ENDBRANCH  30  32
ENDBRANCH   1  30
BRANCH   1  36
ATOM     36  C   UNL     1       0.202  -3.430  -1.054  0.00  0.00    +0.084 C 
ATOM     37  N   UNL     1      -0.376  -4.080  -1.786  0.00  0.00    -0.195 NA
ENDBRANCH   1  36
TORSDOF 8
