REMARK  Name = ZINC38806156
REMARK  12 active torsions:
REMARK  status: ('A' for Active; 'I' for Inactive)
REMARK    1  A    between atoms: C_1  and  C_2
REMARK    2  A    between atoms: C_2  and  C_34
REMARK    3  A    between atoms: C_5  and  C_30
REMARK    4  A    between atoms: C_6  and  N_13
REMARK    5  A    between atoms: C_9  and  C_11
REMARK    6  A    between atoms: C_9  and  C_12
REMARK    7  A    between atoms: C_14  and  C_16
REMARK    8  A    between atoms: C_16  and  C_17
REMARK    9  A    between atoms: C_17  and  C_18
REMARK   10  A    between atoms: C_17  and  C_24
REMARK   11  A    between atoms: C_30  and  O_32
REMARK   12  A    between atoms: O_32  and  C_33
REMARK                            x       y       z     vdW  Elec       q    Type
REMARK                         _______ _______ _______ _____ _____    ______ ____
ROOT
ATOM      1  C   UNL     1       1.875   0.487   3.439  0.00  0.00    -0.010 C 
ATOM      2  C   UNL     1       1.815  -1.013   3.734  0.00  0.00    -0.069 C 
ATOM      3  C   UNL     1       0.509  -1.591   3.176  0.00  0.00    +0.024 C 
ATOM      4  C   UNL     1      -0.628  -0.972   3.974  0.00  0.00    -0.024 A 
ATOM      5  C   UNL     1      -1.964  -0.683   3.504  0.00  0.00    +0.091 A 
ATOM      6  C   UNL     1      -2.842  -0.108   4.416  0.00  0.00    +0.086 A 
ATOM      7  S   UNL     1      -1.936   0.037   5.822  0.00  0.00    -0.079 S 
ATOM      8  C   UNL     1      -0.403  -0.646   5.268  0.00  0.00    -0.016 A 
ATOM      9  C   UNL     1       0.869  -0.845   6.023  0.00  0.00    -0.041 C 
ATOM     10  N   UNL     1       1.966  -1.276   5.159  0.00  0.00    +0.389 N 
ATOM     11  C   UNL     1       0.630  -1.928   7.094  0.00  0.00    -0.005 C 
ATOM     12  C   UNL     1       1.242   0.457   6.747  0.00  0.00    -0.005 C 
ATOM     13  C   UNL     1       2.984  -1.687   2.990  0.00  0.00    -0.010 C 
ATOM     14  H   UNL     1       2.107  -2.280   5.290  0.00  0.00    -0.084 HD
ATOM     15  H   UNL     1       2.828  -0.833   5.481  0.00  0.00    -0.084 HD
ENDROOT
BRANCH   6  16
ATOM     16  N   UNL     1      -4.162   0.261   4.209  0.00  0.00    -0.279 N 
ATOM     17  C   UNL     1      -4.873   0.810   5.213  0.00  0.00    +0.218 C 
ATOM     18  O   UNL     1      -4.358   0.982   6.298  0.00  0.00    -0.275 OA
ATOM     19  H   UNL     1      -4.574   0.123   3.342  0.00  0.00    +0.155 HD
BRANCH  17  20
ATOM     20  C   UNL     1      -6.308   1.211   4.989  0.00  0.00    +0.109 C 
BRANCH  20  21
ATOM     21  C   UNL     1      -6.880   1.804   6.278  0.00  0.00    +0.058 C 
BRANCH  21  22
ATOM     22  C   UNL     1      -6.155   3.084   6.607  0.00  0.00    -0.040 A 
ATOM     23  C   UNL     1      -5.604   3.264   7.862  0.00  0.00    +0.004 A 
ATOM     24  C   UNL     1      -4.940   4.438   8.163  0.00  0.00    +0.000 A 
ATOM     25  C   UNL     1      -4.825   5.432   7.210  0.00  0.00    +0.000 A 
ATOM     26  C   UNL     1      -5.375   5.252   5.954  0.00  0.00    +0.000 A 
ATOM     27  C   UNL     1      -6.036   4.076   5.651  0.00  0.00    +0.004 A 
ENDBRANCH  21  22
BRANCH  21  28
ATOM     28  C   UNL     1      -8.347   2.092   6.091  0.00  0.00    -0.040 A 
ATOM     29  C   UNL     1      -8.774   2.835   5.006  0.00  0.00    +0.004 A 
ATOM     30  C   UNL     1     -10.120   3.099   4.835  0.00  0.00    +0.000 A 
ATOM     31  C   UNL     1     -11.040   2.619   5.749  0.00  0.00    +0.000 A 
ATOM     32  C   UNL     1     -10.614   1.875   6.833  0.00  0.00    +0.000 A 
ATOM     33  C   UNL     1      -9.268   1.607   7.002  0.00  0.00    +0.004 A 
ENDBRANCH  21  28
ENDBRANCH  20  21
ENDBRANCH  17  20
ENDBRANCH   6  16
BRANCH   5  34
ATOM     34  C   UNL     1      -2.387  -0.978   2.133  0.00  0.00    +0.342 C 
ATOM     35  O   UNL     1      -2.876  -2.060   1.867  0.00  0.00    -0.245 OA
BRANCH  34  36
ATOM     36  O   UNL     1      -2.233  -0.052   1.165  0.00  0.00    -0.464 OA
ATOM     37  C   UNL     1      -2.666  -0.408  -0.149  0.00  0.00    +0.280 C 
ENDBRANCH  34  36
ENDBRANCH   5  34
TORSDOF 7
