REMARK  Name = ZINC38672992
REMARK  10 active torsions:
REMARK  status: ('A' for Active; 'I' for Inactive)
REMARK    1  A    between atoms: C_1  and  C_2
REMARK    2  A    between atoms: C_2  and  N_3
REMARK    3  A    between atoms: C_5  and  C_15
REMARK    4  A    between atoms: C_11  and  C_14
REMARK    5  A    between atoms: N_17  and  C_18
REMARK    6  A    between atoms: C_18  and  C_19
REMARK    7  A    between atoms: C_19  and  C_21
REMARK    8  A    between atoms: C_19  and  N_32
REMARK    9  A    between atoms: N_30  and  C_31
REMARK   10  A    between atoms: N_35  and  C_38
REMARK                            x       y       z     vdW  Elec       q    Type
REMARK                         _______ _______ _______ _____ _____    ______ ____
ROOT
ATOM      1  C   UNL     1      -7.093  -2.737   3.649  0.00  0.00    +0.104 C 
ENDROOT
BRANCH   1   2
ATOM      2  C   UNL     1      -7.698  -2.774   5.028  0.00  0.00    -0.028 A 
ATOM      3  C   UNL     1      -8.143  -1.605   5.618  0.00  0.00    +0.007 A 
ATOM      4  C   UNL     1      -8.697  -1.639   6.882  0.00  0.00    +0.024 A 
ATOM      5  C   UNL     1      -8.808  -2.848   7.561  0.00  0.00    +0.033 A 
ATOM      6  C   UNL     1      -8.364  -4.019   6.968  0.00  0.00    -0.026 A 
ATOM      7  C   UNL     1      -7.813  -3.977   5.698  0.00  0.00    +0.010 A 
ATOM      8  C   UNL     1      -8.478  -5.348   7.668  0.00  0.00    +0.038 C 
ATOM      9  C   UNL     1      -8.625  -5.147   9.176  0.00  0.00    +0.024 C 
ATOM     10  C   UNL     1      -9.759  -4.146   9.435  0.00  0.00    +0.105 C 
ATOM     11  N   UNL     1      -9.367  -2.860   8.843  0.00  0.00    -0.333 N 
ATOM     12  C   UNL     1      -9.558  -1.611   9.584  0.00  0.00    +0.129 C 
ENDBRANCH   1   2
BRANCH   1  13
ATOM     13  N   UNL     1      -7.846  -1.796   2.808  0.00  0.00    -0.297 NA
ATOM     14  C   UNL     1      -9.275  -2.136   2.788  0.00  0.00    +0.066 C 
ATOM     15  C   UNL     1     -10.031  -1.101   1.953  0.00  0.00    -0.064 C 
ATOM     16  N   UNL     1      -9.494  -1.087   0.586  0.00  0.00    +0.379 N 
ATOM     17  C   UNL     1      -8.072  -0.722   0.620  0.00  0.00    -0.064 C 
ATOM     18  C   UNL     1      -7.300  -1.754   1.445  0.00  0.00    +0.066 C 
ATOM     19  C   UNL     1     -10.232  -0.106  -0.221  0.00  0.00    -0.096 C 
ATOM     20  H   UNL     1      -9.596  -2.004   0.176  0.00  0.00    -0.082 HD
ENDBRANCH   1  13
BRANCH   1  21
ATOM     21  C   UNL     1      -5.635  -2.281   3.744  0.00  0.00    +0.128 C 
BRANCH  21  24
ATOM     22  C   UNL     1      -3.564  -3.047   4.775  0.00  0.00    +0.249 C 
ATOM     23  O   UNL     1      -3.068  -1.967   4.515  0.00  0.00    -0.270 OA
ATOM     24  N   UNL     1      -4.857  -3.284   4.476  0.00  0.00    -0.309 N 
ATOM     25  H   UNL     1      -5.272  -4.118   4.745  0.00  0.00    +0.149 HD
BRANCH  22  28
ATOM     26  N   UNL     1      -0.632  -4.840   6.202  0.00  0.00    -0.331 N 
ATOM     27  C   UNL     1      -1.403  -3.909   5.622  0.00  0.00    +0.104 A 
ATOM     28  C   UNL     1      -2.753  -4.094   5.415  0.00  0.00    +0.100 A 
ATOM     29  C   UNL     1      -3.369  -5.360   5.848  0.00  0.00    +0.203 A 
ATOM     30  O   UNL     1      -4.558  -5.575   5.690  0.00  0.00    -0.286 OA
ATOM     31  C   UNL     1      -2.485  -6.354   6.481  0.00  0.00    +0.065 A 
ATOM     32  C   UNL     1      -1.121  -6.052   6.632  0.00  0.00    +0.145 A 
ATOM     33  N   UNL     1      -0.311  -6.939   7.196  0.00  0.00    -0.234 NA
ATOM     34  C   UNL     1      -0.749  -8.107   7.617  0.00  0.00    +0.041 A 
ATOM     35  C   UNL     1      -2.080  -8.472   7.494  0.00  0.00    +0.024 A 
ATOM     36  C   UNL     1      -2.975  -7.584   6.925  0.00  0.00    +0.017 A 
ATOM     37  C   UNL     1       0.222  -9.072   8.249  0.00  0.00    +0.065 C 
BRANCH  26  39
ATOM     38  C   UNL     1       1.566  -5.029   5.147  0.00  0.00    +0.027 C 
ATOM     39  C   UNL     1       0.794  -4.556   6.380  0.00  0.00    +0.120 C 
ENDBRANCH  26  39
ENDBRANCH  22  28
ENDBRANCH  21  24
ENDBRANCH   1  21
TORSDOF 6
