REMARK  Name = ZINC08961341
REMARK  5 active torsions:
REMARK  status: ('A' for Active; 'I' for Inactive)
REMARK    1  A    between atoms: C_1  and  C_2
REMARK    2  A    between atoms: C_13  and  N_18
REMARK    3  A    between atoms: N_18  and  S_19
REMARK    4  A    between atoms: S_19  and  C_22
REMARK    5  A    between atoms: C_22  and  C_23
REMARK                            x       y       z     vdW  Elec       q    Type
REMARK                         _______ _______ _______ _____ _____    ______ ____
ROOT
ATOM      1  C   UNL     1      -3.939   5.563  -1.525  0.00  0.00    +0.044 C 
ATOM      2  C   UNL     1      -2.783   5.031  -0.717  0.00  0.00    -0.048 A 
ATOM      3  C   UNL     1      -2.012   5.896   0.037  0.00  0.00    +0.007 A 
ATOM      4  C   UNL     1      -0.943   5.412   0.766  0.00  0.00    +0.048 A 
ATOM      5  C   UNL     1      -0.638   4.057   0.746  0.00  0.00    +0.150 A 
ATOM      6  C   UNL     1      -1.431   3.183   0.013  0.00  0.00    +0.077 A 
ATOM      7  C   UNL     1      -2.496   3.680  -0.731  0.00  0.00    +0.030 A 
ATOM      8  N   UNL     1      -1.200   1.808   0.018  0.00  0.00    -0.278 N 
ATOM      9  C   UNL     1      -0.014   1.212   0.009  0.00  0.00    +0.252 C 
ATOM     10  O   UNL     1       0.002  -0.004   0.002  0.00  0.00    -0.270 OA
ATOM     11  C   UNL     1       1.280   1.907   0.000  0.00  0.00    +0.081 A 
ATOM     12  C   UNL     1       2.337   1.398  -0.760  0.00  0.00    +0.041 A 
ATOM     13  C   UNL     1       3.567   2.034  -0.747  0.00  0.00    +0.049 A 
ATOM     14  C   UNL     1       3.752   3.176   0.025  0.00  0.00    +0.028 A 
ATOM     15  C   UNL     1       2.710   3.690   0.769  0.00  0.00    +0.049 A 
ATOM     16  C   UNL     1       1.466   3.073   0.751  0.00  0.00    +0.141 A 
ATOM     17  O   UNL     1       0.439   3.619   1.442  0.00  0.00    -0.453 OA
ATOM     18  H   UNL     1      -1.980   1.232   0.034  0.00  0.00    +0.155 HD
ENDROOT
BRANCH  13  19
ATOM     19  N   UNL     1       4.624   1.527  -1.510  0.00  0.00    -0.220 N 
ATOM     20  H   UNL     1       4.471   1.250  -2.427  0.00  0.00    +0.173 HD
BRANCH  19  21
ATOM     21  S   UNL     1       6.137   1.400  -0.849  0.00  0.00    +0.047 S 
ATOM     22  O   UNL     1       6.947   0.881  -1.895  0.00  0.00    -0.155 OA
ATOM     23  O   UNL     1       6.400   2.683  -0.297  0.00  0.00    -0.155 OA
BRANCH  21  24
ATOM     24  C   UNL     1       5.965   0.173   0.476  0.00  0.00    +0.223 C 
BRANCH  24  25
ATOM     25  C   UNL     1       7.296  -0.024   1.154  0.00  0.00    -0.025 A 
ATOM     26  C   UNL     1       8.170  -0.992   0.694  0.00  0.00    +0.005 A 
ATOM     27  C   UNL     1       9.393  -1.169   1.313  0.00  0.00    +0.000 A 
ATOM     28  C   UNL     1       9.739  -0.385   2.398  0.00  0.00    +0.000 A 
ATOM     29  C   UNL     1       8.863   0.578   2.862  0.00  0.00    +0.000 A 
ATOM     30  C   UNL     1       7.641   0.759   2.240  0.00  0.00    +0.005 A 
ENDBRANCH  24  25
ENDBRANCH  21  24
ENDBRANCH  19  21
ENDBRANCH  13  19
TORSDOF 4
