REMARK  Name = ZINC36588654
REMARK  17 active torsions:
REMARK  status: ('A' for Active; 'I' for Inactive)
REMARK    1  A    between atoms: C_1  and  C_2
REMARK    2  A    between atoms: C_2  and  C_4
REMARK    3  A    between atoms: C_2  and  C_10
REMARK    4  A    between atoms: C_10  and  C_12
REMARK    5  A    between atoms: C_10  and  N_19
REMARK    6  A    between atoms: N_14  and  C_15
REMARK    7  A    between atoms: C_15  and  C_16
REMARK    8  A    between atoms: C_15  and  C_17
REMARK    9  A    between atoms: C_15  and  C_18
REMARK   10  A    between atoms: N_19  and  C_36
REMARK   11  A    between atoms: C_20  and  C_22
REMARK   12  A    between atoms: C_22  and  C_23
REMARK   13  A    between atoms: C_22  and  C_29
REMARK   14  A    between atoms: C_22  and  O_35
REMARK   15  A    between atoms: C_36  and  C_37
REMARK   16  A    between atoms: C_36  and  C_38
REMARK   17  A    between atoms: C_36  and  C_39
REMARK                            x       y       z     vdW  Elec       q    Type
REMARK                         _______ _______ _______ _____ _____    ______ ____
ROOT
ATOM      1  N   UNL     1       2.428  -1.579   0.416  0.00  0.00    -0.281 N 
ATOM      2  C   UNL     1       2.817  -1.340   1.684  0.00  0.00    +0.258 C 
ATOM      3  O   UNL     1       2.269  -1.909   2.604  0.00  0.00    -0.272 OA
ENDROOT
BRANCH   1   4
ATOM      4  C   UNL     1       2.928  -0.738  -0.675  0.00  0.00    +0.030 C 
ATOM      5  C   UNL     1       2.211   0.613  -0.647  0.00  0.00    +0.031 C 
ATOM      6  C   UNL     1       4.433  -0.520  -0.502  0.00  0.00    +0.031 C 
ATOM      7  C   UNL     1       2.663  -1.429  -2.014  0.00  0.00    +0.031 C 
ENDBRANCH   1   4
BRANCH   1   8
ATOM      8  C   UNL     1       1.505  -2.680   0.128  0.00  0.00    +0.170 C 
BRANCH   8   9
ATOM      9  C   UNL     1       2.139  -3.620  -0.865  0.00  0.00    +0.235 C 
ATOM     10  O   UNL     1       3.331  -3.559  -1.082  0.00  0.00    -0.274 OA
ATOM     11  N   UNL     1       1.381  -4.527  -1.512  0.00  0.00    -0.309 N 
ATOM     12  H   UNL     1       0.428  -4.576  -1.338  0.00  0.00    +0.149 HD
BRANCH  11  13
ATOM     13  C   UNL     1       1.997  -5.441  -2.477  0.00  0.00    +0.026 C 
ATOM     14  C   UNL     1       3.063  -6.284  -1.774  0.00  0.00    +0.031 C 
ATOM     15  C   UNL     1       0.925  -6.362  -3.064  0.00  0.00    +0.031 C 
ATOM     16  C   UNL     1       2.647  -4.633  -3.602  0.00  0.00    +0.031 C 
ENDBRANCH  11  13
ENDBRANCH   8   9
BRANCH   8  18
ATOM     17  C   UNL     1      -0.524  -1.305   0.612  0.00  0.00    +0.015 C 
ATOM     18  C   UNL     1       0.208  -2.118  -0.458  0.00  0.00    +0.045 C 
BRANCH  18  19
ATOM     19  C   UNL     1      -0.670  -3.254  -0.914  0.00  0.00    -0.042 A 
ATOM     20  C   UNL     1      -1.103  -4.202  -0.005  0.00  0.00    +0.004 A 
ATOM     21  C   UNL     1      -1.908  -5.244  -0.423  0.00  0.00    +0.000 A 
ATOM     22  C   UNL     1      -2.283  -5.339  -1.751  0.00  0.00    +0.000 A 
ATOM     23  C   UNL     1      -1.851  -4.391  -2.660  0.00  0.00    +0.000 A 
ATOM     24  C   UNL     1      -1.049  -3.346  -2.240  0.00  0.00    +0.004 A 
ENDBRANCH  18  19
ENDBRANCH   8  18
ENDBRANCH   1   8
BRANCH   2  25
ATOM     25  C   UNL     1       3.932  -0.364   1.958  0.00  0.00    +0.192 C 
BRANCH  25  26
ATOM     26  C   UNL     1       3.526   1.009   1.489  0.00  0.00    -0.003 A 
ATOM     27  C   UNL     1       2.295   1.526   1.849  0.00  0.00    +0.007 A 
ATOM     28  C   UNL     1       1.922   2.786   1.419  0.00  0.00    +0.000 A 
ATOM     29  C   UNL     1       2.780   3.528   0.629  0.00  0.00    +0.000 A 
ATOM     30  C   UNL     1       4.011   3.012   0.270  0.00  0.00    +0.000 A 
ATOM     31  C   UNL     1       4.386   1.754   0.704  0.00  0.00    +0.007 A 
ENDBRANCH  25  26
BRANCH  25  32
ATOM     32  C   UNL     1       4.214  -0.327   3.439  0.00  0.00    -0.003 A 
ATOM     33  C   UNL     1       3.180  -0.486   4.343  0.00  0.00    +0.007 A 
ATOM     34  C   UNL     1       3.438  -0.452   5.700  0.00  0.00    +0.000 A 
ATOM     35  C   UNL     1       4.730  -0.258   6.154  0.00  0.00    +0.000 A 
ATOM     36  C   UNL     1       5.763  -0.099   5.250  0.00  0.00    +0.000 A 
ATOM     37  C   UNL     1       5.506  -0.138   3.892  0.00  0.00    +0.007 A 
ENDBRANCH  25  32
BRANCH  25  38
ATOM     38  O   UNL     1       5.109  -0.777   1.260  0.00  0.00    -0.371 OA
ATOM     39  H   UNL     1       5.388  -1.681   1.460  0.00  0.00    +0.212 HD
ENDBRANCH  25  38
ENDBRANCH   2  25
TORSDOF 10
