REMARK  Name = ZINC21793465
REMARK  7 active torsions:
REMARK  status: ('A' for Active; 'I' for Inactive)
REMARK    1  A    between atoms: C_1  and  C_2
REMARK    2  A    between atoms: N_7  and  C_15
REMARK    3  A    between atoms: C_15  and  C_16
REMARK    4  A    between atoms: C_19  and  C_22
REMARK    5  A    between atoms: C_22  and  C_23
REMARK    6  A    between atoms: C_22  and  C_24
REMARK    7  A    between atoms: C_22  and  C_25
REMARK                            x       y       z     vdW  Elec       q    Type
REMARK                         _______ _______ _______ _____ _____    ______ ____
ROOT
ATOM      1  C   UNL     1       4.518   1.784   2.278  0.00  0.00    +0.028 C 
ATOM      2  C   UNL     1       3.964   2.804   1.282  0.00  0.00    +0.076 C 
ATOM      3  C   UNL     1       2.739   3.492   1.887  0.00  0.00    +0.118 C 
ATOM      4  C   UNL     1       1.953   4.192   0.809  0.00  0.00    +0.222 C 
ATOM      5  O   UNL     1       2.015   5.399   0.706  0.00  0.00    -0.275 OA
ATOM      6  N   UNL     1       1.180   3.484  -0.042  0.00  0.00    -0.265 N 
ATOM      7  C   UNL     1       1.175   2.084   0.002  0.00  0.00    +0.057 A 
ATOM      8  C   UNL     1      -0.017   1.379   0.010  0.00  0.00    +0.025 A 
ATOM      9  C   UNL     1       0.002  -0.004   0.002  0.00  0.00    +0.002 A 
ATOM     10  C   UNL     1       1.206  -0.685  -0.011  0.00  0.00    +0.002 A 
ATOM     11  C   UNL     1       2.400   0.012  -0.006  0.00  0.00    +0.025 A 
ATOM     12  C   UNL     1       2.390   1.397   0.007  0.00  0.00    +0.049 A 
ATOM     13  N   UNL     1       3.589   2.120   0.043  0.00  0.00    -0.339 N 
ATOM     14  H   UNL     1       4.245   2.179  -0.838  0.00  0.00    +0.146 HD
ENDROOT
BRANCH   6  15
ATOM     15  C   UNL     1       0.342   4.184  -1.018  0.00  0.00    +0.148 C 
BRANCH  15  16
ATOM     16  C   UNL     1       1.120   4.391  -2.292  0.00  0.00    -0.030 A 
ATOM     17  C   UNL     1       1.870   5.539  -2.466  0.00  0.00    +0.005 A 
ATOM     18  C   UNL     1       2.588   5.726  -3.632  0.00  0.00    +0.004 A 
ATOM     19  C   UNL     1       2.547   4.770  -4.630  0.00  0.00    -0.042 A 
ATOM     20  C   UNL     1       1.793   3.624  -4.458  0.00  0.00    +0.004 A 
ATOM     21  C   UNL     1       1.080   3.435  -3.289  0.00  0.00    +0.005 A 
BRANCH  19  22
ATOM     22  C   UNL     1       3.325   4.977  -5.904  0.00  0.00    -0.013 C 
ATOM     23  C   UNL     1       2.362   4.987  -7.093  0.00  0.00    +0.015 C 
ATOM     24  C   UNL     1       4.066   6.313  -5.837  0.00  0.00    +0.015 C 
ATOM     25  C   UNL     1       4.335   3.841  -6.075  0.00  0.00    +0.015 C 
ENDBRANCH  19  22
ENDBRANCH  15  16
ENDBRANCH   6  15
TORSDOF 3
