REMARK  Name = ZINC13003729
REMARK  8 active torsions:
REMARK  status: ('A' for Active; 'I' for Inactive)
REMARK    1  A    between atoms: C_1  and  C_2
REMARK    2  A    between atoms: C_7  and  C_8
REMARK    3  A    between atoms: C_13  and  C_16
REMARK    4  A    between atoms: C_16  and  N_62
REMARK    5  A    between atoms: C_18  and  C_25
REMARK    6  A    between atoms: C_21  and  C_24
REMARK    7  A    between atoms: C_27  and  C_31
REMARK    8  A    between atoms: C_27  and  C_32
REMARK                            x       y       z     vdW  Elec       q    Type
REMARK                         _______ _______ _______ _____ _____    ______ ____
ROOT
ATOM      1  C   UNL     1       4.636   0.458  -0.039  0.00  0.00    +0.266 C 
ATOM      2  O   UNL     1       4.424   1.656  -0.031  0.00  0.00    -0.268 OA
ATOM      3  N   UNL     1       3.604  -0.409  -0.034  0.00  0.00    -0.259 N 
ATOM      4  C   UNL     1       2.299   0.065  -0.019  0.00  0.00    +0.165 A 
ATOM      5  N   UNL     1       1.170  -0.617  -0.012  0.00  0.00    -0.231 NA
ATOM      6  C   UNL     1       0.002  -0.004   0.002  0.00  0.00    +0.034 A 
ATOM      7  C   UNL     1      -0.016   1.351   0.009  0.00  0.00    +0.070 A 
ATOM      8  S   UNL     1       1.735   1.707  -0.005  0.00  0.00    -0.060 S 
ATOM      9  H   UNL     1       3.773  -1.364  -0.041  0.00  0.00    +0.157 HD
ENDROOT
BRANCH   1  16
ATOM     10  C   UNL     1       7.209   2.233  -0.056  0.00  0.00    +0.047 C 
ATOM     11  C   UNL     1       7.146   0.727  -0.062  0.00  0.00    -0.010 A 
ATOM     12  C   UNL     1       8.232  -0.156  -0.075  0.00  0.00    +0.042 A 
ATOM     13  C   UNL     1       7.723  -1.454  -0.079  0.00  0.00    +0.028 A 
ATOM     14  N   UNL     1       6.392  -1.373  -0.059  0.00  0.00    -0.354 N 
ATOM     15  H   UNL     1       5.784  -2.128  -0.051  0.00  0.00    +0.166 HD
ATOM     16  C   UNL     1       6.016  -0.043  -0.055  0.00  0.00    +0.106 A 
ATOM     17  C   UNL     1       8.603  -2.679  -0.097  0.00  0.00    +0.060 C 
ATOM     18  C   UNL     1       9.992  -2.294  -0.615  0.00  0.00    -0.023 C 
ATOM     19  C   UNL     1      10.556  -1.111   0.178  0.00  0.00    +0.086 C 
ATOM     20  C   UNL     1       9.680   0.105  -0.083  0.00  0.00    +0.166 C 
ATOM     21  O   UNL     1      10.141   1.209  -0.283  0.00  0.00    -0.292 OA
ATOM     22  C   UNL     1       9.890  -1.908  -2.092  0.00  0.00    +0.011 C 
ATOM     23  C   UNL     1      10.932  -3.492  -0.471  0.00  0.00    +0.011 C 
ENDBRANCH   1  16
BRANCH   6  24
ATOM     24  C   UNL     1      -1.282  -0.792   0.011  0.00  0.00    -0.022 C 
BRANCH  24  32
ATOM     25  C   UNL     1      -0.489  -1.655  -2.108  0.00  0.00    -0.075 C 
ATOM     26  C   UNL     1      -0.873  -1.873  -3.573  0.00  0.00    -0.031 C 
ATOM     27  C   UNL     1      -2.031  -2.872  -3.650  0.00  0.00    +0.003 C 
ATOM     28  C   UNL     1      -3.210  -2.339  -2.831  0.00  0.00    -0.031 C 
ATOM     29  C   UNL     1      -2.758  -2.107  -1.387  0.00  0.00    -0.075 C 
ATOM     30  C   UNL     1      -4.350  -3.359  -2.852  0.00  0.00    +0.005 C 
ATOM     31  C   UNL     1       0.330  -2.426  -4.340  0.00  0.00    +0.005 C 
ATOM     32  N   UNL     1      -1.659  -1.119  -1.380  0.00  0.00    +0.384 N 
ATOM     33  H   UNL     1      -1.978  -0.263  -1.849  0.00  0.00    -0.081 HD
ENDBRANCH  24  32
ENDBRANCH   6  24
TORSDOF 3
