REMARK  Name = ZINC13635390
REMARK  4 active torsions:
REMARK  status: ('A' for Active; 'I' for Inactive)
REMARK    1  A    between atoms: C_1  and  C_2
REMARK    2  A    between atoms: C_2  and  C_3
REMARK    3  A    between atoms: C_3  and  N_4
REMARK    4  A    between atoms: N_29  and  C_30
REMARK                            x       y       z     vdW  Elec       q    Type
REMARK                         _______ _______ _______ _____ _____    ______ ____
ROOT
ATOM      1  N   UNL     1       2.169   0.791  -0.039  0.00  0.00    -0.269 N 
ATOM      2  C   UNL     1       1.375  -0.342  -0.042  0.00  0.00    +0.042 A 
ATOM      3  C   UNL     1       1.749  -1.686  -0.067  0.00  0.00    +0.024 A 
ATOM      4  C   UNL     1       0.733  -2.628  -0.062  0.00  0.00    +0.002 A 
ATOM      5  C   UNL     1      -0.599  -2.266  -0.036  0.00  0.00    +0.000 A 
ATOM      6  C   UNL     1      -0.985  -0.930  -0.013  0.00  0.00    +0.008 A 
ATOM      7  C   UNL     1       0.020   0.013  -0.017  0.00  0.00    +0.012 A 
ATOM      8  C   UNL     1      -0.018   1.506   0.003  0.00  0.00    +0.183 C 
ATOM      9  C   UNL     1       1.435   1.924  -0.012  0.00  0.00    +0.254 C 
ATOM     10  O   UNL     1       1.860   3.060  -0.002  0.00  0.00    -0.272 OA
ATOM     11  C   UNL     1      -0.732   2.056  -1.204  0.00  0.00    +0.058 A 
ATOM     12  C   UNL     1      -1.909   2.717  -1.128  0.00  0.00    -0.015 A 
ATOM     13  C   UNL     1      -2.276   3.085  -2.480  0.00  0.00    +0.003 A 
ATOM     14  C   UNL     1      -3.371   3.774  -3.011  0.00  0.00    +0.010 A 
ATOM     15  C   UNL     1      -3.395   3.945  -4.373  0.00  0.00    +0.001 A 
ATOM     16  C   UNL     1      -2.388   3.464  -5.194  0.00  0.00    +0.002 A 
ATOM     17  C   UNL     1      -1.292   2.780  -4.695  0.00  0.00    +0.026 A 
ATOM     18  C   UNL     1      -1.241   2.591  -3.316  0.00  0.00    +0.047 A 
ATOM     19  N   UNL     1      -0.326   1.977  -2.510  0.00  0.00    -0.355 N 
ATOM     20  H   UNL     1       0.489   1.549  -2.816  0.00  0.00    +0.166 HD
ATOM     21  C   UNL     1      -2.653   2.994   0.153  0.00  0.00    +0.056 C 
ATOM     22  C   UNL     1      -2.149   2.041   1.244  0.00  0.00    +0.116 C 
ATOM     23  N   UNL     1      -0.678   2.010   1.212  0.00  0.00    -0.262 N 
ATOM     24  C   UNL     1       0.045   2.435   2.267  0.00  0.00    +0.304 C 
ATOM     25  O   UNL     1       1.254   2.304   2.268  0.00  0.00    -0.253 OA
ATOM     26  N   UNL     1      -0.572   3.004   3.321  0.00  0.00    -0.296 N 
ATOM     27  H   UNL     1      -1.541   3.042   3.353  0.00  0.00    +0.151 HD
ENDROOT
BRANCH  26  28
ATOM     28  C   UNL     1       0.220   3.563   4.419  0.00  0.00    +0.074 C 
ATOM     29  C   UNL     1       0.573   2.453   5.411  0.00  0.00    +0.022 C 
ATOM     30  C   UNL     1       1.400   3.038   6.558  0.00  0.00    +0.002 C 
ATOM     31  C   UNL     1       0.589   4.121   7.272  0.00  0.00    +0.000 C 
ATOM     32  C   UNL     1       0.236   5.231   6.279  0.00  0.00    +0.002 C 
ATOM     33  C   UNL     1      -0.591   4.646   5.133  0.00  0.00    +0.022 C 
ENDBRANCH  26  28
BRANCH   1  34
ATOM     34  C   UNL     1       3.634   0.765  -0.061  0.00  0.00    +0.113 C 
BRANCH  34  36
ATOM     35  C   UNL     1       5.652   0.748  -1.534  0.00  0.00    +0.005 C 
ATOM     36  C   UNL     1       4.122   0.775  -1.511  0.00  0.00    +0.016 C 
ENDBRANCH  34  36
ENDBRANCH   1  34
TORSDOF 3
