REMARK  Name = ZINC22207900
REMARK  10 active torsions:
REMARK  status: ('A' for Active; 'I' for Inactive)
REMARK    1  A    between atoms: C_1  and  C_2
REMARK    2  A    between atoms: C_2  and  C_3
REMARK    3  A    between atoms: C_6  and  C_9
REMARK    4  A    between atoms: C_15  and  C_17
REMARK    5  A    between atoms: C_17  and  S_18
REMARK    6  A    between atoms: S_18  and  C_19
REMARK    7  A    between atoms: N_23  and  C_24
REMARK    8  A    between atoms: C_24  and  C_25
REMARK    9  A    between atoms: C_25  and  O_26
REMARK   10  A    between atoms: O_26  and  C_27
REMARK                            x       y       z     vdW  Elec       q    Type
REMARK                         _______ _______ _______ _____ _____    ______ ____
ROOT
ATOM      1  C   UNL     1       4.639   0.904  -0.037  0.00  0.00    +0.080 A 
ATOM      2  C   UNL     1       4.453  -0.451  -0.043  0.00  0.00    +0.076 A 
ATOM      3  S   UNL     1       2.667  -0.540  -0.018  0.00  0.00    -0.060 S 
ATOM      4  C   UNL     1       2.356   1.220  -0.014  0.00  0.00    +0.165 A 
ATOM      5  N   UNL     1       3.584   1.704  -0.023  0.00  0.00    -0.225 NA
ATOM      6  N   UNL     1       1.143   1.898   0.001  0.00  0.00    -0.264 N 
ATOM      7  C   UNL     1      -0.014   1.209   0.009  0.00  0.00    +0.229 C 
ATOM      8  O   UNL     1       0.002  -0.004   0.002  0.00  0.00    -0.275 OA
ATOM      9  H   UNL     1       1.129   2.998   0.007  0.00  0.00    +0.157 HD
ENDROOT
BRANCH   1  13
ATOM     10  C   UNL     1       8.567   2.531  -0.065  0.00  0.00    -0.048 A 
ATOM     11  C   UNL     1       7.472   3.375  -0.050  0.00  0.00    +0.004 A 
ATOM     12  C   UNL     1       6.194   2.853  -0.041  0.00  0.00    +0.010 A 
ATOM     13  C   UNL     1       6.009   1.471  -0.047  0.00  0.00    +0.001 A 
ATOM     14  C   UNL     1       7.117   0.625  -0.056  0.00  0.00    +0.010 A 
ATOM     15  C   UNL     1       8.389   1.159  -0.070  0.00  0.00    +0.004 A 
BRANCH  10  17
ATOM     16  C   UNL     1      10.444   3.295   1.365  0.00  0.00    +0.009 C 
ATOM     17  C   UNL     1       9.959   3.107  -0.074  0.00  0.00    +0.032 C 
ENDBRANCH  10  17
ENDBRANCH   1  13
BRANCH   7  18
ATOM     18  C   UNL     1      -1.330   1.944   0.019  0.00  0.00    +0.173 C 
BRANCH  18  19
ATOM     19  S   UNL     1      -2.689   0.750   0.019  0.00  0.00    -0.077 S 
BRANCH  19  20
ATOM     20  C   UNL     1      -4.064   1.851   0.031  0.00  0.00    +0.192 A 
ATOM     21  N   UNL     1      -4.014   3.163   0.038  0.00  0.00    -0.123 NA
ATOM     22  N   UNL     1      -5.205   3.646   0.046  0.00  0.00    -0.137 NA
ATOM     23  C   UNL     1      -6.079   2.680   0.046  0.00  0.00    +0.225 A 
ATOM     24  N   UNL     1      -5.384   1.502   0.030  0.00  0.00    -0.306 N 
BRANCH  24  25
ATOM     25  C   UNL     1      -5.941   0.147   0.018  0.00  0.00    +0.153 C 
BRANCH  25  26
ATOM     26  C   UNL     1      -6.016  -0.386   1.451  0.00  0.00    +0.181 C 
BRANCH  26  27
ATOM     27  O   UNL     1      -6.559  -1.708   1.439  0.00  0.00    -0.381 OA
ATOM     28  C   UNL     1      -6.672  -2.301   2.735  0.00  0.00    +0.194 C 
ENDBRANCH  26  27
ENDBRANCH  25  26
ENDBRANCH  24  25
ENDBRANCH  19  20
ENDBRANCH  18  19
ENDBRANCH   7  18
TORSDOF 8
