REMARK  Name = ZINC31820020
REMARK  4 active torsions:
REMARK  status: ('A' for Active; 'I' for Inactive)
REMARK    1  A    between atoms: C_5  and  N_7
REMARK    2  A    between atoms: C_10  and  C_17
REMARK    3  A    between atoms: C_12  and  C_15
REMARK    4  A    between atoms: C_13  and  N_14
REMARK                            x       y       z     vdW  Elec       q    Type
REMARK                         _______ _______ _______ _____ _____    ______ ____
ROOT
ATOM      1  N   UNL     1      -1.200  -0.723   0.009  0.00  0.00    -0.257 N 
ATOM      2  C   UNL     1      -1.795  -1.065  -1.177  0.00  0.00    +0.025 C 
ATOM      3  C   UNL     1      -2.700  -2.065  -1.229  0.00  0.00    +0.025 C 
ATOM      4  C   UNL     1      -3.080  -2.832   0.012  0.00  0.00    +0.097 C 
ATOM      5  C   UNL     1      -2.687  -2.085   1.253  0.00  0.00    +0.077 C 
ATOM      6  C   UNL     1      -1.773  -1.084   1.208  0.00  0.00    +0.107 C 
ATOM      7  C   UNL     1      -3.312  -2.425  -2.442  0.00  0.00    +0.162 C 
ATOM      8  O   UNL     1      -4.136  -3.318  -2.452  0.00  0.00    -0.292 OA
ATOM      9  C   UNL     1      -2.967  -1.726  -3.728  0.00  0.00    +0.080 C 
ATOM     10  C   UNL     1      -1.528  -1.205  -3.642  0.00  0.00    +0.014 C 
ATOM     11  C   UNL     1      -1.415  -0.294  -2.417  0.00  0.00    +0.052 C 
ENDROOT
BRANCH   4  12
ATOM     12  C   UNL     1      -2.384  -4.168  -0.000  0.00  0.00    -0.034 A 
ATOM     13  C   UNL     1      -0.997  -4.222  -0.032  0.00  0.00    +0.006 A 
ATOM     14  C   UNL     1      -0.340  -5.433  -0.039  0.00  0.00    +0.026 A 
ATOM     15  C   UNL     1      -1.072  -6.616  -0.025  0.00  0.00    +0.046 A 
ATOM     16  C   UNL     1      -2.477  -6.556   0.002  0.00  0.00    -0.000 A 
ATOM     17  C   UNL     1      -3.122  -5.318   0.014  0.00  0.00    +0.014 A 
ATOM     18  C   UNL     1      -2.941  -7.946   0.012  0.00  0.00    +0.027 A 
ATOM     19  C   UNL     1      -1.848  -8.724  -0.009  0.00  0.00    +0.083 A 
ATOM     20  N   UNL     1      -0.722  -7.947  -0.030  0.00  0.00    -0.361 N 
ATOM     21  H   UNL     1       0.339  -8.237  -0.050  0.00  0.00    +0.165 HD
ENDBRANCH   4  12
BRANCH   1  26
ATOM     22  C   UNL     1       1.171   2.090   0.002  0.00  0.00    +0.002 A 
ATOM     23  C   UNL     1       2.378   1.416  -0.013  0.00  0.00    +0.003 A 
ATOM     24  C   UNL     1       2.402   0.034  -0.021  0.00  0.00    +0.040 A 
ATOM     25  C   UNL     1       1.218  -0.679  -0.013  0.00  0.00    +0.145 A 
ATOM     26  C   UNL     1       0.002  -0.004   0.002  0.00  0.00    +0.075 A 
ATOM     27  C   UNL     1      -0.017   1.384   0.010  0.00  0.00    +0.027 A 
ATOM     28  F   UNL     1       1.241  -2.030  -0.020  0.00  0.00    -0.204 F 
ENDBRANCH   1  26
BRANCH   6  29
ATOM     29  N   UNL     1      -1.421  -0.427   2.362  0.00  0.00    -0.345 N 
ATOM     30  H   UNL     1      -1.878  -0.715   3.320  0.00  0.00    +0.144 HD
ATOM     31  H   UNL     1      -0.682   0.388   2.328  0.00  0.00    +0.144 HD
ENDBRANCH   6  29
BRANCH   5  32
ATOM     32  C   UNL     1      -3.283  -2.439   2.506  0.00  0.00    +0.099 C 
ATOM     33  N   UNL     1      -3.756  -2.720   3.500  0.00  0.00    -0.191 NA
ENDBRANCH   5  32
TORSDOF 4
