REMARK  Name = ZINC07169484
REMARK  5 active torsions:
REMARK  status: ('A' for Active; 'I' for Inactive)
REMARK    1  A    between atoms: C_1  and  C_2
REMARK    2  A    between atoms: C_15  and  C_17
REMARK    3  A    between atoms: C_17  and  O_18
REMARK    4  A    between atoms: O_18  and  C_19
REMARK    5  A    between atoms: C_19  and  C_21
REMARK                            x       y       z     vdW  Elec       q    Type
REMARK                         _______ _______ _______ _____ _____    ______ ____
ROOT
ATOM      1  C   UNL     1       1.431  -5.054  -4.399  0.00  0.00    +0.029 C 
ATOM      2  C   UNL     1       0.020  -4.592  -4.030  0.00  0.00    +0.087 C 
ATOM      3  C   UNL     1      -0.930  -5.783  -4.089  0.00  0.00    +0.118 C 
ATOM      4  C   UNL     1      -2.211  -5.456  -3.369  0.00  0.00    +0.219 C 
ATOM      5  O   UNL     1      -3.212  -5.203  -4.006  0.00  0.00    -0.275 OA
ATOM      6  N   UNL     1      -2.253  -5.442  -2.019  0.00  0.00    -0.284 N 
ATOM      7  C   UNL     1      -1.087  -5.637  -1.271  0.00  0.00    +0.055 A 
ATOM      8  C   UNL     1      -1.065  -6.526  -0.209  0.00  0.00    +0.025 A 
ATOM      9  C   UNL     1       0.082  -6.662   0.551  0.00  0.00    +0.002 A 
ATOM     10  C   UNL     1       1.207  -5.914   0.254  0.00  0.00    +0.002 A 
ATOM     11  C   UNL     1       1.196  -5.032  -0.811  0.00  0.00    +0.025 A 
ATOM     12  C   UNL     1       0.054  -4.897  -1.582  0.00  0.00    +0.058 A 
ATOM     13  N   UNL     1       0.031  -4.025  -2.680  0.00  0.00    -0.264 N 
ATOM     14  C   UNL     1       0.015  -2.690  -2.496  0.00  0.00    +0.258 C 
ATOM     15  O   UNL     1      -0.004  -1.946  -3.454  0.00  0.00    -0.271 OA
ATOM     16  H   UNL     1      -3.098  -5.295  -1.565  0.00  0.00    +0.155 HD
ENDROOT
BRANCH  14  17
ATOM     17  C   UNL     1       0.021  -2.122  -1.101  0.00  0.00    +0.328 C 
BRANCH  17  18
ATOM     18  O   UNL     1       0.000  -0.671  -1.169  0.00  0.00    -0.452 OA
BRANCH  18  19
ATOM     19  C   UNL     1       0.002  -0.004   0.002  0.00  0.00    +0.344 C 
ATOM     20  O   UNL     1       0.020  -0.617   1.051  0.00  0.00    -0.245 OA
BRANCH  19  21
ATOM     21  C   UNL     1      -0.018   1.471   0.010  0.00  0.00    +0.112 A 
ATOM     22  C   UNL     1       1.182   2.191   0.003  0.00  0.00    +0.139 A 
ATOM     23  C   UNL     1       1.154   3.573   0.010  0.00  0.00    +0.039 A 
ATOM     24  C   UNL     1      -0.056   4.243   0.026  0.00  0.00    +0.004 A 
ATOM     25  C   UNL     1      -1.246   3.538   0.033  0.00  0.00    +0.021 A 
ATOM     26  C   UNL     1      -1.236   2.157   0.020  0.00  0.00    +0.058 A 
ATOM     27 CL   UNL     1      -2.732   1.276   0.021  0.00  0.00    -0.083 Cl
ATOM     28  F   UNL     1       2.364   1.537  -0.013  0.00  0.00    -0.205 F 
ENDBRANCH  19  21
ENDBRANCH  18  19
ENDBRANCH  17  18
ENDBRANCH  14  17
TORSDOF 4
