REMARK  Name = ZINC08609589
REMARK  10 active torsions:
REMARK  status: ('A' for Active; 'I' for Inactive)
REMARK    1  A    between atoms: C_1  and  C_2
REMARK    2  A    between atoms: C_6  and  C_8
REMARK    3  A    between atoms: C_8  and  S_9
REMARK    4  A    between atoms: S_9  and  C_10
REMARK    5  A    between atoms: C_15  and  C_32
REMARK    6  A    between atoms: C_17  and  C_21
REMARK    7  A    between atoms: C_18  and  C_20
REMARK    8  A    between atoms: N_23  and  C_24
REMARK    9  A    between atoms: C_27  and  C_31
REMARK   10  A    between atoms: C_29  and  C_30
REMARK                            x       y       z     vdW  Elec       q    Type
REMARK                         _______ _______ _______ _____ _____    ______ ____
ROOT
ATOM      1  C   UNL     1       1.576  -4.221   4.408  0.00  0.00    +0.211 A 
ATOM      2  N   UNL     1       0.432  -4.538   5.033  0.00  0.00    -0.187 NA
ATOM      3  C   UNL     1       0.703  -5.142   6.158  0.00  0.00    +0.219 A 
ATOM      4  N   UNL     1       2.051  -5.220   6.280  0.00  0.00    -0.219 N 
ATOM      5  N   UNL     1       2.591  -4.629   5.139  0.00  0.00    -0.141 NA
ATOM      6  C   UNL     1       2.725  -5.828   7.425  0.00  0.00    +0.184 C 
ATOM      7  C   UNL     1       1.722  -6.587   8.252  0.00  0.00    +0.061 C 
ATOM      8  C   UNL     1       0.397  -6.472   8.083  0.00  0.00    +0.018 C 
ATOM      9  N   UNL     1      -0.150  -5.653   7.126  0.00  0.00    -0.287 N 
ATOM     10  C   UNL     1      -0.522  -7.269   8.972  0.00  0.00    +0.061 C 
ATOM     11  H   UNL     1      -1.097  -5.439   7.127  0.00  0.00    +0.155 HD
ENDROOT
BRANCH   6  12
ATOM     12  C   UNL     1       3.356  -4.749   8.267  0.00  0.00    +0.019 A 
ATOM     13  C   UNL     1       4.662  -4.568   8.585  0.00  0.00    +0.013 A 
ATOM     14  C   UNL     1       5.015  -3.495   9.381  0.00  0.00    +0.008 A 
ATOM     15  C   UNL     1       4.046  -2.655   9.820  0.00  0.00    +0.045 A 
ATOM     16  S   UNL     1       2.580  -3.373   9.098  0.00  0.00    -0.099 S 
ENDBRANCH   6  12
BRANCH   7  17
ATOM     17  C   UNL     1       2.201  -7.464   9.254  0.00  0.00    +0.248 C 
ATOM     18  O   UNL     1       2.601  -8.574   8.951  0.00  0.00    -0.270 OA
ATOM     19  N   UNL     1       2.213  -7.072  10.543  0.00  0.00    -0.281 N 
ATOM     20  H   UNL     1       1.835  -6.214  10.792  0.00  0.00    +0.155 HD
BRANCH  19  21
ATOM     21  C   UNL     1       2.771  -7.901  11.521  0.00  0.00    +0.037 A 
ATOM     22  C   UNL     1       2.657  -9.281  11.411  0.00  0.00    +0.024 A 
ATOM     23  C   UNL     1       3.209 -10.097  12.378  0.00  0.00    +0.005 A 
ATOM     24  C   UNL     1       3.875  -9.542  13.456  0.00  0.00    -0.050 A 
ATOM     25  C   UNL     1       3.991  -8.169  13.568  0.00  0.00    +0.008 A 
ATOM     26  C   UNL     1       3.446  -7.347  12.601  0.00  0.00    -0.029 A 
ATOM     27  C   UNL     1       3.578  -5.851  12.721  0.00  0.00    +0.045 C 
ATOM     28  C   UNL     1       4.476 -10.436  14.510  0.00  0.00    +0.044 C 
ENDBRANCH  19  21
ENDBRANCH   7  17
BRANCH   1  29
ATOM     29  S   UNL     1       1.698  -3.397   2.856  0.00  0.00    -0.080 S 
BRANCH  29  30
ATOM     30  C   UNL     1      -0.026  -3.108   2.375  0.00  0.00    +0.112 C 
BRANCH  30  36
ATOM     31  C   UNL     1      -0.099   1.138  -0.274  0.00  0.00    +0.044 C 
ATOM     32  C   UNL     1      -0.100  -0.368  -0.222  0.00  0.00    -0.050 A 
ATOM     33  C   UNL     1      -0.138  -1.101  -1.395  0.00  0.00    +0.003 A 
ATOM     34  C   UNL     1      -0.139  -2.482  -1.347  0.00  0.00    +0.001 A 
ATOM     35  C   UNL     1      -0.103  -3.131  -0.127  0.00  0.00    +0.004 A 
ATOM     36  C   UNL     1      -0.065  -2.400   1.045  0.00  0.00    -0.037 A 
ATOM     37  C   UNL     1      -0.059  -1.018   0.997  0.00  0.00    +0.007 A 
ENDBRANCH  30  36
ENDBRANCH  29  30
ENDBRANCH   1  29
TORSDOF 6
