REMARK  Name = ZINC15188604
REMARK  4 active torsions:
REMARK  status: ('A' for Active; 'I' for Inactive)
REMARK    1  A    between atoms: C_1  and  C_2
REMARK    2  A    between atoms: C_3  and  C_12
REMARK    3  A    between atoms: C_16  and  N_34
REMARK    4  A    between atoms: C_21  and  N_28
REMARK                            x       y       z     vdW  Elec       q    Type
REMARK                         _______ _______ _______ _____ _____    ______ ____
ROOT
ATOM      1  C   UNL     1      -3.608   5.204   0.732  0.00  0.00    +0.063 C 
ATOM      2  C   UNL     1      -4.690   5.714   1.648  0.00  0.00    +0.004 A 
ATOM      3  C   UNL     1      -4.582   5.472   3.007  0.00  0.00    +0.040 A 
ATOM      4  C   UNL     1      -5.553   5.931   3.876  0.00  0.00    +0.127 A 
ATOM      5  C   UNL     1      -6.639   6.635   3.390  0.00  0.00    +0.036 A 
ATOM      6  C   UNL     1      -6.753   6.878   2.036  0.00  0.00    +0.048 A 
ATOM      7  C   UNL     1      -5.777   6.415   1.158  0.00  0.00    +0.127 A 
ATOM      8  O   UNL     1      -5.928   6.663  -0.168  0.00  0.00    -0.470 OA
ATOM      9  C   UNL     1      -4.781   6.532  -1.012  0.00  0.00    +0.169 C 
ATOM     10  C   UNL     1      -4.114   5.183  -0.715  0.00  0.00    +0.060 C 
ATOM     11  C   UNL     1      -2.917   4.989  -1.650  0.00  0.00    +0.010 C 
ATOM     12  C   UNL     1      -3.385   5.021  -3.105  0.00  0.00    +0.001 C 
ATOM     13  C   UNL     1      -4.034   6.376  -3.396  0.00  0.00    +0.005 C 
ATOM     14  C   UNL     1      -5.237   6.580  -2.473  0.00  0.00    +0.065 C 
ENDROOT
BRANCH   1  17
ATOM     15  C   UNL     1      -5.489   2.737   0.833  0.00  0.00    +0.063 C 
ATOM     16  C   UNL     1      -4.026   2.736   1.193  0.00  0.00    +0.018 A 
ATOM     17  C   UNL     1      -3.220   3.808   1.145  0.00  0.00    -0.011 A 
ATOM     18  C   UNL     1      -1.891   3.364   1.573  0.00  0.00    +0.004 A 
ATOM     19  C   UNL     1      -0.658   4.001   1.730  0.00  0.00    +0.010 A 
ATOM     20  C   UNL     1       0.425   3.288   2.159  0.00  0.00    +0.001 A 
ATOM     21  C   UNL     1       0.310   1.933   2.440  0.00  0.00    +0.002 A 
ATOM     22  C   UNL     1      -0.896   1.284   2.292  0.00  0.00    +0.026 A 
ATOM     23  C   UNL     1      -2.011   1.990   1.851  0.00  0.00    +0.047 A 
ATOM     24  N   UNL     1      -3.322   1.641   1.615  0.00  0.00    -0.358 N 
ATOM     25  H   UNL     1      -3.826   0.669   1.718  0.00  0.00    +0.166 HD
ENDBRANCH   1  17
BRANCH   9  26
ATOM     26  N   UNL     1      -3.837   7.627  -0.747  0.00  0.00    -0.261 NA
ATOM     27  C   UNL     1      -2.457   7.217  -1.048  0.00  0.00    +0.116 C 
ATOM     28  C   UNL     1      -1.517   8.402  -0.816  0.00  0.00    +0.175 C 
ATOM     29  O   UNL     1      -1.663   8.863   0.530  0.00  0.00    -0.377 OA
ATOM     30  C   UNL     1      -2.994   9.271   0.858  0.00  0.00    +0.175 C 
ATOM     31  C   UNL     1      -3.950   8.094   0.642  0.00  0.00    +0.116 C 
ENDBRANCH   9  26
BRANCH   4  32
ATOM     32  N   UNL     1      -5.431   5.668   5.328  0.00  0.00    +0.056 N 
ATOM     33  O   UNL     1      -6.287   6.072   6.094  0.00  0.00    -0.126 OA
ATOM     34  O   UNL     1      -4.474   5.047   5.756  0.00  0.00    -0.126 OA
ENDBRANCH   4  32
TORSDOF 3
