REMARK  Name = ZINC38686187
REMARK  12 active torsions:
REMARK  status: ('A' for Active; 'I' for Inactive)
REMARK    1  A    between atoms: C_1  and  C_2
REMARK    2  A    between atoms: C_2  and  C_3
REMARK    3  A    between atoms: C_3  and  C_4
REMARK    4  A    between atoms: C_4  and  C_5
REMARK    5  A    between atoms: C_5  and  O_6
REMARK    6  A    between atoms: O_6  and  C_7
REMARK    7  A    between atoms: C_12  and  C_13
REMARK    8  A    between atoms: C_18  and  O_27
REMARK    9  A    between atoms: C_22  and  N_26
REMARK   10  A    between atoms: C_23  and  C_24
REMARK   11  A    between atoms: O_27  and  C_28
REMARK   12  A    between atoms: C_28  and  C_30
REMARK                            x       y       z     vdW  Elec       q    Type
REMARK                         _______ _______ _______ _____ _____    ______ ____
ROOT
ATOM      1  C   UNL     1       1.478  -6.734  -2.542  0.00  0.00    +0.101 C 
ATOM      2  C   UNL     1       0.411  -7.617  -3.132  0.00  0.00    +0.008 A 
ATOM      3  C   UNL     1      -0.850  -7.098  -3.366  0.00  0.00    +0.012 A 
ATOM      4  C   UNL     1      -1.841  -7.894  -3.906  0.00  0.00    +0.047 A 
ATOM      5  C   UNL     1      -1.573  -9.220  -4.217  0.00  0.00    +0.135 A 
ATOM      6  C   UNL     1      -0.311  -9.743  -3.985  0.00  0.00    +0.093 A 
ATOM      7  C   UNL     1       0.684  -8.941  -3.442  0.00  0.00    +0.138 A 
ATOM      8  O   UNL     1       1.914  -9.467  -3.220  0.00  0.00    -0.441 OA
ATOM      9  C   UNL     1       2.756  -8.865  -2.364  0.00  0.00    +0.199 C 
ATOM     10  C   UNL     1       2.603  -7.572  -2.005  0.00  0.00    +0.098 C 
ENDROOT
BRANCH   1  16
ATOM     11  C   UNL     1       1.900  -4.436  -3.454  0.00  0.00    +0.125 A 
ATOM     12  C   UNL     1       2.394  -3.589  -4.435  0.00  0.00    +0.046 A 
ATOM     13  C   UNL     1       2.986  -4.115  -5.566  0.00  0.00    +0.004 A 
ATOM     14  C   UNL     1       3.088  -5.486  -5.721  0.00  0.00    +0.001 A 
ATOM     15  C   UNL     1       2.596  -6.332  -4.745  0.00  0.00    +0.008 A 
ATOM     16  C   UNL     1       2.008  -5.811  -3.609  0.00  0.00    +0.007 A 
BRANCH  11  17
ATOM     17  O   UNL     1       1.317  -3.921  -2.340  0.00  0.00    -0.492 OA
BRANCH  17  18
ATOM     18  C   UNL     1       1.241  -2.497  -2.247  0.00  0.00    +0.229 C 
BRANCH  18  19
ATOM     19  C   UNL     1       0.559  -2.107  -0.934  0.00  0.00    +0.041 C 
BRANCH  19  20
ATOM     20  C   UNL     1       0.477  -0.582  -0.836  0.00  0.00    +0.003 C 
BRANCH  20  22
ATOM     21  C   UNL     1      -0.287   1.333   0.576  0.00  0.00    +0.004 C 
ATOM     22  C   UNL     1      -0.205  -0.192   0.477  0.00  0.00    -0.003 C 
ENDBRANCH  20  22
ENDBRANCH  19  20
ENDBRANCH  18  19
ENDBRANCH  17  18
ENDBRANCH  11  17
ENDBRANCH   1  16
BRANCH   9  23
ATOM     23  N   UNL     1       3.802  -9.584  -1.841  0.00  0.00    -0.328 N 
ATOM     24  H   UNL     1       3.924 -10.514  -2.091  0.00  0.00    +0.145 HD
ATOM     25  H   UNL     1       4.419  -9.163  -1.222  0.00  0.00    +0.145 HD
ENDBRANCH   9  23
BRANCH  10  26
ATOM     26  C   UNL     1       3.537  -6.988  -1.089  0.00  0.00    +0.101 C 
ATOM     27  N   UNL     1       4.278  -6.525  -0.363  0.00  0.00    -0.191 NA
ENDBRANCH  10  26
BRANCH   5  28
ATOM     28  O   UNL     1      -2.548 -10.005  -4.748  0.00  0.00    -0.422 OA
BRANCH  28  29
ATOM     29  C   UNL     1      -2.956  -9.743  -6.005  0.00  0.00    +0.344 C 
ATOM     30  O   UNL     1      -2.385  -8.898  -6.665  0.00  0.00    -0.245 OA
BRANCH  29  31
ATOM     31  C   UNL     1      -4.098 -10.483  -6.580  0.00  0.00    +0.061 A 
ATOM     32  C   UNL     1      -4.759 -11.452  -5.822  0.00  0.00    +0.015 A 
ATOM     33  C   UNL     1      -5.824 -12.140  -6.364  0.00  0.00    +0.002 A 
ATOM     34  C   UNL     1      -6.238 -11.873  -7.658  0.00  0.00    +0.020 A 
ATOM     35  C   UNL     1      -5.587 -10.915  -8.416  0.00  0.00    +0.042 A 
ATOM     36  C   UNL     1      -4.523 -10.214  -7.882  0.00  0.00    +0.035 A 
ATOM     37 CL   UNL     1      -6.114 -10.588 -10.037  0.00  0.00    -0.084 Cl
ENDBRANCH  29  31
ENDBRANCH  28  29
ENDBRANCH   5  28
TORSDOF 11
