REMARK  Name = ZINC36271403
REMARK  12 active torsions:
REMARK  status: ('A' for Active; 'I' for Inactive)
REMARK    1  A    between atoms: C_1  and  C_2
REMARK    2  A    between atoms: C_3  and  C_20
REMARK    3  A    between atoms: C_4  and  C_10
REMARK    4  A    between atoms: C_13  and  C_16
REMARK    5  A    between atoms: C_16  and  C_17
REMARK    6  A    between atoms: C_16  and  C_18
REMARK    7  A    between atoms: C_16  and  C_19
REMARK    8  A    between atoms: N_22  and  C_23
REMARK    9  A    between atoms: C_25  and  O_31
REMARK   10  A    between atoms: C_28  and  O_29
REMARK   11  A    between atoms: O_29  and  C_30
REMARK   12  A    between atoms: O_31  and  C_32
REMARK                            x       y       z     vdW  Elec       q    Type
REMARK                         _______ _______ _______ _____ _____    ______ ____
ROOT
ATOM      1  C   UNL     1       0.077   1.141   0.328  0.00  0.00    +0.061 C 
ATOM      2  C   UNL     1       0.024  -0.330   0.008  0.00  0.00    +0.017 C 
ATOM      3  C   UNL     1      -1.171  -0.956  -0.043  0.00  0.00    +0.056 C 
ATOM      4  C   UNL     1      -1.179  -2.436  -0.368  0.00  0.00    +0.139 C 
ATOM      5  N   UNL     1       0.127  -3.075  -0.603  0.00  0.00    -0.315 N 
ATOM      6  C   UNL     1       1.237  -2.315  -0.516  0.00  0.00    +0.135 C 
ATOM      7  S   UNL     1       2.762  -3.044  -0.787  0.00  0.00    -0.019 S 
ATOM      8  N   UNL     1       1.185  -1.008  -0.231  0.00  0.00    -0.300 N 
ATOM      9  H   UNL     1       0.187  -4.019  -0.815  0.00  0.00    +0.149 HD
ATOM     10  H   UNL     1       2.020  -0.516  -0.187  0.00  0.00    +0.154 HD
ENDROOT
BRANCH   4  11
ATOM     11  C   UNL     1      -2.022  -2.636  -1.601  0.00  0.00    -0.023 A 
ATOM     12  C   UNL     1      -1.446  -2.549  -2.854  0.00  0.00    +0.006 A 
ATOM     13  C   UNL     1      -2.219  -2.733  -3.985  0.00  0.00    +0.004 A 
ATOM     14  C   UNL     1      -3.569  -3.005  -3.862  0.00  0.00    -0.042 A 
ATOM     15  C   UNL     1      -4.145  -3.093  -2.609  0.00  0.00    +0.004 A 
ATOM     16  C   UNL     1      -3.371  -2.913  -1.478  0.00  0.00    +0.006 A 
BRANCH  14  17
ATOM     17  C   UNL     1      -4.412  -3.204  -5.095  0.00  0.00    -0.013 C 
ATOM     18  C   UNL     1      -3.868  -4.387  -5.899  0.00  0.00    +0.015 C 
ATOM     19  C   UNL     1      -5.858  -3.489  -4.684  0.00  0.00    +0.015 C 
ATOM     20  C   UNL     1      -4.366  -1.939  -5.955  0.00  0.00    +0.015 C 
ENDBRANCH  14  17
ENDBRANCH   4  11
BRANCH   3  21
ATOM     21  C   UNL     1      -2.376  -0.253   0.200  0.00  0.00    +0.248 C 
ATOM     22  O   UNL     1      -2.970  -0.407   1.252  0.00  0.00    -0.270 OA
ATOM     23  N   UNL     1      -2.867   0.586  -0.734  0.00  0.00    -0.279 N 
ATOM     24  H   UNL     1      -2.414   0.681  -1.587  0.00  0.00    +0.155 HD
BRANCH  23  25
ATOM     25  C   UNL     1      -4.030   1.322  -0.473  0.00  0.00    +0.079 A 
ATOM     26  C   UNL     1      -4.597   1.299   0.792  0.00  0.00    +0.072 A 
ATOM     27  C   UNL     1      -5.748   2.028   1.047  0.00  0.00    +0.122 A 
ATOM     28  C   UNL     1      -6.332   2.779   0.038  0.00  0.00    +0.049 A 
ATOM     29  C   UNL     1      -5.769   2.803  -1.224  0.00  0.00    +0.051 A 
ATOM     30  C   UNL     1      -4.616   2.081  -1.483  0.00  0.00    +0.141 A 
BRANCH  30  31
ATOM     31  O   UNL     1      -4.059   2.110  -2.724  0.00  0.00    -0.493 OA
ATOM     32  C   UNL     1      -4.713   2.911  -3.710  0.00  0.00    +0.277 C 
ENDBRANCH  30  31
BRANCH  27  33
ATOM     33  O   UNL     1      -6.305   2.006   2.288  0.00  0.00    -0.495 OA
ATOM     34  C   UNL     1      -7.491   2.780   2.480  0.00  0.00    +0.277 C 
ENDBRANCH  27  33
ENDBRANCH  23  25
ENDBRANCH   3  21
TORSDOF 6
