REMARK  Name = ZINC39657746
REMARK  13 active torsions:
REMARK  status: ('A' for Active; 'I' for Inactive)
REMARK    1  A    between atoms: C_1  and  C_2
REMARK    2  A    between atoms: C_2  and  C_3
REMARK    3  A    between atoms: C_3  and  C_4
REMARK    4  A    between atoms: C_4  and  C_5
REMARK    5  A    between atoms: C_5  and  C_6
REMARK    6  A    between atoms: C_6  and  C_7
REMARK    7  A    between atoms: C_11  and  C_20
REMARK    8  A    between atoms: N_22  and  C_23
REMARK    9  A    between atoms: C_23  and  C_24
REMARK   10  A    between atoms: C_29  and  S_30
REMARK   11  A    between atoms: S_30  and  C_31
REMARK   12  A    between atoms: C_36  and  C_37
REMARK   13  A    between atoms: C_37  and  O_38
REMARK                            x       y       z     vdW  Elec       q    Type
REMARK                         _______ _______ _______ _____ _____    ______ ____
ROOT
ATOM      1  C   UNL     1       4.110  -7.418   1.846  0.00  0.00    +0.218 C 
ATOM      2  O   UNL     1       4.382  -6.280   1.530  0.00  0.00    -0.275 OA
ATOM      3  N   UNL     1       4.840  -8.444   1.365  0.00  0.00    -0.311 N 
ATOM      4  H   UNL     1       4.581  -9.358   1.560  0.00  0.00    +0.149 HD
ENDROOT
BRANCH   1   9
ATOM      5  C   UNL     1       1.951  -4.268   3.421  0.00  0.00    +0.216 C 
ATOM      6  O   UNL     1       2.279  -3.527   4.324  0.00  0.00    -0.276 OA
ATOM      7  N   UNL     1       2.077  -5.602   3.565  0.00  0.00    -0.300 N 
ATOM      8  C   UNL     1       1.830  -6.652   2.549  0.00  0.00    +0.121 C 
ATOM      9  C   UNL     1       2.955  -7.687   2.776  0.00  0.00    +0.100 C 
ATOM     10  C   UNL     1       3.385  -7.485   4.239  0.00  0.00    -0.004 C 
ATOM     11  C   UNL     1       2.499  -6.350   4.774  0.00  0.00    +0.115 C 
ATOM     12  C   UNL     1       3.150  -8.762   5.040  0.00  0.00    -0.010 C 
ATOM     13  C   UNL     1       3.638  -8.556   6.476  0.00  0.00    -0.082 C 
ATOM     14  N   UNL     1       5.066  -8.217   6.465  0.00  0.00    +0.379 N 
ATOM     15  C   UNL     1       5.273  -6.939   5.773  0.00  0.00    -0.082 C 
ATOM     16  C   UNL     1       4.854  -7.078   4.306  0.00  0.00    -0.010 C 
ATOM     17  H   UNL     1       5.400  -8.141   7.415  0.00  0.00    -0.086 HD
ATOM     18  H   UNL     1       5.579  -8.944   5.988  0.00  0.00    -0.086 HD
BRANCH   5  19
ATOM     19  C   UNL     1       1.403  -3.697   2.139  0.00  0.00    +0.096 C 
BRANCH  19  20
ATOM     20  C   UNL     1       1.483  -2.170   2.186  0.00  0.00    +0.009 C 
BRANCH  20  21
ATOM     21  C   UNL     1       1.039  -1.594   0.840  0.00  0.00    +0.000 C 
BRANCH  21  22
ATOM     22  C   UNL     1       1.235  -0.077   0.844  0.00  0.00    -0.000 C 
BRANCH  22  24
ATOM     23  C   UNL     1       0.763   2.040  -0.397  0.00  0.00    +0.004 C 
ATOM     24  C   UNL     1       0.679   0.513  -0.453  0.00  0.00    -0.003 C 
ENDBRANCH  22  24
ENDBRANCH  21  22
ENDBRANCH  20  21
ENDBRANCH  19  20
ENDBRANCH   5  19
ENDBRANCH   1   9
BRANCH   3  25
ATOM     25  C   UNL     1       6.026  -8.178   0.546  0.00  0.00    +0.140 C 
BRANCH  25  26
ATOM     26  C   UNL     1       6.588  -9.481   0.038  0.00  0.00    -0.017 A 
ATOM     27  C   UNL     1       7.705 -10.032   0.635  0.00  0.00    +0.006 A 
ATOM     28  C   UNL     1       8.221 -11.227   0.168  0.00  0.00    +0.000 A 
ATOM     29  C   UNL     1       7.621 -11.875  -0.897  0.00  0.00    +0.001 A 
ATOM     30  C   UNL     1       6.504 -11.330  -1.498  0.00  0.00    +0.015 A 
ATOM     31  C   UNL     1       5.979 -10.132  -1.028  0.00  0.00    +0.017 A 
BRANCH  31  32
ATOM     32  S   UNL     1       4.550  -9.436  -1.788  0.00  0.00    -0.089 S 
BRANCH  32  33
ATOM     33  C   UNL     1       5.191  -8.145  -2.802  0.00  0.00    +0.018 A 
ATOM     34  C   UNL     1       6.551  -7.859  -2.787  0.00  0.00    +0.015 A 
ATOM     35  C   UNL     1       7.051  -6.847  -3.582  0.00  0.00    +0.001 A 
ATOM     36  C   UNL     1       6.199  -6.118  -4.393  0.00  0.00    +0.000 A 
ATOM     37  C   UNL     1       4.846  -6.400  -4.410  0.00  0.00    +0.007 A 
ATOM     38  C   UNL     1       4.340  -7.415  -3.622  0.00  0.00    -0.008 A 
BRANCH  38  39
ATOM     39  C   UNL     1       2.866  -7.727  -3.647  0.00  0.00    +0.192 C 
BRANCH  39  40
ATOM     40  O   UNL     1       2.226  -6.925  -4.642  0.00  0.00    -0.390 OA
ATOM     41  H   UNL     1       1.289  -7.127  -4.767  0.00  0.00    +0.210 HD
ENDBRANCH  39  40
ENDBRANCH  38  39
ENDBRANCH  32  33
ENDBRANCH  31  32
ENDBRANCH  25  26
ENDBRANCH   3  25
TORSDOF 12
