REMARK  Name = ZINC11715894
REMARK  13 active torsions:
REMARK  status: ('A' for Active; 'I' for Inactive)
REMARK    1  A    between atoms: C_1  and  C_2
REMARK    2  A    between atoms: C_5  and  O_31
REMARK    3  A    between atoms: C_6  and  N_8
REMARK    4  A    between atoms: C_9  and  C_11
REMARK    5  A    between atoms: C_11  and  C_13
REMARK    6  A    between atoms: C_11  and  N_58
REMARK    7  A    between atoms: C_19  and  C_20
REMARK    8  A    between atoms: C_19  and  N_58
REMARK    9  A    between atoms: C_23  and  S_25
REMARK   10  A    between atoms: S_25  and  N_28
REMARK   11  A    between atoms: N_28  and  C_29
REMARK   12  A    between atoms: N_28  and  C_30
REMARK   13  A    between atoms: O_31  and  C_32
REMARK                            x       y       z     vdW  Elec       q    Type
REMARK                         _______ _______ _______ _____ _____    ______ ____
ROOT
ATOM      1  C   UNL     1       5.622   2.482   1.380  0.00  0.00    +0.048 C 
ENDROOT
BRANCH   1   2
ATOM      2  C   UNL     1       5.613   3.985   1.269  0.00  0.00    -0.053 A 
ATOM      3  C   UNL     1       4.651   4.721   1.935  0.00  0.00    +0.002 A 
ATOM      4  C   UNL     1       4.645   6.100   1.836  0.00  0.00    +0.000 A 
ATOM      5  C   UNL     1       5.595   6.742   1.064  0.00  0.00    +0.000 A 
ATOM      6  C   UNL     1       6.553   6.005   0.394  0.00  0.00    +0.000 A 
ATOM      7  C   UNL     1       6.562   4.627   0.496  0.00  0.00    +0.002 A 
ENDBRANCH   1   2
BRANCH   1   9
ATOM      8  N   UNL     1       7.550   2.432   2.929  0.00  0.00    -0.284 N 
ATOM      9  C   UNL     1       6.274   2.079   2.678  0.00  0.00    +0.208 C 
ATOM     10  O   UNL     1       5.650   1.436   3.495  0.00  0.00    -0.277 OA
ATOM     11  H   UNL     1       8.070   2.889   2.249  0.00  0.00    +0.155 HD
BRANCH   8  17
ATOM     12  C   UNL     1       7.975  -0.580   6.792  0.00  0.00    +0.044 C 
ATOM     13  C   UNL     1       8.351   0.686   6.067  0.00  0.00    -0.048 A 
ATOM     14  C   UNL     1       9.266   1.558   6.629  0.00  0.00    +0.007 A 
ATOM     15  C   UNL     1       9.614   2.721   5.968  0.00  0.00    +0.048 A 
ATOM     16  C   UNL     1       9.052   3.013   4.737  0.00  0.00    +0.141 A 
ATOM     17  C   UNL     1       8.126   2.139   4.172  0.00  0.00    +0.076 A 
ATOM     18  C   UNL     1       7.781   0.974   4.841  0.00  0.00    +0.030 A 
BRANCH  16  19
ATOM     19  O   UNL     1       9.399   4.154   4.083  0.00  0.00    -0.493 OA
ATOM     20  C   UNL     1      10.354   5.003   4.722  0.00  0.00    +0.277 C 
ENDBRANCH  16  19
ENDBRANCH   8  17
ENDBRANCH   1   9
BRANCH   1  21
ATOM     21  N   UNL     1       4.236   1.978   1.357  0.00  0.00    +0.392 N 
ATOM     22  H   UNL     1       3.624   2.647   1.839  0.00  0.00    -0.084 HD
ATOM     23  H   UNL     1       4.198   1.071   1.837  0.00  0.00    -0.084 HD
BRANCH  21  24
ATOM     24  C   UNL     1       3.775   1.812  -0.034  0.00  0.00    -0.038 C 
BRANCH  24  25
ATOM     25  C   UNL     1       2.358   1.296  -0.026  0.00  0.00    -0.025 A 
ATOM     26  C   UNL     1       1.196   1.994  -0.020  0.00  0.00    +0.011 A 
ATOM     27  C   UNL     1      -0.001   1.302  -0.013  0.00  0.00    +0.036 A 
ATOM     28  C   UNL     1       0.023  -0.053  -0.011  0.00  0.00    +0.143 A 
ATOM     29  S   UNL     1       1.776  -0.391  -0.021  0.00  0.00    -0.075 S 
BRANCH  28  30
ATOM     30  S   UNL     1      -1.326  -1.186  -0.003  0.00  0.00    +0.067 S 
ATOM     31  O   UNL     1      -0.833  -2.401   0.546  0.00  0.00    -0.152 OA
ATOM     32  O   UNL     1      -2.435  -0.494   0.553  0.00  0.00    -0.152 OA
BRANCH  30  33
ATOM     33  N   UNL     1      -1.709  -1.503  -1.583  0.00  0.00    -0.182 NA
ATOM     34  C   UNL     1      -1.062  -2.614  -2.285  0.00  0.00    +0.131 C 
ATOM     35  C   UNL     1      -2.695  -0.671  -2.278  0.00  0.00    +0.131 C 
ENDBRANCH  30  33
ENDBRANCH  28  30
ENDBRANCH  24  25
ENDBRANCH  21  24
ENDBRANCH   1  21
TORSDOF 9
