REMARK  Name = ZINC09081234
REMARK  14 active torsions:
REMARK  status: ('A' for Active; 'I' for Inactive)
REMARK    1  A    between atoms: C_1  and  N_2
REMARK    2  A    between atoms: N_2  and  C_3
REMARK    3  A    between atoms: N_2  and  C_4
REMARK    4  A    between atoms: C_7  and  C_10
REMARK    5  A    between atoms: C_10  and  C_12
REMARK    6  A    between atoms: C_10  and  S_27
REMARK    7  A    between atoms: C_12  and  N_13
REMARK    8  A    between atoms: C_14  and  C_16
REMARK    9  A    between atoms: N_18  and  C_19
REMARK   10  A    between atoms: C_19  and  C_20
REMARK   11  A    between atoms: C_20  and  C_21
REMARK   12  A    between atoms: S_27  and  C_30
REMARK   13  A    between atoms: C_33  and  O_36
REMARK   14  A    between atoms: O_36  and  C_37
REMARK                            x       y       z     vdW  Elec       q    Type
REMARK                         _______ _______ _______ _____ _____    ______ ____
ROOT
ATOM      1  C   UNL     1       2.058   7.854  -9.086  0.00  0.00    +0.183 C 
ENDROOT
BRANCH   1   5
ATOM      2  C   UNL     1       1.029  10.017 -12.626  0.00  0.00    +0.029 A 
ATOM      3  C   UNL     1       1.750   8.834 -12.718  0.00  0.00    +0.023 A 
ATOM      4  C   UNL     1       2.081   8.137 -11.572  0.00  0.00    +0.007 A 
ATOM      5  C   UNL     1       1.695   8.617 -10.334  0.00  0.00    -0.021 A 
ATOM      6  C   UNL     1       0.972   9.792 -10.239  0.00  0.00    +0.007 A 
ATOM      7  C   UNL     1       0.643  10.496 -11.380  0.00  0.00    +0.023 A 
BRANCH   2   9
ATOM      8  C   UNL     1       1.205  10.287 -15.083  0.00  0.00    +0.129 C 
ATOM      9  N   UNL     1       0.693  10.724 -13.782  0.00  0.00    -0.336 N 
ATOM     10  C   UNL     1      -0.173  11.902 -13.695  0.00  0.00    +0.129 C 
ENDBRANCH   2   9
ENDBRANCH   1   5
BRANCH   1  11
ATOM     11  S   UNL     1       3.074   8.903  -8.010  0.00  0.00    +0.005 S 
ATOM     12  O   UNL     1       2.381  10.104  -7.699  0.00  0.00    -0.169 OA
ATOM     13  O   UNL     1       3.666   8.121  -6.982  0.00  0.00    -0.169 OA
BRANCH  11  14
ATOM     14  C   UNL     1       4.425   9.413  -9.021  0.00  0.00    +0.089 A 
ATOM     15  C   UNL     1       5.580   8.654  -9.064  0.00  0.00    +0.030 A 
ATOM     16  C   UNL     1       6.638   9.049  -9.859  0.00  0.00    +0.047 A 
ATOM     17  C   UNL     1       6.545  10.214 -10.607  0.00  0.00    +0.120 A 
ATOM     18  C   UNL     1       5.387  10.977 -10.557  0.00  0.00    +0.047 A 
ATOM     19  C   UNL     1       4.330  10.575  -9.764  0.00  0.00    +0.030 A 
BRANCH  17  20
ATOM     20  O   UNL     1       7.587  10.607 -11.386  0.00  0.00    -0.495 OA
ATOM     21  C   UNL     1       8.747   9.773 -11.388  0.00  0.00    +0.277 C 
ENDBRANCH  17  20
ENDBRANCH  11  14
ENDBRANCH   1  11
BRANCH   1  22
ATOM     22  C   UNL     1       0.781   7.451  -8.345  0.00  0.00    +0.136 C 
BRANCH  22  23
ATOM     23  N   UNL     1       1.134   6.709  -7.132  0.00  0.00    -0.305 N 
ATOM     24  C   UNL     1       0.163   6.251  -6.317  0.00  0.00    +0.299 C 
ATOM     25  O   UNL     1      -1.002   6.452  -6.588  0.00  0.00    -0.265 OA
ATOM     26  H   UNL     1       2.065   6.549  -6.915  0.00  0.00    +0.149 HD
BRANCH  24  27
ATOM     27  C   UNL     1       0.523   5.495  -5.079  0.00  0.00    +0.299 C 
ATOM     28  O   UNL     1       1.689   5.293  -4.808  0.00  0.00    -0.265 OA
ATOM     29  N   UNL     1      -0.447   5.036  -4.264  0.00  0.00    -0.307 N 
ATOM     30  H   UNL     1      -1.379   5.197  -4.480  0.00  0.00    +0.149 HD
BRANCH  29  31
ATOM     31  C   UNL     1      -0.095   4.294  -3.050  0.00  0.00    +0.109 C 
BRANCH  31  32
ATOM     32  C   UNL     1      -1.371   3.891  -2.310  0.00  0.00    +0.049 C 
BRANCH  32  33
ATOM     33  C   UNL     1      -1.009   3.128  -1.062  0.00  0.00    -0.072 C 
ATOM     34  C   UNL     1      -0.927   3.787   0.050  0.00  0.00    -0.028 C 
ATOM     35  C   UNL     1      -0.567   3.168   1.369  0.00  0.00    +0.027 C 
ATOM     36  C   UNL     1      -0.726   1.649   1.303  0.00  0.00    +0.004 C 
ATOM     37  C   UNL     1      -0.013   1.139   0.045  0.00  0.00    +0.005 C 
ATOM     38  C   UNL     1      -0.764   1.653  -1.185  0.00  0.00    +0.030 C 
ENDBRANCH  32  33
ENDBRANCH  31  32
ENDBRANCH  29  31
ENDBRANCH  24  27
ENDBRANCH  22  23
ENDBRANCH   1  22
TORSDOF 11
