REMARK  Name = ZINC11849533
REMARK  8 active torsions:
REMARK  status: ('A' for Active; 'I' for Inactive)
REMARK    1  A    between atoms: C_1  and  C_2
REMARK    2  A    between atoms: C_4  and  C_19
REMARK    3  A    between atoms: C_6  and  O_8
REMARK    4  A    between atoms: O_8  and  C_9
REMARK    5  A    between atoms: C_10  and  O_17
REMARK    6  A    between atoms: C_12  and  C_16
REMARK    7  A    between atoms: C_16  and  N_43
REMARK    8  A    between atoms: O_17  and  C_18
REMARK                            x       y       z     vdW  Elec       q    Type
REMARK                         _______ _______ _______ _____ _____    ______ ____
ROOT
ATOM      1  O   UNL     1      -2.397   1.108   0.019  0.00  0.00    -0.433 OA
ENDROOT
BRANCH   1   7
ATOM      2  C   UNL     1      -0.073   5.267   0.031  0.00  0.00    +0.088 C 
ATOM      3  C   UNL     1      -0.050   3.760   0.023  0.00  0.00    +0.130 A 
ATOM      4  N   UNL     1       1.111   3.139   0.008  0.00  0.00    -0.232 NA
ATOM      5  C   UNL     1       1.174   1.807   0.001  0.00  0.00    +0.078 A 
ATOM      6  C   UNL     1      -0.013   1.076   0.008  0.00  0.00    +0.096 A 
ATOM      7  C   UNL     1      -1.216   1.774   0.017  0.00  0.00    +0.224 A 
ATOM      8  N   UNL     1      -1.192   3.103   0.031  0.00  0.00    -0.198 NA
BRANCH   5   9
ATOM      9  C   UNL     1       2.486   1.115  -0.016  0.00  0.00    +0.001 A 
ATOM     10  C   UNL     1       2.542  -0.277  -0.019  0.00  0.00    +0.010 A 
ATOM     11  C   UNL     1       3.765  -0.916  -0.039  0.00  0.00    +0.001 A 
ATOM     12  C   UNL     1       4.934  -0.177  -0.047  0.00  0.00    +0.000 A 
ATOM     13  C   UNL     1       4.884   1.206  -0.039  0.00  0.00    +0.001 A 
ATOM     14  C   UNL     1       3.667   1.855  -0.024  0.00  0.00    +0.010 A 
ENDBRANCH   5   9
ENDBRANCH   1   7
BRANCH   1  15
ATOM     15  C   UNL     1      -3.543   1.840   0.029  0.00  0.00    +0.186 A 
ATOM     16  C   UNL     1      -4.128   2.204   1.238  0.00  0.00    +0.163 A 
ATOM     17  C   UNL     1      -5.293   2.954   1.242  0.00  0.00    +0.051 A 
ATOM     18  C   UNL     1      -5.878   3.330   0.047  0.00  0.00    -0.060 A 
ATOM     19  C   UNL     1      -5.300   2.965  -1.155  0.00  0.00    +0.021 A 
ATOM     20  C   UNL     1      -4.134   2.221  -1.166  0.00  0.00    +0.064 A 
ATOM     21 BR   UNL     1      -3.346   1.723  -2.812  0.00  0.00    -0.046 Br
BRANCH  16  22
ATOM     22  O   UNL     1      -3.555   1.829   2.412  0.00  0.00    -0.491 OA
ATOM     23  C   UNL     1      -4.211   2.238   3.614  0.00  0.00    +0.277 C 
ENDBRANCH  16  22
BRANCH  18  24
ATOM     24  C   UNL     1      -7.149   4.141   0.054  0.00  0.00    -0.050 C 
BRANCH  24  27
ATOM     25  H   UNL     1      -9.171   3.756   0.058  0.00  0.00    -0.090 HD
ATOM     26  H   UNL     1      -8.269   2.602  -0.731  0.00  0.00    -0.090 HD
ATOM     27  N   UNL     1      -8.302   3.224   0.075  0.00  0.00    +0.381 N 
ATOM     28  H   UNL     1      -8.271   2.661   0.933  0.00  0.00    -0.090 HD
ENDBRANCH  24  27
ENDBRANCH  18  24
ENDBRANCH   1  15
TORSDOF 6
