REMARK  Name = ZINC04737676
REMARK  5 active torsions:
REMARK  status: ('A' for Active; 'I' for Inactive)
REMARK    1  A    between atoms: C_2  and  C_3
REMARK    2  A    between atoms: C_3  and  N_4
REMARK    3  A    between atoms: N_15  and  N_16
REMARK    4  A    between atoms: C_17  and  C_18
REMARK    5  A    between atoms: C_27  and  O_28
REMARK                            x       y       z     vdW  Elec       q    Type
REMARK                         _______ _______ _______ _____ _____    ______ ____
ROOT
ATOM      1  N   UNL     1       1.367  -1.676   1.111  0.00  0.00    -0.275 N 
ATOM      2  C   UNL     1       1.861  -1.267   2.304  0.00  0.00    +0.263 A 
ATOM      3  O   UNL     1       2.268  -0.131   2.463  0.00  0.00    -0.267 OA
ATOM      4  C   UNL     1       1.888  -2.247   3.398  0.00  0.00    +0.065 A 
ATOM      5  C   UNL     1       2.377  -1.924   4.663  0.00  0.00    +0.015 A 
ATOM      6  C   UNL     1       2.378  -2.874   5.647  0.00  0.00    +0.001 A 
ATOM      7  C   UNL     1       1.899  -4.154   5.399  0.00  0.00    +0.002 A 
ATOM      8  C   UNL     1       1.414  -4.497   4.168  0.00  0.00    +0.028 A 
ATOM      9  C   UNL     1       1.399  -3.548   3.142  0.00  0.00    +0.080 A 
ATOM     10  N   UNL     1       0.929  -3.843   1.913  0.00  0.00    -0.214 NA
ATOM     11  C   UNL     1       0.910  -2.953   0.953  0.00  0.00    +0.219 A 
ATOM     12  N   UNL     1       0.412  -3.322  -0.272  0.00  0.00    -0.206 N 
ATOM     13  H   UNL     1       0.391  -2.681  -1.000  0.00  0.00    +0.177 HD
ENDROOT
BRANCH  12  14
ATOM     14  N   UNL     1      -0.065  -4.624  -0.470  0.00  0.00    -0.187 NA
ATOM     15  C   UNL     1      -0.537  -4.974  -1.630  0.00  0.00    +0.142 C 
BRANCH  15  16
ATOM     16  C   UNL     1      -1.038  -6.340  -1.838  0.00  0.00    +0.044 A 
ATOM     17  C   UNL     1      -1.566  -6.751  -3.138  0.00  0.00    -0.006 A 
ATOM     18  C   UNL     1      -1.612  -5.866  -4.221  0.00  0.00    +0.009 A 
ATOM     19  C   UNL     1      -2.112  -6.290  -5.417  0.00  0.00    +0.001 A 
ATOM     20  C   UNL     1      -2.578  -7.593  -5.575  0.00  0.00    +0.001 A 
ATOM     21  C   UNL     1      -2.547  -8.479  -4.542  0.00  0.00    +0.008 A 
ATOM     22  C   UNL     1      -2.038  -8.077  -3.296  0.00  0.00    -0.017 A 
ATOM     23  C   UNL     1      -1.990  -8.965  -2.207  0.00  0.00    +0.012 A 
ATOM     24  C   UNL     1      -1.496  -8.565  -1.005  0.00  0.00    +0.046 A 
ATOM     25  C   UNL     1      -1.015  -7.273  -0.802  0.00  0.00    +0.126 A 
BRANCH  25  26
ATOM     26  O   UNL     1      -0.524  -6.918   0.414  0.00  0.00    -0.506 OA
ATOM     27  H   UNL     1      -1.189  -6.558   1.016  0.00  0.00    +0.292 HD
ENDBRANCH  25  26
ENDBRANCH  15  16
ENDBRANCH  12  14
BRANCH   1  28
ATOM     28  C   UNL     1       1.317  -0.740  -0.015  0.00  0.00    +0.155 C 
BRANCH  28  30
ATOM     29  C   UNL     1      -0.016   1.306   0.009  0.00  0.00    +0.005 C 
ATOM     30  C   UNL     1       0.002  -0.004   0.002  0.00  0.00    -0.013 C 
ENDBRANCH  28  30
ENDBRANCH   1  28
TORSDOF 5
