REMARK  Name = ZINC38701288
REMARK  13 active torsions:
REMARK  status: ('A' for Active; 'I' for Inactive)
REMARK    1  A    between atoms: C_1  and  C_2
REMARK    2  A    between atoms: C_2  and  C_3
REMARK    3  A    between atoms: C_3  and  C_4
REMARK    4  A    between atoms: C_4  and  O_5
REMARK    5  A    between atoms: O_5  and  C_6
REMARK    6  A    between atoms: C_10  and  C_12
REMARK    7  A    between atoms: C_17  and  O_26
REMARK    8  A    between atoms: C_21  and  N_25
REMARK    9  A    between atoms: C_22  and  C_23
REMARK   10  A    between atoms: O_26  and  C_27
REMARK   11  A    between atoms: C_27  and  C_29
REMARK   12  A    between atoms: C_32  and  O_36
REMARK   13  A    between atoms: O_36  and  C_37
REMARK                            x       y       z     vdW  Elec       q    Type
REMARK                         _______ _______ _______ _____ _____    ______ ____
ROOT
ATOM      1  C   UNL     1       3.001  -6.329  -5.093  0.00  0.00    +0.098 C 
ATOM      2  C   UNL     1       2.024  -7.165  -5.877  0.00  0.00    +0.008 A 
ATOM      3  C   UNL     1       1.007  -6.543  -6.581  0.00  0.00    +0.012 A 
ATOM      4  C   UNL     1       0.103  -7.293  -7.306  0.00  0.00    +0.047 A 
ATOM      5  C   UNL     1       0.211  -8.677  -7.330  0.00  0.00    +0.135 A 
ATOM      6  C   UNL     1       1.227  -9.302  -6.626  0.00  0.00    +0.093 A 
ATOM      7  C   UNL     1       2.136  -8.546  -5.898  0.00  0.00    +0.138 A 
ATOM      8  O   UNL     1       3.126  -9.173  -5.215  0.00  0.00    -0.441 OA
ATOM      9  C   UNL     1       4.217  -8.488  -4.836  0.00  0.00    +0.199 C 
ATOM     10  C   UNL     1       4.221  -7.139  -4.758  0.00  0.00    +0.098 C 
ENDROOT
BRANCH   1  15
ATOM     11  C   UNL     1       1.604  -4.078  -2.399  0.00  0.00    +0.121 A 
ATOM     12  C   UNL     1       1.145  -5.007  -1.476  0.00  0.00    +0.045 A 
ATOM     13  C   UNL     1       1.287  -6.357  -1.728  0.00  0.00    +0.004 A 
ATOM     14  C   UNL     1       1.888  -6.784  -2.898  0.00  0.00    +0.005 A 
ATOM     15  C   UNL     1       2.346  -5.860  -3.819  0.00  0.00    -0.031 A 
ATOM     16  C   UNL     1       2.201  -4.508  -3.575  0.00  0.00    +0.050 A 
BRANCH  11  17
ATOM     17  O   UNL     1       1.464  -2.748  -2.154  0.00  0.00    -0.492 OA
BRANCH  17  18
ATOM     18  C   UNL     1       0.840  -2.378  -0.923  0.00  0.00    +0.229 C 
BRANCH  18  19
ATOM     19  C   UNL     1       0.772  -0.853  -0.824  0.00  0.00    +0.041 C 
BRANCH  19  21
ATOM     20  C   UNL     1       0.035   1.069   0.592  0.00  0.00    +0.004 C 
ATOM     21  C   UNL     1       0.103  -0.456   0.494  0.00  0.00    -0.000 C 
ENDBRANCH  19  21
ENDBRANCH  18  19
ENDBRANCH  17  18
ENDBRANCH  11  17
ENDBRANCH   1  15
BRANCH   9  22
ATOM     22  N   UNL     1       5.361  -9.178  -4.519  0.00  0.00    -0.328 N 
ATOM     23  H   UNL     1       5.372 -10.147  -4.570  0.00  0.00    +0.145 HD
ATOM     24  H   UNL     1       6.157  -8.697  -4.244  0.00  0.00    +0.145 HD
ENDBRANCH   9  22
BRANCH  10  25
ATOM     25  C   UNL     1       5.417  -6.468  -4.346  0.00  0.00    +0.101 C 
ATOM     26  N   UNL     1       6.366  -5.936  -4.020  0.00  0.00    -0.191 NA
ENDBRANCH  10  25
BRANCH   5  27
ATOM     27  O   UNL     1      -0.678  -9.417  -8.044  0.00  0.00    -0.422 OA
BRANCH  27  28
ATOM     28  C   UNL     1      -1.555 -10.181  -7.364  0.00  0.00    +0.344 C 
ATOM     29  O   UNL     1      -1.606 -10.115  -6.151  0.00  0.00    -0.245 OA
BRANCH  28  30
ATOM     30  C   UNL     1      -2.454 -11.097  -8.090  0.00  0.00    +0.061 A 
ATOM     31  C   UNL     1      -2.393 -11.178  -9.485  0.00  0.00    +0.018 A 
ATOM     32  C   UNL     1      -3.233 -12.034 -10.160  0.00  0.00    +0.048 A 
ATOM     33  C   UNL     1      -4.142 -12.818  -9.458  0.00  0.00    +0.138 A 
ATOM     34  C   UNL     1      -4.206 -12.741  -8.070  0.00  0.00    +0.083 A 
ATOM     35  C   UNL     1      -3.365 -11.890  -7.387  0.00  0.00    +0.038 A 
ATOM     36 CL   UNL     1      -5.342 -13.722  -7.199  0.00  0.00    -0.080 Cl
BRANCH  33  37
ATOM     37  O   UNL     1      -4.968 -13.661 -10.127  0.00  0.00    -0.494 OA
ATOM     38  C   UNL     1      -4.850 -13.690 -11.551  0.00  0.00    +0.277 C 
ENDBRANCH  33  37
ENDBRANCH  28  30
ENDBRANCH  27  28
ENDBRANCH   5  27
TORSDOF 11
