REMARK  Name = ZINC36610485
REMARK  11 active torsions:
REMARK  status: ('A' for Active; 'I' for Inactive)
REMARK    1  A    between atoms: C_1  and  C_2
REMARK    2  A    between atoms: C_2  and  C_3
REMARK    3  A    between atoms: C_3  and  C_4
REMARK    4  A    between atoms: C_4  and  N_5
REMARK    5  A    between atoms: C_6  and  C_8
REMARK    6  A    between atoms: C_8  and  C_10
REMARK    7  A    between atoms: C_8  and  N_19
REMARK    8  A    between atoms: N_19  and  C_20
REMARK    9  A    between atoms: C_26  and  C_28
REMARK   10  A    between atoms: C_32  and  O_35
REMARK   11  A    between atoms: C_33  and  O_34
REMARK                            x       y       z     vdW  Elec       q    Type
REMARK                         _______ _______ _______ _____ _____    ______ ____
ROOT
ATOM      1  N   UNL     1       1.653  -4.737   5.867  0.00  0.00    -0.251 N 
ATOM      2  C   UNL     1       0.734  -5.657   5.509  0.00  0.00    +0.255 C 
ATOM      3  O   UNL     1       0.738  -6.755   6.031  0.00  0.00    -0.269 OA
ENDROOT
BRANCH   1   4
ATOM      4  C   UNL     1       2.538  -5.005   6.915  0.00  0.00    +0.038 A 
ATOM      5  C   UNL     1       2.383  -4.365   8.138  0.00  0.00    +0.023 A 
ATOM      6  C   UNL     1       3.260  -4.632   9.171  0.00  0.00    +0.002 A 
ATOM      7  C   UNL     1       4.291  -5.535   8.989  0.00  0.00    +0.000 A 
ATOM      8  C   UNL     1       4.449  -6.174   7.773  0.00  0.00    +0.002 A 
ATOM      9  C   UNL     1       3.572  -5.916   6.737  0.00  0.00    +0.023 A 
ENDBRANCH   1   4
BRANCH   2  10
ATOM     10  C   UNL     1      -0.277  -5.330   4.485  0.00  0.00    +0.082 A 
ATOM     11  C   UNL     1       0.117  -4.790   3.257  0.00  0.00    +0.017 A 
ATOM     12  C   UNL     1      -0.830  -4.485   2.304  0.00  0.00    +0.005 A 
ATOM     13  C   UNL     1      -2.173  -4.712   2.554  0.00  0.00    +0.049 A 
ATOM     14  C   UNL     1      -2.579  -5.247   3.764  0.00  0.00    +0.159 A 
ATOM     15  C   UNL     1      -1.634  -5.565   4.736  0.00  0.00    +0.171 A 
BRANCH  15  16
ATOM     16  O   UNL     1      -2.027  -6.095   5.922  0.00  0.00    -0.503 OA
ATOM     17  H   UNL     1      -2.219  -5.436   6.603  0.00  0.00    +0.292 HD
ENDBRANCH  15  16
BRANCH  14  18
ATOM     18  O   UNL     1      -3.899  -5.467   4.003  0.00  0.00    -0.503 OA
ATOM     19  H   UNL     1      -4.206  -6.345   3.737  0.00  0.00    +0.292 HD
ENDBRANCH  14  18
ENDBRANCH   2  10
BRANCH   1  20
ATOM     20  C   UNL     1       1.723  -3.458   5.157  0.00  0.00    +0.198 C 
BRANCH  20  21
ATOM     21  C   UNL     1       1.474  -2.331   6.126  0.00  0.00    -0.014 A 
ATOM     22  C   UNL     1       2.517  -1.826   6.880  0.00  0.00    +0.010 A 
ATOM     23  C   UNL     1       2.293  -0.792   7.770  0.00  0.00    +0.050 A 
ATOM     24  C   UNL     1       1.021  -0.260   7.909  0.00  0.00    +0.166 A 
ATOM     25  C   UNL     1      -0.030  -0.769   7.150  0.00  0.00    +0.167 A 
ATOM     26  C   UNL     1       0.203  -1.801   6.255  0.00  0.00    +0.055 A 
ATOM     27  O   UNL     1      -1.168  -0.085   7.466  0.00  0.00    -0.453 OA
ATOM     28  C   UNL     1      -0.888   0.569   8.718  0.00  0.00    +0.466 C 
ATOM     29  O   UNL     1       0.541   0.743   8.701  0.00  0.00    -0.453 OA
ENDBRANCH  20  21
BRANCH  20  31
ATOM     30  N   UNL     1       3.387  -2.190   3.837  0.00  0.00    -0.313 N 
ATOM     31  C   UNL     1       3.090  -3.299   4.543  0.00  0.00    +0.238 C 
ATOM     32  O   UNL     1       3.924  -4.169   4.684  0.00  0.00    -0.273 OA
ATOM     33  H   UNL     1       2.720  -1.494   3.724  0.00  0.00    +0.149 HD
BRANCH  30  34
ATOM     34  C   UNL     1       4.716  -2.035   3.240  0.00  0.00    +0.104 C 
BRANCH  34  35
ATOM     35  C   UNL     1       4.790  -0.699   2.499  0.00  0.00    +0.018 C 
BRANCH  35  37
ATOM     36  C   UNL     1       6.252   0.799   1.134  0.00  0.00    +0.004 C 
ATOM     37  C   UNL     1       6.178  -0.537   1.875  0.00  0.00    -0.002 C 
ENDBRANCH  35  37
ENDBRANCH  34  35
ENDBRANCH  30  34
ENDBRANCH  20  31
ENDBRANCH   1  20
TORSDOF 10
