REMARK  Name = ZINC04236722
REMARK  13 active torsions:
REMARK  status: ('A' for Active; 'I' for Inactive)
REMARK    1  A    between atoms: C_1  and  C_2
REMARK    2  A    between atoms: C_5  and  N_8
REMARK    3  A    between atoms: C_9  and  O_11
REMARK    4  A    between atoms: O_11  and  C_12
REMARK    5  A    between atoms: C_16  and  C_43
REMARK    6  A    between atoms: C_19  and  C_20
REMARK    7  A    between atoms: C_19  and  C_21
REMARK    8  A    between atoms: C_21  and  O_22
REMARK    9  A    between atoms: C_25  and  O_42
REMARK   10  A    between atoms: C_27  and  C_29
REMARK   11  A    between atoms: C_29  and  C_30
REMARK   12  A    between atoms: C_35  and  N_38
REMARK   13  A    between atoms: C_39  and  C_41
REMARK                            x       y       z     vdW  Elec       q    Type
REMARK                         _______ _______ _______ _____ _____    ______ ____
ROOT
ATOM      1  C   UNL     1       7.429  -3.170   4.902  0.00  0.00    +0.186 C 
ATOM      2  C   UNL     1       7.238  -2.076   5.955  0.00  0.00    +0.046 C 
ATOM      3  C   UNL     1       6.902  -0.754   5.263  0.00  0.00    +0.011 C 
ATOM      4  C   UNL     1       5.612  -0.915   4.455  0.00  0.00    -0.023 C 
ATOM      5  C   UNL     1       5.802  -2.008   3.402  0.00  0.00    +0.007 C 
ATOM      6  C   UNL     1       6.139  -3.330   4.095  0.00  0.00    +0.031 C 
ATOM      7  C   UNL     1       6.330  -4.424   3.041  0.00  0.00    +0.017 C 
ATOM      8  C   UNL     1       6.946  -1.619   2.463  0.00  0.00    +0.007 C 
ATOM      9  C   UNL     1       6.609  -0.296   1.771  0.00  0.00    +0.032 C 
ATOM     10  C   UNL     1       6.419   0.797   2.824  0.00  0.00    +0.119 C 
ATOM     11  C   UNL     1       5.275   0.407   3.763  0.00  0.00    +0.032 C 
ATOM     12  C   UNL     1       4.468  -1.305   5.394  0.00  0.00    +0.012 C 
ENDROOT
BRANCH  10  13
ATOM     13  O   UNL     1       6.104   2.032   2.178  0.00  0.00    -0.391 OA
ATOM     14  H   UNL     1       6.787   2.341   1.566  0.00  0.00    +0.210 HD
ENDBRANCH  10  13
BRANCH   1  15
ATOM     15  O   UNL     1       7.748  -4.424   5.559  0.00  0.00    -0.446 OA
BRANCH  15  17
ATOM     16  N   UNL     1       9.416  -5.836   6.378  0.00  0.00    -0.251 N 
ATOM     17  C   UNL     1       9.051  -4.688   5.772  0.00  0.00    +0.405 C 
ATOM     18  O   UNL     1       9.898  -3.892   5.419  0.00  0.00    -0.226 OA
ATOM     19  H   UNL     1       8.746  -6.501   6.601  0.00  0.00    +0.158 HD
BRANCH  16  24
ATOM     20  C   UNL     1      14.871  -6.777   7.621  0.00  0.00    +0.044 C 
ATOM     21  C   UNL     1      13.422  -6.527   7.290  0.00  0.00    -0.050 A 
ATOM     22  C   UNL     1      12.432  -6.977   8.145  0.00  0.00    +0.005 A 
ATOM     23  C   UNL     1      11.103  -6.750   7.845  0.00  0.00    +0.023 A 
ATOM     24  C   UNL     1      10.762  -6.068   6.684  0.00  0.00    +0.036 A 
ATOM     25  C   UNL     1      11.758  -5.622   5.826  0.00  0.00    +0.023 A 
ATOM     26  C   UNL     1      13.085  -5.848   6.134  0.00  0.00    +0.005 A 
ENDBRANCH  16  24
ENDBRANCH  15  17
ENDBRANCH   1  15
BRANCH   6  27
ATOM     27  C   UNL     1       4.995  -3.720   5.033  0.00  0.00    +0.166 C 
BRANCH  27  28
ATOM     28  O   UNL     1       5.214  -5.044   5.526  0.00  0.00    -0.394 OA
ATOM     29  H   UNL     1       4.526  -5.357   6.129  0.00  0.00    +0.209 HD
ENDBRANCH  27  28
ENDBRANCH   6  27
BRANCH  11  30
ATOM     30  C   UNL     1       3.985   0.246   2.956  0.00  0.00    +0.102 C 
BRANCH  30  31
ATOM     31  C   UNL     1       3.513   1.599   2.489  0.00  0.00    +0.216 C 
ATOM     32  O   UNL     1       4.045   2.605   2.908  0.00  0.00    -0.276 OA
ATOM     33  N   UNL     1       2.499   1.690   1.605  0.00  0.00    -0.300 N 
ATOM     34  C   UNL     1       1.768   0.557   1.019  0.00  0.00    +0.109 C 
ATOM     35  C   UNL     1       0.684   1.143   0.090  0.00  0.00    +0.043 C 
ATOM     36  C   UNL     1       0.495   2.582   0.640  0.00  0.00    +0.092 C 
ATOM     37  C   UNL     1       1.940   2.943   1.066  0.00  0.00    +0.130 C 
BRANCH  36  38
ATOM     38  N   UNL     1       0.016   3.486  -0.409  0.00  0.00    -0.311 N 
ATOM     39  C   UNL     1      -1.306   3.593  -0.653  0.00  0.00    +0.210 C 
ATOM     40  O   UNL     1      -2.097   2.942  -0.004  0.00  0.00    -0.276 OA
ATOM     41  C   UNL     1      -1.799   4.523  -1.731  0.00  0.00    +0.109 C 
ATOM     42  H   UNL     1       0.649   4.006  -0.927  0.00  0.00    +0.149 HD
ENDBRANCH  36  38
ENDBRANCH  30  31
ENDBRANCH  11  30
TORSDOF 9
