REMARK  Name = ZINC13826823
REMARK  5 active torsions:
REMARK  status: ('A' for Active; 'I' for Inactive)
REMARK    1  A    between atoms: N_11  and  C_15
REMARK    2  A    between atoms: C_15  and  C_16
REMARK    3  A    between atoms: C_16  and  C_17
REMARK    4  A    between atoms: C_17  and  N_57
REMARK    5  A    between atoms: C_20  and  C_23
REMARK                            x       y       z     vdW  Elec       q    Type
REMARK                         _______ _______ _______ _____ _____    ______ ____
ROOT
ATOM      1  C   UNL     1      -8.652   0.045   2.926  0.00  0.00    -0.074 C 
ATOM      2  C   UNL     1      -8.889  -0.499   4.337  0.00  0.00    +0.017 C 
ATOM      3  C   UNL     1      -8.596   0.573   5.349  0.00  0.00    -0.046 C 
ATOM      4  C   UNL     1      -7.907   1.656   5.057  0.00  0.00    -0.041 C 
ATOM      5  C   UNL     1      -7.356   1.932   3.688  0.00  0.00    -0.051 C 
ATOM      6  N   UNL     1      -7.320   0.683   2.905  0.00  0.00    +0.382 N 
ATOM      7  H   UNL     1      -6.635   0.043   3.325  0.00  0.00    -0.081 HD
ENDROOT
BRANCH   3   8
ATOM      8  C   UNL     1      -9.100   0.403   6.726  0.00  0.00    +0.003 A 
ATOM      9  C   UNL     1     -10.382   0.557   7.145  0.00  0.00    +0.091 A 
ATOM     10  N   UNL     1     -10.461   0.317   8.486  0.00  0.00    -0.360 N 
ATOM     11  H   UNL     1     -11.274   0.364   9.011  0.00  0.00    +0.165 HD
ATOM     12  C   UNL     1      -9.217  -0.005   8.986  0.00  0.00    +0.047 A 
ATOM     13  C   UNL     1      -8.311   0.029   7.912  0.00  0.00    +0.008 A 
ATOM     14  C   UNL     1      -6.963  -0.253   8.127  0.00  0.00    +0.026 A 
ATOM     15  C   UNL     1      -6.527  -0.573   9.395  0.00  0.00    +0.019 A 
ATOM     16  C   UNL     1      -7.422  -0.611  10.455  0.00  0.00    +0.017 A 
ATOM     17  C   UNL     1      -8.757  -0.331  10.257  0.00  0.00    +0.027 A 
ATOM     18 BR   UNL     1      -4.700  -0.963   9.691  0.00  0.00    -0.050 Br
ENDBRANCH   3   8
BRANCH   6  19
ATOM     19  C   UNL     1      -6.917   0.971   1.510  0.00  0.00    -0.077 C 
BRANCH  19  20
ATOM     20  C   UNL     1      -5.460   1.439   1.499  0.00  0.00    +0.002 C 
BRANCH  20  21
ATOM     21  C   UNL     1      -5.026   1.723   0.060  0.00  0.00    +0.130 C 
BRANCH  21  32
ATOM     22  C   UNL     1      -1.184  -0.678   0.010  0.00  0.00    +0.002 A 
ATOM     23  C   UNL     1       0.002  -0.004   0.002  0.00  0.00    +0.009 A 
ATOM     24  C   UNL     1      -0.017   1.401   0.010  0.00  0.00    -0.014 A 
ATOM     25  C   UNL     1       1.148   2.186   0.003  0.00  0.00    +0.009 A 
ATOM     26  C   UNL     1       1.048   3.546   0.012  0.00  0.00    +0.003 A 
ATOM     27  C   UNL     1      -0.199   4.184   0.028  0.00  0.00    +0.029 A 
ATOM     28  C   UNL     1      -1.327   3.451   0.035  0.00  0.00    +0.118 A 
ATOM     29  C   UNL     1      -1.268   2.053   0.031  0.00  0.00    +0.031 A 
ATOM     30  C   UNL     1      -2.480   1.365   0.034  0.00  0.00    +0.061 A 
ATOM     31  C   UNL     1      -2.411  -0.027   0.025  0.00  0.00    +0.025 A 
ATOM     32  N   UNL     1      -3.631   2.171   0.050  0.00  0.00    -0.202 N 
ATOM     33  S   UNL     1      -3.072   3.751   0.054  0.00  0.00    +0.075 S 
ATOM     34  O   UNL     1      -3.424   4.339  -1.191  0.00  0.00    -0.150 OA
ATOM     35  O   UNL     1      -3.400   4.324   1.312  0.00  0.00    -0.150 OA
ENDBRANCH  21  32
ENDBRANCH  20  21
ENDBRANCH  19  20
ENDBRANCH   6  19
TORSDOF 5
