REMARK  Name = ZINC36155914
REMARK  11 active torsions:
REMARK  status: ('A' for Active; 'I' for Inactive)
REMARK    1  A    between atoms: C_1  and  O_2
REMARK    2  A    between atoms: O_2  and  C_3
REMARK    3  A    between atoms: C_3  and  C_4
REMARK    4  A    between atoms: C_4  and  C_6
REMARK    5  A    between atoms: C_4  and  O_37
REMARK    6  A    between atoms: C_6  and  N_7
REMARK    7  A    between atoms: N_7  and  C_8
REMARK    8  A    between atoms: N_7  and  C_31
REMARK    9  A    between atoms: C_8  and  C_9
REMARK   10  A    between atoms: N_21  and  C_24
REMARK   11  A    between atoms: C_24  and  C_25
REMARK                            x       y       z     vdW  Elec       q    Type
REMARK                         _______ _______ _______ _____ _____    ______ ____
ROOT
ATOM      1  C   UNL     1       1.748  -6.249  -3.295  0.00  0.00    +0.094 A 
ATOM      2  N   UNL     1       2.349  -6.995  -4.258  0.00  0.00    -0.312 N 
ATOM      3  H   UNL     1       2.780  -6.549  -5.003  0.00  0.00    +0.170 HD
ATOM      4  C   UNL     1       2.359  -8.339  -4.198  0.00  0.00    +0.260 A 
ATOM      5  O   UNL     1       2.903  -8.994  -5.070  0.00  0.00    -0.267 OA
ATOM      6  C   UNL     1       1.719  -8.989  -3.092  0.00  0.00    +0.075 A 
ATOM      7  C   UNL     1       1.603 -10.419  -2.820  0.00  0.00    -0.020 A 
ATOM      8  C   UNL     1       0.943 -10.779  -1.697  0.00  0.00    +0.010 A 
ATOM      9  S   UNL     1       0.446  -9.254  -0.948  0.00  0.00    -0.072 S 
ATOM     10  C   UNL     1       1.125  -8.135  -2.148  0.00  0.00    +0.116 A 
ATOM     11  N   UNL     1       1.162  -6.811  -2.272  0.00  0.00    -0.229 NA
ATOM     12  C   UNL     1       0.696 -12.175  -1.215  0.00  0.00    +0.127 C 
ATOM     13  N   UNL     1       0.972 -13.103  -2.329  0.00  0.00    -0.293 NA
ATOM     14  C   UNL     1       2.272 -12.800  -2.945  0.00  0.00    +0.090 C 
ATOM     15  C   UNL     1       2.187 -11.492  -3.735  0.00  0.00    +0.052 C 
ENDROOT
BRANCH   1  16
ATOM     16  C   UNL     1       1.764  -4.746  -3.405  0.00  0.00    -0.003 C 
BRANCH  16  17
ATOM     17  N   UNL     1       1.211  -4.160  -2.177  0.00  0.00    +0.388 N 
ATOM     18  H   UNL     1       0.454  -4.735  -1.841  0.00  0.00    -0.081 HD
BRANCH  17  19
ATOM     19  C   UNL     1       2.262  -4.087  -1.153  0.00  0.00    -0.068 C 
ATOM     20  C   UNL     1       3.369  -3.141  -1.625  0.00  0.00    -0.015 C 
ATOM     21  C   UNL     1       4.463  -3.065  -0.559  0.00  0.00    -0.002 C 
ATOM     22  C   UNL     1       5.049  -4.460  -0.328  0.00  0.00    -0.000 C 
ATOM     23  C   UNL     1       3.942  -5.406   0.143  0.00  0.00    -0.002 C 
ATOM     24  C   UNL     1       2.848  -5.481  -0.923  0.00  0.00    -0.015 C 
ENDBRANCH  17  19
BRANCH  17  25
ATOM     25  C   UNL     1       0.711  -2.808  -2.462  0.00  0.00    -0.044 C 
BRANCH  25  26
ATOM     26  C   UNL     1      -0.036  -2.272  -1.239  0.00  0.00    +0.124 C 
BRANCH  26  27
ATOM     27  O   UNL     1       0.894  -2.033  -0.181  0.00  0.00    -0.391 OA
ATOM     28  H   UNL     1       1.531  -1.330  -0.368  0.00  0.00    +0.210 HD
ENDBRANCH  26  27
BRANCH  26  29
ATOM     29  C   UNL     1      -0.741  -0.964  -1.604  0.00  0.00    +0.188 C 
BRANCH  29  31
ATOM     30  C   UNL     1      -2.236   0.696  -0.736  0.00  0.00    +0.194 C 
ATOM     31  O   UNL     1      -1.531  -0.524  -0.498  0.00  0.00    -0.381 OA
ENDBRANCH  29  31
ENDBRANCH  26  29
ENDBRANCH  25  26
ENDBRANCH  17  25
ENDBRANCH  16  17
ENDBRANCH   1  16
BRANCH  13  32
ATOM     32  C   UNL     1       0.916 -14.499  -1.877  0.00  0.00    +0.120 C 
BRANCH  32  33
ATOM     33  C   UNL     1      -0.494 -14.839  -1.468  0.00  0.00    -0.033 A 
ATOM     34  C   UNL     1      -0.903 -14.637  -0.163  0.00  0.00    +0.005 A 
ATOM     35  C   UNL     1      -2.196 -14.949   0.212  0.00  0.00    +0.000 A 
ATOM     36  C   UNL     1      -3.081 -15.463  -0.718  0.00  0.00    +0.000 A 
ATOM     37  C   UNL     1      -2.672 -15.664  -2.023  0.00  0.00    +0.000 A 
ATOM     38  C   UNL     1      -1.380 -15.348  -2.399  0.00  0.00    +0.005 A 
ENDBRANCH  32  33
ENDBRANCH  13  32
TORSDOF 10
