REMARK  Name = ZINC58209114
REMARK  6 active torsions:
REMARK  status: ('A' for Active; 'I' for Inactive)
REMARK    1  A    between atoms: C_1  and  C_2
REMARK    2  A    between atoms: C_7  and  C_36
REMARK    3  A    between atoms: N_12  and  C_16
REMARK    4  A    between atoms: C_16  and  N_17
REMARK    5  A    between atoms: C_21  and  C_24
REMARK    6  A    between atoms: C_26  and  C_29
REMARK                            x       y       z     vdW  Elec       q    Type
REMARK                         _______ _______ _______ _____ _____    ______ ____
ROOT
ATOM      1  N   UNL     1       1.257   0.629   5.472  0.00  0.00    -0.286 NA
ATOM      2  C   UNL     1       0.148  -0.275   5.803  0.00  0.00    +0.086 C 
ATOM      3  C   UNL     1       0.601  -1.267   6.877  0.00  0.00    +0.016 C 
ATOM      4  C   UNL     1       1.046  -0.496   8.123  0.00  0.00    +0.015 C 
ATOM      5  C   UNL     1       2.168   0.473   7.740  0.00  0.00    +0.092 C 
ATOM      6  C   UNL     1       1.670   1.415   6.641  0.00  0.00    +0.099 C 
ENDROOT
BRANCH   5   7
ATOM      7  C   UNL     1       2.572   1.277   8.949  0.00  0.00    +0.232 A 
ATOM      8  N   UNL     1       3.761   1.306   9.481  0.00  0.00    -0.191 NA
ATOM      9  C   UNL     1       3.768   2.128  10.546  0.00  0.00    +0.202 A 
ATOM     10  N   UNL     1       2.568   2.631  10.695  0.00  0.00    -0.056 NA
ATOM     11  O   UNL     1       1.772   2.088   9.653  0.00  0.00    -0.337 OA
BRANCH   9  12
ATOM     12  C   UNL     1       4.941   2.417  11.408  0.00  0.00    +0.025 A 
ATOM     13  C   UNL     1       6.171   1.819  11.139  0.00  0.00    +0.012 A 
ATOM     14  C   UNL     1       7.259   2.091  11.943  0.00  0.00    +0.003 A 
ATOM     15  C   UNL     1       7.132   2.954  13.016  0.00  0.00    +0.038 A 
ATOM     16  C   UNL     1       5.913   3.552  13.289  0.00  0.00    +0.124 A 
ATOM     17  C   UNL     1       4.818   3.292  12.485  0.00  0.00    +0.050 A 
ATOM     18  F   UNL     1       5.794   4.394  14.339  0.00  0.00    -0.205 F 
ENDBRANCH   9  12
ENDBRANCH   5   7
BRANCH   1  19
ATOM     19  C   UNL     1       0.904   1.505   4.347  0.00  0.00    +0.205 C 
BRANCH  19  29
ATOM     20  C   UNL     1      -0.019   1.526   0.010  0.00  0.00    +0.010 C 
ATOM     21  C   UNL     1       0.002  -0.004   0.002  0.00  0.00    +0.019 C 
ATOM     22  C   UNL     1      -1.434  -0.533   0.012  0.00  0.00    +0.006 C 
ATOM     23  C   UNL     1      -1.413  -2.063   0.024  0.00  0.00    +0.001 C 
ATOM     24  C   UNL     1      -0.690  -2.554   1.280  0.00  0.00    +0.006 C 
ATOM     25  C   UNL     1       0.749  -2.033   1.276  0.00  0.00    +0.019 C 
ATOM     26  C   UNL     1       0.741  -0.509   1.237  0.00  0.00    +0.118 C 
ATOM     27  C   UNL     1       0.111   0.049   2.493  0.00  0.00    +0.248 C 
ATOM     28  O   UNL     1      -1.023  -0.123   2.884  0.00  0.00    -0.273 OA
ATOM     29  N   UNL     1       1.078   0.778   3.087  0.00  0.00    -0.211 N 
ATOM     30  C   UNL     1       2.217   0.755   2.383  0.00  0.00    +0.310 C 
ATOM     31  O   UNL     1       3.230   1.337   2.717  0.00  0.00    -0.252 OA
ATOM     32  N   UNL     1       2.113   0.013   1.264  0.00  0.00    -0.284 N 
ATOM     33  C   UNL     1       1.466  -2.505   2.542  0.00  0.00    +0.010 C 
ATOM     34  H   UNL     1       2.808  -0.145   0.606  0.00  0.00    +0.151 HD
ENDBRANCH  19  29
ENDBRANCH   1  19
TORSDOF 4
