REMARK  Name = ZINC45202042
REMARK  2 active torsions:
REMARK  status: ('A' for Active; 'I' for Inactive)
REMARK    1  A    between atoms: C_1  and  N_2
REMARK    2  A    between atoms: C_3  and  C_13
REMARK                            x       y       z     vdW  Elec       q    Type
REMARK                         _______ _______ _______ _____ _____    ______ ____
ROOT
ATOM      1  C   UNL     1      -0.018   1.461   0.010  0.00  0.00    +0.175 C 
ATOM      2  N   UNL     1       0.002  -0.004   0.002  0.00  0.00    -0.240 N 
ATOM      3  C   UNL     1       0.007  -0.767  -1.133  0.00  0.00    +0.147 A 
ATOM      4  C   UNL     1       0.028  -2.103  -0.708  0.00  0.00    +0.039 A 
ATOM      5  C   UNL     1       0.042  -3.361  -1.323  0.00  0.00    +0.014 A 
ATOM      6  C   UNL     1       0.061  -4.483  -0.553  0.00  0.00    +0.016 A 
ATOM      7  C   UNL     1       0.067  -4.411   0.841  0.00  0.00    +0.020 A 
ATOM      8  C   UNL     1       0.053  -3.221   1.497  0.00  0.00    +0.047 A 
ATOM      9  C   UNL     1       0.034  -2.021   0.760  0.00  0.00    +0.115 A 
ATOM     10  N   UNL     1       0.022  -0.732   1.060  0.00  0.00    -0.066 N 
ATOM     11  O   UNL     1       0.029  -0.220   2.380  0.00  0.00    -0.146 OA
ATOM     12 BR   UNL     1       0.093  -6.014   1.844  0.00  0.00    -0.050 Br
ENDROOT
BRANCH   3  13
ATOM     13  C   UNL     1      -0.006  -0.296  -2.486  0.00  0.00    +0.119 C 
ATOM     14  N   UNL     1      -0.017   0.078  -3.558  0.00  0.00    -0.189 NA
ENDBRANCH   3  13
TORSDOF 1
