REMARK  Name = ZINC21365932
REMARK  7 active torsions:
REMARK  status: ('A' for Active; 'I' for Inactive)
REMARK    1  A    between atoms: C_3  and  C_11
REMARK    2  A    between atoms: C_4  and  N_10
REMARK    3  A    between atoms: C_6  and  N_7
REMARK    4  A    between atoms: C_11  and  O_13
REMARK    5  A    between atoms: O_13  and  C_14
REMARK    6  A    between atoms: C_14  and  C_15
REMARK    7  A    between atoms: N_17  and  C_18
REMARK                            x       y       z     vdW  Elec       q    Type
REMARK                         _______ _______ _______ _____ _____    ______ ____
ROOT
ATOM      1  O   UNL     1       3.427   7.272  -0.976  0.00  0.00    -0.452 OA
ENDROOT
BRANCH   1   2
ATOM      2  C   UNL     1       4.498   8.080  -1.108  0.00  0.00    +0.341 C 
ATOM      3  O   UNL     1       5.611   7.657  -0.867  0.00  0.00    -0.245 OA
BRANCH   2   6
ATOM      4  C   UNL     1       2.873  11.309  -2.110  0.00  0.00    +0.033 A 
ATOM      5  C   UNL     1       3.034  10.003  -1.702  0.00  0.00    +0.019 A 
ATOM      6  C   UNL     1       4.318   9.476  -1.543  0.00  0.00    +0.080 A 
ATOM      7  C   UNL     1       5.437  10.287  -1.796  0.00  0.00    +0.041 A 
ATOM      8  C   UNL     1       5.254  11.600  -2.212  0.00  0.00    +0.056 A 
ATOM      9  C   UNL     1       3.979  12.105  -2.364  0.00  0.00    +0.128 A 
BRANCH   9  10
ATOM     10  N   UNL     1       3.791  13.507  -2.801  0.00  0.00    +0.056 N 
ATOM     11  O   UNL     1       2.668  13.957  -2.936  0.00  0.00    -0.126 OA
ATOM     12  O   UNL     1       4.760  14.210  -3.026  0.00  0.00    -0.126 OA
ENDBRANCH   9  10
BRANCH   7  13
ATOM     13  N   UNL     1       6.718   9.777  -1.637  0.00  0.00    -0.357 N 
ATOM     14  H   UNL     1       7.592  10.415  -1.836  0.00  0.00    +0.142 HD
ATOM     15  H   UNL     1       6.860   8.736  -1.312  0.00  0.00    +0.142 HD
ENDBRANCH   7  13
ENDBRANCH   2   6
ENDBRANCH   1   2
BRANCH   1  16
ATOM     16  C   UNL     1       3.679   5.910  -0.543  0.00  0.00    +0.328 C 
BRANCH  16  17
ATOM     17  C   UNL     1       2.374   5.162  -0.453  0.00  0.00    +0.255 C 
ATOM     18  O   UNL     1       1.334   5.722  -0.727  0.00  0.00    -0.272 OA
ATOM     19  N   UNL     1       2.362   3.870  -0.068  0.00  0.00    -0.280 N 
ATOM     20  H   UNL     1       3.298   3.379   0.237  0.00  0.00    +0.155 HD
BRANCH  19  21
ATOM     21  C   UNL     1       1.159   3.154  -0.056  0.00  0.00    +0.071 A 
ATOM     22  C   UNL     1       0.258   3.289  -1.105  0.00  0.00    +0.065 A 
ATOM     23  C   UNL     1      -0.929   2.580  -1.090  0.00  0.00    +0.042 A 
ATOM     24  C   UNL     1      -1.223   1.741  -0.030  0.00  0.00    +0.044 A 
ATOM     25  C   UNL     1      -0.325   1.601   1.014  0.00  0.00    +0.042 A 
ATOM     26  C   UNL     1       0.863   2.307   1.005  0.00  0.00    +0.065 A 
ATOM     27 CL   UNL     1       1.986   2.135   2.318  0.00  0.00    -0.082 Cl
ATOM     28 CL   UNL     1      -2.718   0.859  -0.011  0.00  0.00    -0.083 Cl
ATOM     29 CL   UNL     1       0.622   4.346  -2.433  0.00  0.00    -0.082 Cl
ENDBRANCH  19  21
ENDBRANCH  16  17
ENDBRANCH   1  16
TORSDOF 7
