REMARK  Name = ZINC08961376
REMARK  3 active torsions:
REMARK  status: ('A' for Active; 'I' for Inactive)
REMARK    1  A    between atoms: C_4  and  S_7
REMARK    2  A    between atoms: S_7  and  N_10
REMARK    3  A    between atoms: N_10  and  C_11
REMARK                            x       y       z     vdW  Elec       q    Type
REMARK                         _______ _______ _______ _____ _____    ______ ____
ROOT
ATOM      1  C   UNL     1       4.626   0.040  -2.446  0.00  0.00    +0.049 A 
ATOM      2  C   UNL     1       5.443   1.063  -1.976  0.00  0.00    +0.028 A 
ATOM      3  C   UNL     1       5.735   2.145  -2.781  0.00  0.00    +0.049 A 
ATOM      4  C   UNL     1       5.208   2.226  -4.062  0.00  0.00    +0.141 A 
ATOM      5  C   UNL     1       4.369   1.212  -4.535  0.00  0.00    +0.081 A 
ATOM      6  C   UNL     1       4.097   0.106  -3.723  0.00  0.00    +0.041 A 
ATOM      7  C   UNL     1       3.759   1.306  -5.869  0.00  0.00    +0.252 C 
ATOM      8  O   UNL     1       2.615   0.912  -5.991  0.00  0.00    -0.270 OA
ATOM      9  N   UNL     1       4.360   1.785  -6.949  0.00  0.00    -0.278 N 
ATOM     10  C   UNL     1       5.670   2.260  -7.021  0.00  0.00    +0.078 A 
ATOM     11  C   UNL     1       6.425   1.982  -8.155  0.00  0.00    +0.047 A 
ATOM     12  C   UNL     1       7.707   2.482  -8.278  0.00  0.00    +0.043 A 
ATOM     13  C   UNL     1       8.245   3.262  -7.270  0.00  0.00    +0.024 A 
ATOM     14  C   UNL     1       7.506   3.530  -6.134  0.00  0.00    +0.049 A 
ATOM     15  C   UNL     1       6.222   3.019  -5.998  0.00  0.00    +0.150 A 
ATOM     16  O   UNL     1       5.536   3.272  -4.856  0.00  0.00    -0.453 OA
ATOM     17 CL   UNL     1       8.644   2.131  -9.697  0.00  0.00    -0.083 Cl
ATOM     18  H   UNL     1       3.839   1.808  -7.768  0.00  0.00    +0.155 HD
ENDROOT
BRANCH   1  19
ATOM     19  N   UNL     1       4.345  -1.062  -1.630  0.00  0.00    -0.216 N 
ATOM     20  H   UNL     1       4.391  -1.960  -1.994  0.00  0.00    +0.174 HD
BRANCH  19  21
ATOM     21  S   UNL     1       3.934  -0.832  -0.042  0.00  0.00    +0.072 S 
ATOM     22  O   UNL     1       4.902   0.054   0.504  0.00  0.00    -0.150 OA
ATOM     23  O   UNL     1       3.686  -2.120   0.504  0.00  0.00    -0.150 OA
BRANCH  21  27
ATOM     24  C   UNL     1      -0.017   1.378   0.010  0.00  0.00    +0.000 A 
ATOM     25  C   UNL     1       1.171   2.086   0.002  0.00  0.00    +0.002 A 
ATOM     26  C   UNL     1       2.377   1.411  -0.014  0.00  0.00    +0.029 A 
ATOM     27  C   UNL     1       2.396   0.029  -0.022  0.00  0.00    +0.108 A 
ATOM     28  C   UNL     1       1.208  -0.679  -0.014  0.00  0.00    +0.029 A 
ATOM     29  C   UNL     1       0.002  -0.004   0.002  0.00  0.00    +0.002 A 
ENDBRANCH  21  27
ENDBRANCH  19  21
ENDBRANCH   1  19
TORSDOF 3
