REMARK  Name = ZINC38905528
REMARK  11 active torsions:
REMARK  status: ('A' for Active; 'I' for Inactive)
REMARK    1  A    between atoms: C_1  and  C_2
REMARK    2  A    between atoms: C_2  and  O_3
REMARK    3  A    between atoms: O_3  and  C_4
REMARK    4  A    between atoms: C_9  and  C_10
REMARK    5  A    between atoms: C_10  and  C_11
REMARK    6  A    between atoms: C_11  and  C_12
REMARK    7  A    between atoms: C_12  and  N_13
REMARK    8  A    between atoms: C_14  and  C_16
REMARK    9  A    between atoms: N_21  and  C_23
REMARK   10  A    between atoms: C_23  and  C_24
REMARK   11  A    between atoms: C_26  and  C_29
REMARK                            x       y       z     vdW  Elec       q    Type
REMARK                         _______ _______ _______ _____ _____    ______ ____
ROOT
ATOM      1  C   UNL     1      -7.283   1.440  -4.397  0.00  0.00    +0.058 C 
ATOM      2  C   UNL     1      -7.590   0.192  -5.228  0.00  0.00    +0.009 C 
ATOM      3  C   UNL     1      -8.012   0.620  -6.637  0.00  0.00    -0.018 C 
ATOM      4  C   UNL     1      -9.214   1.561  -6.539  0.00  0.00    -0.078 C 
ATOM      5  N   UNL     1      -8.849   2.747  -5.755  0.00  0.00    +0.386 N 
ATOM      6  C   UNL     1      -8.511   2.352  -4.382  0.00  0.00    -0.065 C 
ATOM      7  H   UNL     1      -8.052   3.197  -6.179  0.00  0.00    -0.081 HD
ENDROOT
BRANCH   1   9
ATOM      8  N   UNL     1      -5.888   0.224  -2.755  0.00  0.00    -0.315 N 
ATOM      9  C   UNL     1      -6.941   1.034  -2.986  0.00  0.00    +0.214 C 
ATOM     10  O   UNL     1      -7.612   1.435  -2.060  0.00  0.00    -0.276 OA
ATOM     11  H   UNL     1      -5.351  -0.097  -3.496  0.00  0.00    +0.149 HD
BRANCH   8  12
ATOM     12  C   UNL     1      -5.556  -0.171  -1.384  0.00  0.00    +0.104 C 
BRANCH  12  13
ATOM     13  C   UNL     1      -4.328  -1.085  -1.400  0.00  0.00    +0.023 C 
BRANCH  13  14
ATOM     14  C   UNL     1      -3.981  -1.497   0.032  0.00  0.00    +0.040 C 
BRANCH  14  20
ATOM     15  C   UNL     1      -1.498  -1.848   0.006  0.00  0.00    +0.124 A 
ATOM     16  C   UNL     1      -0.387  -2.679  -0.003  0.00  0.00    +0.046 A 
ATOM     17  C   UNL     1      -0.552  -4.051  -0.008  0.00  0.00    +0.004 A 
ATOM     18  C   UNL     1      -1.823  -4.596  -0.004  0.00  0.00    +0.000 A 
ATOM     19  C   UNL     1      -2.932  -3.769   0.004  0.00  0.00    +0.007 A 
ATOM     20  C   UNL     1      -2.772  -2.397   0.016  0.00  0.00    -0.006 A 
BRANCH  15  21
ATOM     21  O   UNL     1      -1.339  -0.499   0.012  0.00  0.00    -0.492 OA
BRANCH  21  23
ATOM     22  C   UNL     1      -0.019   1.526   0.010  0.00  0.00    +0.048 C 
ATOM     23  C   UNL     1       0.002  -0.004   0.002  0.00  0.00    +0.225 C 
ENDBRANCH  21  23
ENDBRANCH  15  21
ENDBRANCH  14  20
ENDBRANCH  13  14
ENDBRANCH  12  13
ENDBRANCH   8  12
ENDBRANCH   1   9
BRANCH   5  24
ATOM     24  C   UNL     1      -9.981   3.683  -5.729  0.00  0.00    +0.022 C 
BRANCH  24  25
ATOM     25  C   UNL     1     -10.244   4.191  -7.123  0.00  0.00    +0.211 A 
ATOM     26  N   UNL     1     -11.048   3.649  -7.992  0.00  0.00    -0.193 NA
ATOM     27  C   UNL     1     -11.042   4.362  -9.133  0.00  0.00    +0.202 A 
ATOM     28  N   UNL     1     -10.223   5.375  -8.989  0.00  0.00    -0.056 NA
ATOM     29  O   UNL     1      -9.694   5.281  -7.675  0.00  0.00    -0.340 OA
BRANCH  27  30
ATOM     30  C   UNL     1     -11.832   4.053 -10.351  0.00  0.00    +0.023 A 
ATOM     31  C   UNL     1     -12.675   2.944 -10.374  0.00  0.00    +0.013 A 
ATOM     32  C   UNL     1     -13.408   2.662 -11.509  0.00  0.00    +0.016 A 
ATOM     33  C   UNL     1     -13.305   3.477 -12.623  0.00  0.00    +0.018 A 
ATOM     34  C   UNL     1     -12.469   4.580 -12.604  0.00  0.00    +0.016 A 
ATOM     35  C   UNL     1     -11.737   4.875 -11.472  0.00  0.00    +0.013 A 
ATOM     36 BR   UNL     1     -14.311   3.084 -14.175  0.00  0.00    -0.050 Br
ENDBRANCH  27  30
ENDBRANCH  24  25
ENDBRANCH   5  24
TORSDOF 10
