REMARK  Name = ZINC35764021
REMARK  2 active torsions:
REMARK  status: ('A' for Active; 'I' for Inactive)
REMARK    1  A    between atoms: C_2  and  N_7
REMARK    2  A    between atoms: N_7  and  C_8
REMARK                            x       y       z     vdW  Elec       q    Type
REMARK                         _______ _______ _______ _____ _____    ______ ____
ROOT
ATOM      1  C   UNL     1       3.132   3.434  -0.010  0.00  0.00    +0.074 C 
ATOM      2  C   UNL     1       3.654   3.592   1.444  0.00  0.00    +0.026 C 
ATOM      3  C   UNL     1       3.881   5.156   1.551  0.00  0.00    -0.006 C 
ATOM      4  C   UNL     1       4.596   5.321   0.142  0.00  0.00    +0.009 C 
ATOM      5  C   UNL     1       3.373   4.784  -0.715  0.00  0.00    +0.013 C 
ATOM      6  C   UNL     1       2.372   5.844  -0.279  0.00  0.00    -0.003 C 
ATOM      7  C   UNL     1       2.480   5.625   1.302  0.00  0.00    -0.004 C 
ATOM      8  C   UNL     1       1.491   6.519   1.912  0.00  0.00    +0.004 C 
ATOM      9  C   UNL     1       0.312   6.487   0.880  0.00  0.00    +0.001 C 
ATOM     10  C   UNL     1       0.866   5.654  -0.418  0.00  0.00    +0.004 C 
ENDROOT
BRANCH   1  11
ATOM     11  N   UNL     1       1.701   3.123   0.002  0.00  0.00    -0.338 N 
ATOM     12  H   UNL     1       1.169   3.316   0.790  0.00  0.00    +0.146 HD
BRANCH  11  14
ATOM     13  C   UNL     1      -0.212   2.208  -1.253  0.00  0.00    +0.127 A 
ATOM     14  C   UNL     1       1.097   2.545  -1.130  0.00  0.00    +0.065 A 
ATOM     15  C   UNL     1       1.740   2.215  -2.332  0.00  0.00    +0.157 A 
ATOM     16  N   UNL     1       0.855   1.700  -3.146  0.00  0.00    -0.180 NA
ATOM     17  N   UNL     1      -0.385   1.682  -2.495  0.00  0.00    -0.283 N 
ATOM     18  H   UNL     1      -1.219   1.353  -2.865  0.00  0.00    +0.188 HD
ENDBRANCH  11  14
ENDBRANCH   1  11
TORSDOF 2
