REMARK  Name = ZINC11934540
REMARK  14 active torsions:
REMARK  status: ('A' for Active; 'I' for Inactive)
REMARK    1  A    between atoms: C_1  and  N_71
REMARK    2  A    between atoms: C_2  and  C_3
REMARK    3  A    between atoms: C_2  and  N_71
REMARK    4  A    between atoms: C_3  and  C_4
REMARK    5  A    between atoms: C_10  and  C_11
REMARK    6  A    between atoms: C_10  and  N_71
REMARK    7  A    between atoms: C_16  and  O_17
REMARK    8  A    between atoms: O_17  and  C_18
REMARK    9  A    between atoms: C_18  and  C_19
REMARK   10  A    between atoms: C_19  and  C_21
REMARK   11  A    between atoms: C_19  and  O_29
REMARK   12  A    between atoms: C_21  and  N_73
REMARK   13  A    between atoms: C_22  and  N_73
REMARK   14  A    between atoms: C_23  and  N_73
REMARK                            x       y       z     vdW  Elec       q    Type
REMARK                         _______ _______ _______ _____ _____    ______ ____
ROOT
ATOM      1  C   UNL     1       1.216  -4.331   4.964  0.00  0.00    -0.022 A 
ATOM      2  C   UNL     1       1.824  -4.937   6.046  0.00  0.00    +0.005 A 
ATOM      3  C   UNL     1       2.398  -4.165   7.039  0.00  0.00    +0.000 A 
ATOM      4  C   UNL     1       2.365  -2.786   6.952  0.00  0.00    +0.004 A 
ATOM      5  C   UNL     1       1.763  -2.175   5.869  0.00  0.00    +0.046 A 
ATOM      6  C   UNL     1       1.181  -2.947   4.874  0.00  0.00    +0.122 A 
ENDROOT
BRANCH   1   7
ATOM      7  C   UNL     1       0.591  -5.173   3.881  0.00  0.00    -0.040 C 
BRANCH   7   9
ATOM      8  C   UNL     1       1.685  -3.948   2.102  0.00  0.00    -0.096 C 
ATOM      9  N   UNL     1       1.535  -5.269   2.748  0.00  0.00    +0.381 N 
ATOM     10  H   UNL     1       2.449  -5.574   3.100  0.00  0.00    -0.082 HD
BRANCH   9  11
ATOM     11  C   UNL     1       1.044  -6.259   1.765  0.00  0.00    -0.078 C 
BRANCH  11  12
ATOM     12  C   UNL     1       2.138  -6.503   0.723  0.00  0.00    -0.015 C 
BRANCH  12  13
ATOM     13  C   UNL     1       1.654  -7.543  -0.290  0.00  0.00    -0.008 C 
ATOM     14  C   UNL     1       1.467  -8.892   0.410  0.00  0.00    +0.031 C 
ATOM     15  C   UNL     1       1.059  -9.943  -0.625  0.00  0.00    +0.160 C 
ATOM     16  O   UNL     1       2.055 -10.014  -1.647  0.00  0.00    -0.380 OA
ATOM     17  C   UNL     1       2.240  -8.794  -2.368  0.00  0.00    +0.160 C 
ATOM     18  C   UNL     1       2.695  -7.697  -1.403  0.00  0.00    +0.031 C 
ENDBRANCH  12  13
ENDBRANCH  11  12
ENDBRANCH   9  11
ENDBRANCH   7   9
ENDBRANCH   1   7
BRANCH   6  19
ATOM     19  O   UNL     1       0.584  -2.349   3.810  0.00  0.00    -0.489 OA
BRANCH  19  20
ATOM     20  C   UNL     1       0.586  -0.920   3.784  0.00  0.00    +0.258 C 
BRANCH  20  21
ATOM     21  C   UNL     1      -0.127  -0.432   2.521  0.00  0.00    +0.135 C 
BRANCH  21  22
ATOM     22  O   UNL     1      -1.505  -0.807   2.576  0.00  0.00    -0.390 OA
ATOM     23  H   UNL     1      -1.982  -0.440   3.333  0.00  0.00    +0.210 HD
ENDBRANCH  21  22
BRANCH  21  24
ATOM     24  C   UNL     1      -0.016   1.091   2.429  0.00  0.00    -0.044 C 
BRANCH  24  26
ATOM     25  C   UNL     1      -0.013   1.086   0.008  0.00  0.00    -0.096 C 
ATOM     26  N   UNL     1      -0.727   1.548   1.217  0.00  0.00    +0.381 N 
ATOM     27  H   UNL     1      -1.674   1.153   1.216  0.00  0.00    -0.082 HD
BRANCH  26  28
ATOM     28  C   UNL     1      -0.822   3.023   1.213  0.00  0.00    -0.069 C 
ATOM     29  C   UNL     1      -1.628   3.471   2.435  0.00  0.00    -0.015 C 
ATOM     30  C   UNL     1      -1.755   4.996   2.431  0.00  0.00    -0.002 C 
ATOM     31  C   UNL     1      -2.471   5.445   1.156  0.00  0.00    -0.000 C 
ATOM     32  C   UNL     1      -1.665   4.997  -0.066  0.00  0.00    -0.002 C 
ATOM     33  C   UNL     1      -1.538   3.473  -0.062  0.00  0.00    -0.015 C 
ENDBRANCH  26  28
ENDBRANCH  24  26
ENDBRANCH  21  24
ENDBRANCH  20  21
ENDBRANCH  19  20
ENDBRANCH   6  19
TORSDOF 12
