REMARK  Name = ZINC59342527
REMARK  6 active torsions:
REMARK  status: ('A' for Active; 'I' for Inactive)
REMARK    1  A    between atoms: N_10  and  S_11
REMARK    2  A    between atoms: S_11  and  C_14
REMARK    3  A    between atoms: C_17  and  N_20
REMARK    4  A    between atoms: C_21  and  C_23
REMARK    5  A    between atoms: C_23  and  C_24
REMARK    6  A    between atoms: C_27  and  N_30
REMARK                            x       y       z     vdW  Elec       q    Type
REMARK                         _______ _______ _______ _____ _____    ______ ____
ROOT
ATOM      1  C   UNL     1       5.599   0.925   1.097  0.00  0.00    +0.109 A 
ATOM      2  C   UNL     1       5.176   2.189   1.466  0.00  0.00    +0.030 A 
ATOM      3  C   UNL     1       5.619   2.750   2.647  0.00  0.00    +0.025 A 
ATOM      4  C   UNL     1       6.491   2.043   3.466  0.00  0.00    +0.034 A 
ATOM      5  C   UNL     1       6.914   0.774   3.093  0.00  0.00    +0.025 A 
ATOM      6  C   UNL     1       6.463   0.217   1.912  0.00  0.00    +0.030 A 
ENDROOT
BRANCH   4   7
ATOM      7  N   UNL     1       6.942   2.609   4.663  0.00  0.00    -0.285 N 
ATOM      8  C   UNL     1       6.125   3.403   5.384  0.00  0.00    +0.222 C 
ATOM      9  O   UNL     1       4.969   3.549   5.046  0.00  0.00    -0.275 OA
ATOM     10  H   UNL     1       7.843   2.430   4.975  0.00  0.00    +0.155 HD
BRANCH   8  11
ATOM     11  C   UNL     1       6.647   4.108   6.609  0.00  0.00    +0.131 C 
BRANCH  11  12
ATOM     12  C   UNL     1       5.542   4.926   7.227  0.00  0.00    -0.038 A 
ATOM     13  C   UNL     1       5.348   6.236   6.832  0.00  0.00    +0.006 A 
ATOM     14  C   UNL     1       4.334   6.985   7.399  0.00  0.00    +0.033 A 
ATOM     15  C   UNL     1       3.515   6.424   8.361  0.00  0.00    +0.126 A 
ATOM     16  C   UNL     1       3.709   5.114   8.756  0.00  0.00    +0.033 A 
ATOM     17  C   UNL     1       4.720   4.363   8.185  0.00  0.00    +0.006 A 
BRANCH  15  18
ATOM     18  N   UNL     1       2.430   7.227   8.970  0.00  0.00    +0.056 N 
ATOM     19  O   UNL     1       2.261   8.374   8.625  0.00  0.00    -0.126 OA
ATOM     20  O   UNL     1       1.714   6.737   9.811  0.00  0.00    -0.126 OA
ENDBRANCH  15  18
ENDBRANCH  11  12
ENDBRANCH   8  11
ENDBRANCH   4   7
BRANCH   1  21
ATOM     21  S   UNL     1       5.031   0.213  -0.411  0.00  0.00    +0.075 S 
ATOM     22  O   UNL     1       5.997  -0.758  -0.791  0.00  0.00    -0.150 OA
ATOM     23  O   UNL     1       4.664   1.294  -1.258  0.00  0.00    -0.150 OA
BRANCH  21  33
ATOM     24  C   UNL     1      -0.008   1.398  -0.017  0.00  0.00    +0.000 A 
ATOM     25  C   UNL     1       1.178   2.110  -0.018  0.00  0.00    +0.002 A 
ATOM     26  C   UNL     1       2.383   1.438  -0.034  0.00  0.00    +0.025 A 
ATOM     27  C   UNL     1       2.405   0.047  -0.048  0.00  0.00    +0.054 A 
ATOM     28  C   UNL     1       1.217  -0.665  -0.043  0.00  0.00    -0.025 A 
ATOM     29  C   UNL     1       0.011   0.017  -0.029  0.00  0.00    +0.005 A 
ATOM     30  C   UNL     1       1.202  -2.171  -0.046  0.00  0.00    +0.038 C 
ATOM     31  C   UNL     1       2.533  -2.718  -0.560  0.00  0.00    +0.025 C 
ATOM     32  C   UNL     1       3.676  -2.054   0.219  0.00  0.00    +0.132 C 
ATOM     33  N   UNL     1       3.638  -0.614  -0.068  0.00  0.00    -0.203 N 
ENDBRANCH  21  33
ENDBRANCH   1  21
TORSDOF 6
