REMARK  Name = ZINC35365908
REMARK  7 active torsions:
REMARK  status: ('A' for Active; 'I' for Inactive)
REMARK    1  A    between atoms: C_1  and  C_2
REMARK    2  A    between atoms: C_2  and  C_3
REMARK    3  A    between atoms: C_3  and  C_5
REMARK    4  A    between atoms: C_3  and  N_6
REMARK    5  A    between atoms: C_11  and  C_29
REMARK    6  A    between atoms: C_23  and  C_28
REMARK    7  A    between atoms: C_29  and  C_30
REMARK                            x       y       z     vdW  Elec       q    Type
REMARK                         _______ _______ _______ _____ _____    ______ ____
ROOT
ATOM      1  N   UNL     1      -1.934  -0.102  -1.173  0.00  0.00    -0.239 N 
ATOM      2  C   UNL     1      -1.560  -0.550  -2.377  0.00  0.00    +0.227 C 
ATOM      3  O   UNL     1      -0.710  -1.391  -2.579  0.00  0.00    -0.275 OA
ATOM      4  C   UNL     1      -2.363   0.154  -3.447  0.00  0.00    +0.107 C 
ATOM      5  C   UNL     1      -1.429   1.084  -4.251  0.00  0.00    +0.072 C 
ATOM      6  N   UNL     1      -2.172   2.368  -4.360  0.00  0.00    -0.295 NA
ATOM      7  C   UNL     1      -2.825   2.520  -3.047  0.00  0.00    +0.136 C 
ATOM      8  C   UNL     1      -3.289   1.102  -2.634  0.00  0.00    +0.122 C 
ATOM      9  C   UNL     1      -2.900   0.824  -1.200  0.00  0.00    +0.228 C 
ATOM     10  O   UNL     1      -3.385   1.358  -0.226  0.00  0.00    -0.275 OA
ATOM     11  C   UNL     1      -1.894   3.123  -2.034  0.00  0.00    +0.004 A 
ATOM     12  C   UNL     1      -0.672   2.743  -1.525  0.00  0.00    +0.008 A 
ATOM     13  C   UNL     1      -0.042   3.530  -0.577  0.00  0.00    +0.001 A 
ATOM     14  C   UNL     1      -0.642   4.698  -0.142  0.00  0.00    +0.005 A 
ATOM     15  C   UNL     1      -1.866   5.082  -0.649  0.00  0.00    -0.029 A 
ATOM     16  C   UNL     1      -2.507   4.296  -1.604  0.00  0.00    +0.042 A 
ATOM     17  N   UNL     1      -3.729   4.470  -2.257  0.00  0.00    -0.283 N 
ATOM     18  C   UNL     1      -3.990   3.470  -3.122  0.00  0.00    +0.243 C 
ATOM     19  O   UNL     1      -4.972   3.358  -3.824  0.00  0.00    -0.273 OA
ATOM     20  C   UNL     1      -2.511   6.356  -0.168  0.00  0.00    +0.045 C 
ATOM     21  H   UNL     1      -1.542   3.135  -4.542  0.00  0.00    +0.124 HD
ATOM     22  H   UNL     1      -4.322   5.223  -2.105  0.00  0.00    +0.155 HD
ENDROOT
BRANCH   1  23
ATOM     23  C   UNL     1      -1.339  -0.591   0.074  0.00  0.00    +0.081 C 
ATOM     24  C   UNL     1      -0.710   0.580   0.832  0.00  0.00    +0.028 C 
BRANCH  23  26
ATOM     25  C   UNL     1      -2.960  -2.485   0.240  0.00  0.00    +0.006 C 
ATOM     26  C   UNL     1      -2.425  -1.234   0.939  0.00  0.00    +0.019 C 
ENDBRANCH  23  26
ENDBRANCH   1  23
BRANCH   5  27
ATOM     27  C   UNL     1      -1.163   0.500  -5.640  0.00  0.00    +0.056 C 
BRANCH  27  28
ATOM     28  C   UNL     1      -0.155   1.358  -6.361  0.00  0.00    -0.021 A 
ATOM     29  C   UNL     1      -0.423   2.357  -7.216  0.00  0.00    +0.087 A 
ATOM     30  N   UNL     1       0.744   2.906  -7.673  0.00  0.00    -0.360 N 
ATOM     31  H   UNL     1       0.805   3.643  -8.301  0.00  0.00    +0.165 HD
ATOM     32  C   UNL     1       1.819   2.259  -7.107  0.00  0.00    +0.047 A 
ATOM     33  C   UNL     1       1.303   1.264  -6.255  0.00  0.00    +0.003 A 
ATOM     34  C   UNL     1       2.173   0.444  -5.535  0.00  0.00    +0.010 A 
ATOM     35  C   UNL     1       3.523   0.613  -5.659  0.00  0.00    +0.001 A 
ATOM     36  C   UNL     1       4.037   1.595  -6.494  0.00  0.00    +0.002 A 
ATOM     37  C   UNL     1       3.197   2.410  -7.221  0.00  0.00    +0.026 A 
ENDBRANCH  27  28
ENDBRANCH   5  27
TORSDOF 4
