REMARK  Name = ZINC11997971
REMARK  9 active torsions:
REMARK  status: ('A' for Active; 'I' for Inactive)
REMARK    1  A    between atoms: C_1  and  C_2
REMARK    2  A    between atoms: C_2  and  C_33
REMARK    3  A    between atoms: N_7  and  C_10
REMARK    4  A    between atoms: C_13  and  S_16
REMARK    5  A    between atoms: S_16  and  N_19
REMARK    6  A    between atoms: N_19  and  C_20
REMARK    7  A    between atoms: C_20  and  C_21
REMARK    8  A    between atoms: C_21  and  C_23
REMARK    9  A    between atoms: C_21  and  N_62
REMARK                            x       y       z     vdW  Elec       q    Type
REMARK                         _______ _______ _______ _____ _____    ______ ____
ROOT
ATOM      1  S   UNL     1       2.694   3.958  -0.031  0.00  0.00    +0.058 S 
ATOM      2  O   UNL     1       2.498   5.208   0.616  0.00  0.00    -0.153 OA
ATOM      3  O   UNL     1       3.641   3.003   0.429  0.00  0.00    -0.153 OA
ENDROOT
BRANCH   1   7
ATOM      4  C   UNL     1      -1.328   1.877  -0.080  0.00  0.00    +0.059 A 
ATOM      5  C   UNL     1      -0.158   1.133  -0.158  0.00  0.00    +0.027 A 
ATOM      6  C   UNL     1       1.067   1.771  -0.145  0.00  0.00    +0.030 A 
ATOM      7  C   UNL     1       1.129   3.149  -0.048  0.00  0.00    +0.105 A 
ATOM      8  C   UNL     1      -0.033   3.893   0.035  0.00  0.00    +0.030 A 
ATOM      9  C   UNL     1      -1.261   3.261   0.022  0.00  0.00    +0.027 A 
BRANCH   4  16
ATOM     10  C   UNL     1      -4.233  -1.971  -0.263  0.00  0.00    +0.022 C 
ATOM     11  C   UNL     1      -4.238  -0.478  -0.598  0.00  0.00    +0.064 C 
ATOM     12  C   UNL     1      -5.018   0.299   0.496  0.00  0.00    +0.205 C 
ATOM     13  S   UNL     1      -3.997   1.828   0.548  0.00  0.00    +0.053 S 
ATOM     14  O   UNL     1      -3.690   2.188   1.888  0.00  0.00    -0.155 OA
ATOM     15  O   UNL     1      -4.473   2.788  -0.386  0.00  0.00    -0.155 OA
ATOM     16  N   UNL     1      -2.571   1.235  -0.099  0.00  0.00    -0.143 N 
ATOM     17  C   UNL     1      -2.832   0.037  -0.644  0.00  0.00    +0.246 C 
ATOM     18  O   UNL     1      -1.949  -0.616  -1.159  0.00  0.00    -0.273 OA
ATOM     19  C   UNL     1      -4.904  -0.258  -1.958  0.00  0.00    +0.022 C 
ENDBRANCH   4  16
ENDBRANCH   1   7
BRANCH   1  20
ATOM     20  N   UNL     1       3.088   4.296  -1.603  0.00  0.00    -0.191 NA
ATOM     21  H   UNL     1       3.857   3.869  -2.013  0.00  0.00    +0.148 HD
BRANCH  20  22
ATOM     22  C   UNL     1       2.276   5.239  -2.376  0.00  0.00    +0.095 C 
BRANCH  22  23
ATOM     23  C   UNL     1       3.034   5.650  -3.640  0.00  0.00    -0.022 C 
BRANCH  23  24
ATOM     24  C   UNL     1       3.215   4.447  -4.529  0.00  0.00    -0.060 A 
ATOM     25  C   UNL     1       2.173   4.015  -5.329  0.00  0.00    +0.002 A 
ATOM     26  C   UNL     1       2.341   2.914  -6.148  0.00  0.00    +0.000 A 
ATOM     27  C   UNL     1       3.548   2.240  -6.161  0.00  0.00    +0.000 A 
ATOM     28  C   UNL     1       4.588   2.668  -5.357  0.00  0.00    +0.000 A 
ATOM     29  C   UNL     1       4.421   3.772  -4.541  0.00  0.00    +0.002 A 
ENDBRANCH  23  24
BRANCH  23  34
ATOM     30  C   UNL     1       2.039   7.867  -3.497  0.00  0.00    -0.078 C 
ATOM     31  C   UNL     1       1.725   8.989  -4.519  0.00  0.00    -0.020 C 
ATOM     32  C   UNL     1       2.679   8.665  -5.691  0.00  0.00    -0.020 C 
ATOM     33  C   UNL     1       3.017   7.171  -5.534  0.00  0.00    -0.078 C 
ATOM     34  N   UNL     1       2.265   6.704  -4.368  0.00  0.00    +0.385 N 
ATOM     35  H   UNL     1       1.364   6.315  -4.670  0.00  0.00    -0.081 HD
ENDBRANCH  23  34
ENDBRANCH  22  23
ENDBRANCH  20  22
ENDBRANCH   1  20
TORSDOF 7
