REMARK  Name = ZINC15866342
REMARK  5 active torsions:
REMARK  status: ('A' for Active; 'I' for Inactive)
REMARK    1  A    between atoms: C_1  and  C_2
REMARK    2  A    between atoms: C_5  and  C_8
REMARK    3  A    between atoms: C_11  and  C_19
REMARK    4  A    between atoms: C_22  and  C_26
REMARK    5  A    between atoms: C_23  and  C_25
REMARK                            x       y       z     vdW  Elec       q    Type
REMARK                         _______ _______ _______ _____ _____    ______ ____
ROOT
ATOM      1  C   UNL     1       0.002  -0.004   0.002  0.00  0.00    +0.144 C 
ATOM      2  C   UNL     1      -0.019   1.530   0.011  0.00  0.00    +0.059 C 
ATOM      3  C   UNL     1       1.416   2.068  -0.000  0.00  0.00    +0.106 C 
ATOM      4  N   UNL     1       2.098   1.622   1.230  0.00  0.00    -0.305 N 
ATOM      5  C   UNL     1       1.893   0.299   1.598  0.00  0.00    +0.236 A 
ATOM      6  N   UNL     1       0.926  -0.467   1.034  0.00  0.00    -0.206 N 
ATOM      7  N   UNL     1       1.033  -1.715   1.648  0.00  0.00    -0.042 NA
ATOM      8  N   UNL     1       2.004  -1.625   2.498  0.00  0.00    -0.021 NA
ATOM      9  N   UNL     1       2.514  -0.441   2.473  0.00  0.00    -0.092 NA
ATOM     10  H   UNL     1       2.657   2.218   1.752  0.00  0.00    +0.150 HD
ENDROOT
BRANCH   3  11
ATOM     11  C   UNL     1       1.391   3.574  -0.046  0.00  0.00    -0.027 A 
ATOM     12  C   UNL     1       1.161   4.297   1.110  0.00  0.00    +0.006 A 
ATOM     13  C   UNL     1       1.143   5.679   1.069  0.00  0.00    +0.004 A 
ATOM     14  C   UNL     1       1.344   6.338  -0.130  0.00  0.00    -0.048 A 
ATOM     15  C   UNL     1       1.568   5.615  -1.287  0.00  0.00    -0.047 A 
ATOM     16  C   UNL     1       1.592   4.233  -1.245  0.00  0.00    +0.009 A 
ATOM     17  C   UNL     1       1.787   6.333  -2.593  0.00  0.00    +0.044 C 
ATOM     18  C   UNL     1       1.319   7.844  -0.176  0.00  0.00    +0.044 C 
ENDBRANCH   3  11
BRANCH   1  23
ATOM     19  C   UNL     1      -5.300  -2.021   1.104  0.00  0.00    +0.044 C 
ATOM     20  C   UNL     1      -3.917  -1.494   0.816  0.00  0.00    -0.050 A 
ATOM     21  C   UNL     1      -3.291  -1.811  -0.375  0.00  0.00    +0.004 A 
ATOM     22  C   UNL     1      -2.023  -1.329  -0.638  0.00  0.00    +0.006 A 
ATOM     23  C   UNL     1      -1.381  -0.530   0.289  0.00  0.00    -0.023 A 
ATOM     24  C   UNL     1      -2.005  -0.217   1.482  0.00  0.00    +0.006 A 
ATOM     25  C   UNL     1      -3.276  -0.695   1.744  0.00  0.00    +0.004 A 
ENDBRANCH   1  23
TORSDOF 2
