REMARK  Name = ZINC04346808
REMARK  8 active torsions:
REMARK  status: ('A' for Active; 'I' for Inactive)
REMARK    1  A    between atoms: C_1  and  C_2
REMARK    2  A    between atoms: C_5  and  C_9
REMARK    3  A    between atoms: C_6  and  C_8
REMARK    4  A    between atoms: N_14  and  C_17
REMARK    5  A    between atoms: C_17  and  C_18
REMARK    6  A    between atoms: C_18  and  C_19
REMARK    7  A    between atoms: C_18  and  C_20
REMARK    8  A    between atoms: N_21  and  C_25
REMARK                            x       y       z     vdW  Elec       q    Type
REMARK                         _______ _______ _______ _____ _____    ______ ____
ROOT
ATOM      1  C   UNL     1      -1.301  -0.761  -0.021  0.00  0.00    +0.142 C 
ATOM      2  C   UNL     1      -1.641  -1.089  -1.461  0.00  0.00    +0.058 C 
ATOM      3  C   UNL     1      -2.820  -0.644  -1.944  0.00  0.00    +0.042 C 
ATOM      4  C   UNL     1      -2.893  -1.109  -3.381  0.00  0.00    +0.159 C 
ATOM      5  N   UNL     1      -1.638  -1.841  -3.607  0.00  0.00    -0.292 N 
ATOM      6  C   UNL     1      -0.942  -1.801  -2.457  0.00  0.00    +0.247 C 
ATOM      7  O   UNL     1       0.151  -2.313  -2.296  0.00  0.00    -0.270 OA
ATOM      8  N   UNL     1      -3.678   0.076  -1.163  0.00  0.00    -0.260 N 
ATOM      9  C   UNL     1      -3.428   0.393   0.115  0.00  0.00    +0.307 C 
ATOM     10  O   UNL     1      -4.253   1.038   0.732  0.00  0.00    -0.252 OA
ATOM     11  N   UNL     1      -2.292   0.021   0.737  0.00  0.00    -0.288 N 
ATOM     12  C   UNL     1      -4.940   0.526  -1.754  0.00  0.00    +0.139 C 
ATOM     13  H   UNL     1      -2.131   0.262   1.662  0.00  0.00    +0.151 HD
ENDROOT
BRANCH   1  18
ATOM     14  C   UNL     1       3.681   2.167   0.010  0.00  0.00    +0.044 C 
ATOM     15  C   UNL     1       2.382   1.403   0.002  0.00  0.00    -0.050 A 
ATOM     16  C   UNL     1       1.632   1.328  -1.157  0.00  0.00    +0.004 A 
ATOM     17  C   UNL     1       0.440   0.627  -1.165  0.00  0.00    +0.006 A 
ATOM     18  C   UNL     1      -0.002   0.003  -0.013  0.00  0.00    -0.020 A 
ATOM     19  C   UNL     1       0.748   0.079   1.145  0.00  0.00    -0.045 A 
ATOM     20  C   UNL     1       1.940   0.779   1.153  0.00  0.00    +0.007 A 
ATOM     21  C   UNL     1       0.266  -0.603   2.401  0.00  0.00    +0.044 C 
ENDBRANCH   1  18
BRANCH   5  22
ATOM     22  C   UNL     1      -1.224  -2.493  -4.851  0.00  0.00    +0.111 C 
BRANCH  22  23
ATOM     23  C   UNL     1      -1.716  -3.942  -4.857  0.00  0.00    +0.000 C 
ATOM     24  C   UNL     1      -3.246  -3.961  -4.879  0.00  0.00    +0.009 C 
ATOM     25  C   UNL     1      -1.179  -4.658  -6.097  0.00  0.00    +0.009 C 
ENDBRANCH  22  23
ENDBRANCH   5  22
TORSDOF 3
