REMARK  Name = ZINC64966330
REMARK  9 active torsions:
REMARK  status: ('A' for Active; 'I' for Inactive)
REMARK    1  A    between atoms: C_1  and  C_2
REMARK    2  A    between atoms: C_5  and  N_9
REMARK    3  A    between atoms: C_6  and  C_8
REMARK    4  A    between atoms: C_10  and  C_12
REMARK    5  A    between atoms: C_12  and  N_13
REMARK    6  A    between atoms: C_16  and  S_29
REMARK    7  A    between atoms: S_29  and  N_32
REMARK    8  A    between atoms: N_32  and  C_33
REMARK    9  A    between atoms: N_32  and  C_34
REMARK                            x       y       z     vdW  Elec       q    Type
REMARK                         _______ _______ _______ _____ _____    ______ ____
ROOT
ATOM      1  N   UNL     1      -0.232  -6.826  -2.567  0.00  0.00    -0.259 N 
ATOM      2  C   UNL     1      -1.489  -6.974  -3.164  0.00  0.00    +0.060 A 
ATOM      3  C   UNL     1      -2.643  -6.932  -2.397  0.00  0.00    +0.054 A 
ATOM      4  C   UNL     1      -3.878  -7.067  -3.005  0.00  0.00    +0.107 A 
ATOM      5  C   UNL     1      -3.966  -7.245  -4.373  0.00  0.00    +0.030 A 
ATOM      6  C   UNL     1      -2.819  -7.293  -5.144  0.00  0.00    +0.027 A 
ATOM      7  C   UNL     1      -1.578  -7.163  -4.540  0.00  0.00    +0.052 A 
ATOM      8  N   UNL     1      -0.406  -7.240  -5.318  0.00  0.00    -0.317 N 
ATOM      9  C   UNL     1      -0.538  -6.986  -6.752  0.00  0.00    +0.106 C 
ATOM     10  C   UNL     1       0.715  -6.319  -7.312  0.00  0.00    +0.019 C 
ATOM     11  C   UNL     1       1.928  -7.166  -6.912  0.00  0.00    +0.004 C 
ATOM     12  C   UNL     1       2.084  -7.101  -5.397  0.00  0.00    +0.032 C 
ATOM     13  C   UNL     1       0.845  -7.605  -4.676  0.00  0.00    +0.160 C 
ATOM     14  C   UNL     1       0.885  -7.118  -3.252  0.00  0.00    +0.241 C 
ATOM     15  O   UNL     1       1.960  -6.989  -2.705  0.00  0.00    -0.273 OA
ENDROOT
BRANCH   4  16
ATOM     16  S   UNL     1      -5.345  -7.014  -2.031  0.00  0.00    +0.060 S 
ATOM     17  O   UNL     1      -6.344  -7.710  -2.764  0.00  0.00    -0.153 OA
ATOM     18  O   UNL     1      -4.971  -7.385  -0.712  0.00  0.00    -0.153 OA
BRANCH  16  19
ATOM     19  N   UNL     1      -5.828  -5.431  -1.958  0.00  0.00    -0.183 NA
ATOM     20  C   UNL     1      -6.741  -4.896  -2.972  0.00  0.00    +0.131 C 
ATOM     21  C   UNL     1      -5.341  -4.566  -0.881  0.00  0.00    +0.131 C 
ENDBRANCH  16  19
ENDBRANCH   4  16
BRANCH   1  22
ATOM     22  C   UNL     1      -0.134  -6.343  -1.187  0.00  0.00    +0.209 C 
BRANCH  22  24
ATOM     23  N   UNL     1       0.059  -4.170  -0.021  0.00  0.00    -0.284 N 
ATOM     24  C   UNL     1      -0.040  -4.839  -1.187  0.00  0.00    +0.235 C 
ATOM     25  O   UNL     1      -0.054  -4.230  -2.236  0.00  0.00    -0.274 OA
ATOM     26  H   UNL     1       0.135  -4.658   0.814  0.00  0.00    +0.155 HD
BRANCH  23  31
ATOM     27  C   UNL     1       0.025   1.503   0.005  0.00  0.00    +0.044 C 
ATOM     28  C   UNL     1       0.034  -0.004  -0.002  0.00  0.00    -0.050 A 
ATOM     29  C   UNL     1       0.632  -0.685  -1.046  0.00  0.00    +0.005 A 
ATOM     30  C   UNL     1       0.641  -2.066  -1.055  0.00  0.00    +0.024 A 
ATOM     31  C   UNL     1       0.051  -2.771  -0.014  0.00  0.00    +0.036 A 
ATOM     32  C   UNL     1      -0.548  -2.083   1.033  0.00  0.00    -0.029 A 
ATOM     33  C   UNL     1      -0.550  -0.702   1.039  0.00  0.00    +0.008 A 
ATOM     34  C   UNL     1      -1.190  -2.843   2.165  0.00  0.00    +0.045 C 
ENDBRANCH  23  31
ENDBRANCH  22  24
ENDBRANCH   1  22
TORSDOF 5
