REMARK  Name = ZINC43575836
REMARK  5 active torsions:
REMARK  status: ('A' for Active; 'I' for Inactive)
REMARK    1  A    between atoms: C_1  and  C_2
REMARK    2  A    between atoms: C_8  and  C_10
REMARK    3  A    between atoms: C_10  and  N_11
REMARK    4  A    between atoms: C_12  and  C_16
REMARK    5  A    between atoms: C_19  and  N_23
REMARK                            x       y       z     vdW  Elec       q    Type
REMARK                         _______ _______ _______ _____ _____    ______ ____
ROOT
ATOM      1  N   UNL     1       2.717  -0.429   2.539  0.00  0.00    -0.225 N 
ATOM      2  C   UNL     1       2.969   0.368   3.608  0.00  0.00    +0.185 A 
ATOM      3  N   UNL     1       3.774  -0.301   4.407  0.00  0.00    -0.108 NA
ATOM      4  N   UNL     1       4.040  -1.456   3.913  0.00  0.00    -0.023 NA
ATOM      5  N   UNL     1       3.434  -1.613   2.786  0.00  0.00    -0.044 NA
ENDROOT
BRANCH   2   6
ATOM      6  C   UNL     1       2.440   1.730   3.833  0.00  0.00    +0.056 A 
ATOM      7  C   UNL     1       2.502   2.682   2.814  0.00  0.00    +0.016 A 
ATOM      8  C   UNL     1       2.009   3.950   3.025  0.00  0.00    +0.023 A 
ATOM      9  C   UNL     1       1.447   4.285   4.254  0.00  0.00    +0.027 A 
ATOM     10  C   UNL     1       1.382   3.341   5.272  0.00  0.00    +0.061 A 
ATOM     11  C   UNL     1       1.870   2.066   5.065  0.00  0.00    +0.136 A 
ATOM     12  F   UNL     1       1.802   1.147   6.052  0.00  0.00    -0.205 F 
BRANCH   9  13
ATOM     13  N   UNL     1       0.948   5.570   4.464  0.00  0.00    -0.358 N 
ATOM     14  H   UNL     1       0.994   6.229   3.754  0.00  0.00    +0.142 HD
ATOM     15  H   UNL     1       0.556   5.804   5.319  0.00  0.00    +0.142 HD
ENDBRANCH   9  13
ENDBRANCH   2   6
BRANCH   1  16
ATOM     16  C   UNL     1       1.875  -0.124   1.381  0.00  0.00    +0.151 C 
BRANCH  16  23
ATOM     17  C   UNL     1      -0.324   1.498   0.322  0.00  0.00    +0.008 C 
ATOM     18  C   UNL     1      -0.479  -0.007   0.550  0.00  0.00    -0.009 C 
ATOM     19  C   UNL     1      -1.938  -0.325   0.883  0.00  0.00    +0.003 C 
ATOM     20  C   UNL     1      -2.093  -1.830   1.111  0.00  0.00    +0.000 C 
ATOM     21  C   UNL     1      -1.199  -2.264   2.274  0.00  0.00    +0.000 C 
ATOM     22  C   UNL     1       0.261  -1.947   1.941  0.00  0.00    +0.005 C 
ATOM     23  C   UNL     1       0.415  -0.442   1.713  0.00  0.00    +0.013 C 
ENDBRANCH  16  23
ENDBRANCH   1  16
TORSDOF 4
