REMARK  Name = ZINC36501350
REMARK  12 active torsions:
REMARK  status: ('A' for Active; 'I' for Inactive)
REMARK    1  A    between atoms: C_3  and  C_6
REMARK    2  A    between atoms: C_6  and  N_7
REMARK    3  A    between atoms: N_7  and  C_8
REMARK    4  A    between atoms: C_8  and  C_10
REMARK    5  A    between atoms: C_8  and  C_19
REMARK    6  A    between atoms: C_11  and  O_18
REMARK    7  A    between atoms: C_13  and  O_17
REMARK    8  A    between atoms: C_15  and  O_16
REMARK    9  A    between atoms: N_21  and  C_22
REMARK   10  A    between atoms: C_28  and  C_30
REMARK   11  A    between atoms: C_30  and  C_31
REMARK   12  A    between atoms: C_31  and  S_32
REMARK                            x       y       z     vdW  Elec       q    Type
REMARK                         _______ _______ _______ _____ _____    ______ ____
ROOT
ATOM      1  C   UNL     1       4.160  -0.651   1.982  0.00  0.00    +0.200 C 
ENDROOT
BRANCH   1   2
ATOM      2  C   UNL     1       5.354   0.143   2.445  0.00  0.00    +0.065 A 
ATOM      3  C   UNL     1       6.141  -0.332   3.484  0.00  0.00    +0.129 A 
ATOM      4  C   UNL     1       7.240   0.399   3.911  0.00  0.00    +0.091 A 
ATOM      5  C   UNL     1       7.552   1.603   3.298  0.00  0.00    +0.124 A 
ATOM      6  C   UNL     1       6.766   2.077   2.259  0.00  0.00    +0.091 A 
ATOM      7  C   UNL     1       5.669   1.345   1.830  0.00  0.00    +0.129 A 
BRANCH   7   8
ATOM      8  O   UNL     1       4.901   1.807   0.808  0.00  0.00    -0.506 OA
ATOM      9  H   UNL     1       4.231   2.449   1.079  0.00  0.00    +0.292 HD
ENDBRANCH   7   8
BRANCH   5  10
ATOM     10  O   UNL     1       8.628   2.320   3.717  0.00  0.00    -0.507 OA
ATOM     11  H   UNL     1       9.450   2.099   3.258  0.00  0.00    +0.292 HD
ENDBRANCH   5  10
BRANCH   3  12
ATOM     12  O   UNL     1       5.835  -1.512   4.084  0.00  0.00    -0.506 OA
ATOM     13  H   UNL     1       6.316  -2.271   3.727  0.00  0.00    +0.292 HD
ENDBRANCH   3  12
ENDBRANCH   1   2
BRANCH   1  14
ATOM     14  C   UNL     1       3.400  -1.162   3.179  0.00  0.00    +0.239 C 
ATOM     15  O   UNL     1       2.745  -0.396   3.853  0.00  0.00    -0.273 OA
ATOM     16  N   UNL     1       3.449  -2.470   3.500  0.00  0.00    -0.311 N 
ATOM     17  H   UNL     1       4.050  -3.064   3.024  0.00  0.00    +0.149 HD
BRANCH  16  18
ATOM     18  C   UNL     1       2.595  -2.994   4.569  0.00  0.00    +0.073 C 
ATOM     19  C   UNL     1       3.283  -2.787   5.919  0.00  0.00    +0.022 C 
ATOM     20  C   UNL     1       2.390  -3.334   7.035  0.00  0.00    +0.002 C 
ATOM     21  C   UNL     1       2.149  -4.828   6.809  0.00  0.00    +0.000 C 
ATOM     22  C   UNL     1       1.461  -5.035   5.458  0.00  0.00    +0.002 C 
ATOM     23  C   UNL     1       2.354  -4.488   4.342  0.00  0.00    +0.022 C 
ENDBRANCH  16  18
ENDBRANCH   1  14
BRANCH   1  24
ATOM     24  N   UNL     1       3.285   0.207   1.178  0.00  0.00    -0.278 N 
ATOM     25  C   UNL     1       2.721   1.299   1.730  0.00  0.00    +0.218 C 
ATOM     26  O   UNL     1       3.084   1.684   2.821  0.00  0.00    -0.276 OA
BRANCH  24  27
ATOM     27  C   UNL     1       3.025  -0.122  -0.226  0.00  0.00    +0.183 C 
BRANCH  27  30
ATOM     28  C   UNL     1      -0.266  -1.760  -0.494  0.00  0.00    +0.041 A 
ATOM     29  C   UNL     1       0.540  -0.599  -0.450  0.00  0.00    +0.046 A 
ATOM     30  C   UNL     1       1.813  -1.014  -0.316  0.00  0.00    +0.122 A 
ATOM     31  O   UNL     1       1.820  -2.356  -0.276  0.00  0.00    -0.466 OA
ATOM     32  C   UNL     1       0.562  -2.814  -0.384  0.00  0.00    +0.195 A 
ENDBRANCH  27  30
ENDBRANCH  24  27
BRANCH  25  33
ATOM     33  C   UNL     1       1.638   2.042   0.991  0.00  0.00    +0.106 C 
BRANCH  33  34
ATOM     34  C   UNL     1       1.172   3.233   1.832  0.00  0.00    +0.075 C 
BRANCH  34  35
ATOM     35  S   UNL     1      -0.132   4.127   0.943  0.00  0.00    -0.178 S 
ATOM     36  H   UNL     1      -0.456   5.137   1.770  0.00  0.00    +0.102 HD
ENDBRANCH  34  35
ENDBRANCH  33  34
ENDBRANCH  25  33
ENDBRANCH   1  24
TORSDOF 12
