REMARK  Name = ZINC04452923
REMARK  9 active torsions:
REMARK  status: ('A' for Active; 'I' for Inactive)
REMARK    1  A    between atoms: C_1  and  C_2
REMARK    2  A    between atoms: C_2  and  C_3
REMARK    3  A    between atoms: C_2  and  C_4
REMARK    4  A    between atoms: C_2  and  C_5
REMARK    5  A    between atoms: C_12  and  N_29
REMARK    6  A    between atoms: C_13  and  C_27
REMARK    7  A    between atoms: C_14  and  C_16
REMARK    8  A    between atoms: C_19  and  O_22
REMARK    9  A    between atoms: O_22  and  C_23
REMARK                            x       y       z     vdW  Elec       q    Type
REMARK                         _______ _______ _______ _____ _____    ______ ____
ROOT
ATOM      1  C   UNL     1       1.132  -0.394  -1.437  0.00  0.00    +0.049 A 
ATOM      2  C   UNL     1       1.132  -1.696  -1.761  0.00  0.00    +0.050 A 
ATOM      3  C   UNL     1       1.845  -1.847  -2.970  0.00  0.00    +0.245 A 
ATOM      4  N   UNL     1       2.255  -0.671  -3.346  0.00  0.00    -0.135 NA
ATOM      5  N   UNL     1       1.814   0.268  -2.400  0.00  0.00    -0.277 N 
ATOM      6  H   UNL     1       1.973   1.224  -2.430  0.00  0.00    +0.189 HD
ATOM      7  O   UNL     1       2.016  -3.061  -3.559  0.00  0.00    -0.421 OA
ATOM      8  C   UNL     1       1.260  -4.082  -3.108  0.00  0.00    +0.201 C 
ATOM      9  C   UNL     1       0.546  -4.058  -1.963  0.00  0.00    +0.098 C 
ATOM     10  C   UNL     1       0.515  -2.867  -1.039  0.00  0.00    +0.101 C 
ENDROOT
BRANCH  10  11
ATOM     11  C   UNL     1       1.305  -3.169   0.208  0.00  0.00    -0.034 A 
ATOM     12  C   UNL     1       2.687  -3.198   0.159  0.00  0.00    +0.008 A 
ATOM     13  C   UNL     1       3.413  -3.476   1.301  0.00  0.00    +0.046 A 
ATOM     14  C   UNL     1       2.756  -3.725   2.497  0.00  0.00    +0.130 A 
ATOM     15  C   UNL     1       1.370  -3.695   2.543  0.00  0.00    +0.046 A 
ATOM     16  C   UNL     1       0.648  -3.412   1.400  0.00  0.00    +0.008 A 
BRANCH  14  17
ATOM     17  O   UNL     1       3.469  -3.999   3.621  0.00  0.00    -0.406 OA
BRANCH  17  18
ATOM     18  C   UNL     1       2.726  -4.246   4.816  0.00  0.00    +0.575 C 
ATOM     19  F   UNL     1       1.887  -5.349   4.625  0.00  0.00    -0.133 F 
ATOM     20  F   UNL     1       3.609  -4.508   5.869  0.00  0.00    -0.133 F 
ATOM     21  F   UNL     1       1.953  -3.121   5.125  0.00  0.00    -0.133 F 
ENDBRANCH  17  18
ENDBRANCH  14  17
ENDBRANCH  10  11
BRANCH   1  23
ATOM     22  C   UNL     1       0.611   1.744  -0.294  0.00  0.00    +0.017 C 
ATOM     23  C   UNL     1       0.484   0.221  -0.224  0.00  0.00    +0.004 C 
ATOM     24  C   UNL     1       1.178  -0.291   1.040  0.00  0.00    +0.017 C 
ATOM     25  C   UNL     1      -0.996  -0.166  -0.184  0.00  0.00    +0.017 C 
ENDBRANCH   1  23
BRANCH   8  26
ATOM     26  N   UNL     1       1.213  -5.226  -3.866  0.00  0.00    -0.328 N 
ATOM     27  H   UNL     1       1.714  -5.279  -4.695  0.00  0.00    +0.145 HD
ATOM     28  H   UNL     1       0.680  -5.981  -3.572  0.00  0.00    +0.145 HD
ENDBRANCH   8  26
BRANCH   9  29
ATOM     29  C   UNL     1      -0.217  -5.216  -1.610  0.00  0.00    +0.101 C 
ATOM     30  N   UNL     1      -0.823  -6.136  -1.330  0.00  0.00    -0.191 NA
ENDBRANCH   9  29
TORSDOF 6
