REMARK  Name = ZINC39357302
REMARK  5 active torsions:
REMARK  status: ('A' for Active; 'I' for Inactive)
REMARK    1  A    between atoms: C_1  and  C_2
REMARK    2  A    between atoms: C_8  and  C_29
REMARK    3  A    between atoms: N_16  and  C_17
REMARK    4  A    between atoms: C_17  and  C_18
REMARK    5  A    between atoms: C_18  and  C_19
REMARK                            x       y       z     vdW  Elec       q    Type
REMARK                         _______ _______ _______ _____ _____    ______ ____
ROOT
ATOM      1  C   UNL     1      -0.019   1.526   0.010  0.00  0.00    +0.024 C 
ATOM      2  C   UNL     1       0.002  -0.004   0.002  0.00  0.00    +0.062 C 
ATOM      3  C   UNL     1       0.732  -0.505  -1.252  0.00  0.00    +0.114 C 
ATOM      4  C   UNL     1       0.802  -2.009  -1.174  0.00  0.00    +0.221 C 
ATOM      5  O   UNL     1       0.912  -2.658  -2.193  0.00  0.00    -0.275 OA
ATOM      6  N   UNL     1       0.744  -2.638   0.008  0.00  0.00    -0.245 N 
ATOM      7  C   UNL     1       0.677  -4.110   0.043  0.00  0.00    +0.206 C 
ATOM      8  N   UNL     1      -0.331  -4.522   1.018  0.00  0.00    -0.339 N 
ATOM      9  C   UNL     1      -0.827  -3.730   1.913  0.00  0.00    +0.158 C 
ATOM     10  N   UNL     1      -0.473  -2.405   2.016  0.00  0.00    -0.288 N 
ATOM     11  C   UNL     1       0.725  -1.944   1.295  0.00  0.00    +0.239 C 
ATOM     12  N   UNL     1       0.722  -0.495   1.181  0.00  0.00    -0.280 NA
ATOM     13  N   UNL     1      -1.748  -4.236   2.799  0.00  0.00    -0.318 N 
ATOM     14  H   UNL     1      -1.000  -1.790   2.550  0.00  0.00    +0.152 HD
ATOM     15  H   UNL     1      -2.013  -5.167   2.745  0.00  0.00    +0.149 HD
ATOM     16  H   UNL     1       1.662  -0.129   1.210  0.00  0.00    +0.125 HD
ATOM     17  H   UNL     1      -0.645  -5.439   0.994  0.00  0.00    +0.164 HD
ENDROOT
BRANCH   7  18
ATOM     18  C   UNL     1       2.020  -4.666   0.439  0.00  0.00    -0.007 A 
ATOM     19  C   UNL     1       3.175  -3.977   0.121  0.00  0.00    +0.007 A 
ATOM     20  C   UNL     1       4.407  -4.487   0.484  0.00  0.00    +0.000 A 
ATOM     21  C   UNL     1       4.484  -5.687   1.167  0.00  0.00    +0.000 A 
ATOM     22  C   UNL     1       3.329  -6.376   1.487  0.00  0.00    +0.000 A 
ATOM     23  C   UNL     1       2.097  -5.863   1.127  0.00  0.00    +0.007 A 
ENDBRANCH   7  18
BRANCH  13  24
ATOM     24  C   UNL     1      -2.331  -3.367   3.825  0.00  0.00    +0.109 C 
BRANCH  24  25
ATOM     25  C   UNL     1      -3.319  -4.170   4.672  0.00  0.00    +0.056 C 
BRANCH  25  26
ATOM     26  C   UNL     1      -3.918  -3.277   5.728  0.00  0.00    -0.021 A 
ATOM     27  C   UNL     1      -3.489  -3.136   6.992  0.00  0.00    +0.087 A 
ATOM     28  N   UNL     1      -4.280  -2.238   7.655  0.00  0.00    -0.360 N 
ATOM     29  H   UNL     1      -4.166  -1.973   8.582  0.00  0.00    +0.165 HD
ATOM     30  C   UNL     1      -5.263  -1.768   6.813  0.00  0.00    +0.047 A 
ATOM     31  C   UNL     1      -5.075  -2.393   5.567  0.00  0.00    +0.003 A 
ATOM     32  C   UNL     1      -5.931  -2.099   4.504  0.00  0.00    +0.010 A 
ATOM     33  C   UNL     1      -6.947  -1.202   4.680  0.00  0.00    +0.001 A 
ATOM     34  C   UNL     1      -7.134  -0.580   5.906  0.00  0.00    +0.002 A 
ATOM     35  C   UNL     1      -6.306  -0.862   6.971  0.00  0.00    +0.026 A 
ENDBRANCH  25  26
ENDBRANCH  24  25
ENDBRANCH  13  24
TORSDOF 4
