REMARK  Name = ZINC53844033
REMARK  9 active torsions:
REMARK  status: ('A' for Active; 'I' for Inactive)
REMARK    1  A    between atoms: C_1  and  C_2
REMARK    2  A    between atoms: C_2  and  C_3
REMARK    3  A    between atoms: C_3  and  C_4
REMARK    4  A    between atoms: C_7  and  N_10
REMARK    5  A    between atoms: C_11  and  C_13
REMARK    6  A    between atoms: C_13  and  N_14
REMARK    7  A    between atoms: C_18  and  S_25
REMARK    8  A    between atoms: C_22  and  C_24
REMARK    9  A    between atoms: S_25  and  N_28
REMARK                            x       y       z     vdW  Elec       q    Type
REMARK                         _______ _______ _______ _____ _____    ______ ____
ROOT
ATOM      1  N   UNL     1      -0.995  -8.881   2.498  0.00  0.00    -0.318 N 
ATOM      2  C   UNL     1       0.203  -9.044   3.195  0.00  0.00    +0.034 A 
ATOM      3  C   UNL     1       1.511  -8.790   2.778  0.00  0.00    +0.025 A 
ATOM      4  C   UNL     1       2.570  -9.021   3.630  0.00  0.00    +0.030 A 
ATOM      5  C   UNL     1       2.344  -9.506   4.905  0.00  0.00    +0.105 A 
ATOM      6  C   UNL     1       1.052  -9.760   5.325  0.00  0.00    +0.034 A 
ATOM      7  C   UNL     1      -0.012  -9.530   4.475  0.00  0.00    -0.023 A 
ATOM      8  C   UNL     1      -1.500  -9.718   4.675  0.00  0.00    +0.059 C 
ATOM      9  C   UNL     1      -2.127  -9.272   3.344  0.00  0.00    +0.075 C 
ATOM     10  C   UNL     1      -3.059  -8.080   3.566  0.00  0.00    +0.028 C 
ENDROOT
BRANCH   5  11
ATOM     11  S   UNL     1       3.700  -9.801   5.991  0.00  0.00    +0.056 S 
ATOM     12  O   UNL     1       3.263 -10.769   6.934  0.00  0.00    -0.153 OA
ATOM     13  O   UNL     1       4.843 -10.000   5.169  0.00  0.00    -0.153 OA
BRANCH  11  14
ATOM     14  N   UNL     1       3.964  -8.402   6.836  0.00  0.00    -0.204 NA
ATOM     15  H   UNL     1       4.325  -8.439   7.736  0.00  0.00    +0.144 HD
ATOM     16  H   UNL     1       3.757  -7.544   6.432  0.00  0.00    +0.144 HD
ENDBRANCH  11  14
ENDBRANCH   5  11
BRANCH   1  17
ATOM     17  C   UNL     1      -1.106  -8.386   1.124  0.00  0.00    +0.201 C 
BRANCH  17  19
ATOM     18  N   UNL     1      -1.356  -6.206  -0.018  0.00  0.00    -0.284 N 
ATOM     19  C   UNL     1      -1.240  -6.885   1.140  0.00  0.00    +0.235 C 
ATOM     20  O   UNL     1      -1.242  -6.288   2.196  0.00  0.00    -0.274 OA
ATOM     21  H   UNL     1      -1.432  -6.688  -0.857  0.00  0.00    +0.155 HD
BRANCH  18  25
ATOM     22  C   UNL     1      -1.393  -2.040   0.002  0.00  0.00    -0.047 A 
ATOM     23  C   UNL     1      -0.638  -2.728   0.934  0.00  0.00    +0.005 A 
ATOM     24  C   UNL     1      -0.624  -4.109   0.930  0.00  0.00    +0.023 A 
ATOM     25  C   UNL     1      -1.369  -4.807  -0.011  0.00  0.00    +0.033 A 
ATOM     26  C   UNL     1      -2.127  -4.113  -0.946  0.00  0.00    +0.023 A 
ATOM     27  C   UNL     1      -2.141  -2.732  -0.933  0.00  0.00    +0.005 A 
BRANCH  22  28
ATOM     28  C   UNL     1      -1.407  -0.533   0.009  0.00  0.00    +0.035 C 
BRANCH  28  30
ATOM     29  C   UNL     1      -2.546   1.492   0.927  0.00  0.00    +0.004 C 
ATOM     30  C   UNL     1      -2.533  -0.038   0.919  0.00  0.00    +0.001 C 
ENDBRANCH  28  30
ENDBRANCH  22  28
ENDBRANCH  18  25
ENDBRANCH  17  19
ENDBRANCH   1  17
TORSDOF 7
