REMARK  Name = ZINC13503377
REMARK  6 active torsions:
REMARK  status: ('A' for Active; 'I' for Inactive)
REMARK    1  A    between atoms: C_1  and  C_2
REMARK    2  A    between atoms: C_2  and  C_3
REMARK    3  A    between atoms: C_3  and  C_4
REMARK    4  A    between atoms: C_4  and  C_6
REMARK    5  A    between atoms: C_4  and  N_16
REMARK    6  A    between atoms: N_10  and  C_11
REMARK                            x       y       z     vdW  Elec       q    Type
REMARK                         _______ _______ _______ _____ _____    ______ ____
ROOT
ATOM      1  N   UNL     1       3.864  -3.353  -3.934  0.00  0.00    -0.290 NA
ATOM      2  C   UNL     1       2.557  -3.787  -4.448  0.00  0.00    +0.104 C 
ATOM      3  C   UNL     1       1.633  -2.574  -4.576  0.00  0.00    +0.123 C 
ATOM      4  N   UNL     1       1.492  -1.929  -3.263  0.00  0.00    -0.299 N 
ATOM      5  C   UNL     1       2.798  -1.494  -2.749  0.00  0.00    +0.123 C 
ATOM      6  C   UNL     1       3.722  -2.708  -2.622  0.00  0.00    +0.104 C 
ATOM      7  C   UNL     1       0.608  -0.871  -3.324  0.00  0.00    +0.201 A 
ATOM      8  N   UNL     1       0.018  -0.563  -4.475  0.00  0.00    -0.300 N 
ATOM      9  C   UNL     1      -0.833   0.457  -4.535  0.00  0.00    +0.201 A 
ATOM     10  N   UNL     1      -1.098   1.165  -3.442  0.00  0.00    -0.182 NA
ATOM     11  C   UNL     1      -0.505   0.861  -2.292  0.00  0.00    +0.224 A 
ATOM     12  N   UNL     1       0.346  -0.159  -2.232  0.00  0.00    -0.182 NA
ATOM     13  N   UNL     1      -0.776   1.600  -1.158  0.00  0.00    -0.299 N 
ATOM     14  C   UNL     1      -0.013   1.086   0.008  0.00  0.00    +0.108 C 
ATOM     15  C   UNL     1      -0.782   1.607   1.240  0.00  0.00    +0.020 C 
ATOM     16  C   UNL     1      -2.223   1.850   0.736  0.00  0.00    +0.020 C 
ATOM     17  C   UNL     1      -2.199   1.455  -0.756  0.00  0.00    +0.108 C 
ATOM     18  N   UNL     1      -1.445   0.776  -5.729  0.00  0.00    -0.301 N 
ATOM     19  C   UNL     1      -1.060   2.139  -6.177  0.00  0.00    +0.108 C 
ATOM     20  C   UNL     1      -1.375   2.116  -7.694  0.00  0.00    +0.020 C 
ATOM     21  C   UNL     1      -0.973   0.682  -8.109  0.00  0.00    +0.020 C 
ATOM     22  C   UNL     1      -1.013  -0.140  -6.808  0.00  0.00    +0.108 C 
ATOM     23  H   UNL     1       0.234  -1.152  -5.379  0.00  0.00    +0.171 HD
ENDROOT
BRANCH   1  24
ATOM     24  C   UNL     1       4.804  -4.479  -3.869  0.00  0.00    +0.127 C 
BRANCH  24  25
ATOM     25  C   UNL     1       4.254  -5.541  -2.953  0.00  0.00    +0.169 A 
ATOM     26  N   UNL     1       3.715  -5.354  -1.773  0.00  0.00    -0.112 NA
ATOM     27  N   UNL     1       3.366  -6.504  -1.308  0.00  0.00    -0.023 NA
ATOM     28  N   UNL     1       3.675  -7.420  -2.157  0.00  0.00    -0.044 NA
ATOM     29  N   UNL     1       4.225  -6.867  -3.185  0.00  0.00    -0.225 N 
BRANCH  29  30
ATOM     30  C   UNL     1       4.724  -7.552  -4.379  0.00  0.00    +0.111 C 
ATOM     31  C   UNL     1       3.588  -8.360  -5.039  0.00  0.00    +0.027 C 
ATOM     32  C   UNL     1       4.284  -9.647  -5.549  0.00  0.00    +0.002 C 
ATOM     33  C   UNL     1       5.304  -9.953  -4.424  0.00  0.00    +0.002 C 
ATOM     34  C   UNL     1       5.815  -8.565  -3.989  0.00  0.00    +0.027 C 
ENDBRANCH  29  30
ENDBRANCH  24  25
BRANCH  24  35
ATOM     35  C   UNL     1       6.150  -3.989  -3.331  0.00  0.00    +0.026 C 
BRANCH  35  37
ATOM     36  C   UNL     1       8.114  -2.513  -3.786  0.00  0.00    +0.004 C 
ATOM     37  C   UNL     1       6.768  -3.003  -4.324  0.00  0.00    -0.001 C 
ENDBRANCH  35  37
ENDBRANCH  24  35
ENDBRANCH   1  24
TORSDOF 5
