REMARK  Name = ZINC09892000
REMARK  7 active torsions:
REMARK  status: ('A' for Active; 'I' for Inactive)
REMARK    1  A    between atoms: C_3  and  C_6
REMARK    2  A    between atoms: C_6  and  N_7
REMARK    3  A    between atoms: N_7  and  C_8
REMARK    4  A    between atoms: C_10  and  N_17
REMARK    5  A    between atoms: C_13  and  N_14
REMARK    6  A    between atoms: C_23  and  C_25
REMARK    7  A    between atoms: C_25  and  C_26
REMARK                            x       y       z     vdW  Elec       q    Type
REMARK                         _______ _______ _______ _____ _____    ______ ____
ROOT
ATOM      1  N   UNL     1      -5.257   5.269  -0.152  0.00  0.00    -0.327 N 
ATOM      2  C   UNL     1      -4.348   6.060  -0.991  0.00  0.00    +0.124 C 
ATOM      3  C   UNL     1      -5.105   6.567  -2.223  0.00  0.00    +0.126 C 
ATOM      4  N   UNL     1      -6.310   7.277  -1.771  0.00  0.00    -0.298 N 
ATOM      5  C   UNL     1      -7.203   6.598  -0.819  0.00  0.00    +0.126 C 
ATOM      6  C   UNL     1      -6.363   6.091   0.358  0.00  0.00    +0.124 C 
ATOM      7  C   UNL     1      -6.590   8.518  -2.217  0.00  0.00    +0.216 C 
ATOM      8  O   UNL     1      -7.588   9.090  -1.833  0.00  0.00    -0.276 OA
ENDROOT
BRANCH   1  11
ATOM      9  C   UNL     1      -2.799   3.222   1.666  0.00  0.00    +0.060 A 
ATOM     10  C   UNL     1      -3.483   3.831   0.623  0.00  0.00    +0.048 A 
ATOM     11  C   UNL     1      -4.566   4.654   0.895  0.00  0.00    +0.032 A 
ATOM     12  C   UNL     1      -4.963   4.866   2.210  0.00  0.00    +0.025 A 
ATOM     13  C   UNL     1      -4.280   4.259   3.245  0.00  0.00    +0.036 A 
ATOM     14  C   UNL     1      -3.205   3.434   2.978  0.00  0.00    +0.147 A 
BRANCH  14  15
ATOM     15  N   UNL     1      -2.480   2.780   4.090  0.00  0.00    +0.058 N 
ATOM     16  O   UNL     1      -3.093   2.370   5.059  0.00  0.00    -0.126 OA
ATOM     17  O   UNL     1      -1.270   2.652   4.037  0.00  0.00    -0.126 OA
ENDBRANCH  14  15
BRANCH   9  18
ATOM     18  N   UNL     1      -1.707   2.393   1.397  0.00  0.00    -0.335 N 
ATOM     19  H   UNL     1      -1.283   1.901   2.117  0.00  0.00    +0.147 HD
BRANCH  18  20
ATOM     20  C   UNL     1      -1.203   2.268   0.027  0.00  0.00    +0.176 C 
BRANCH  20  23
ATOM     21  C   UNL     1       1.230  -0.496  -0.125  0.00  0.00    +0.041 A 
ATOM     22  C   UNL     1      -0.097  -0.009  -0.175  0.00  0.00    +0.046 A 
ATOM     23  C   UNL     1      -0.030   1.322   0.008  0.00  0.00    +0.122 A 
ATOM     24  O   UNL     1       1.258   1.665   0.165  0.00  0.00    -0.466 OA
ATOM     25  C   UNL     1       2.027   0.566   0.086  0.00  0.00    +0.195 A 
ENDBRANCH  20  23
ENDBRANCH  18  20
ENDBRANCH   9  18
ENDBRANCH   1  11
BRANCH   7  26
ATOM     26  C   UNL     1      -5.662   9.195  -3.192  0.00  0.00    +0.103 C 
BRANCH  26  27
ATOM     27  C   UNL     1      -6.206  10.584  -3.534  0.00  0.00    -0.020 C 
ATOM     28  C   UNL     1      -7.595  10.446  -4.163  0.00  0.00    +0.011 C 
ATOM     29  C   UNL     1      -8.139  11.835  -4.505  0.00  0.00    -0.010 C 
ATOM     30  C   UNL     1      -7.197  12.522  -5.495  0.00  0.00    +0.007 C 
ATOM     31  C   UNL     1      -5.809  12.659  -4.867  0.00  0.00    -0.010 C 
ATOM     32  C   UNL     1      -5.264  11.271  -4.524  0.00  0.00    +0.011 C 
ATOM     33  C   UNL     1      -5.907  13.497  -3.590  0.00  0.00    +0.007 C 
ATOM     34  C   UNL     1      -6.849  12.810  -2.600  0.00  0.00    -0.010 C 
ATOM     35  C   UNL     1      -8.237  12.673  -3.228  0.00  0.00    +0.007 C 
ATOM     36  C   UNL     1      -6.305  11.422  -2.258  0.00  0.00    +0.011 C 
ENDBRANCH  26  27
ENDBRANCH   7  26
TORSDOF 7
