REMARK  Name = ZINC14383020
REMARK  10 active torsions:
REMARK  status: ('A' for Active; 'I' for Inactive)
REMARK    1  A    between atoms: C_1  and  C_2
REMARK    2  A    between atoms: C_2  and  C_3
REMARK    3  A    between atoms: C_5  and  C_9
REMARK    4  A    between atoms: C_7  and  C_8
REMARK    5  A    between atoms: N_11  and  C_12
REMARK    6  A    between atoms: N_11  and  C_19
REMARK    7  A    between atoms: C_12  and  C_13
REMARK    8  A    between atoms: C_20  and  N_35
REMARK    9  A    between atoms: N_21  and  C_28
REMARK   10  A    between atoms: C_28  and  C_29
REMARK                            x       y       z     vdW  Elec       q    Type
REMARK                         _______ _______ _______ _____ _____    ______ ____
ROOT
ATOM      1  C   UNL     1      -3.477   3.088  -0.205  0.00  0.00    +0.140 A 
ATOM      2  C   UNL     1      -4.457   3.159   0.764  0.00  0.00    +0.128 A 
ATOM      3  N   UNL     1      -5.496   4.046   0.605  0.00  0.00    -0.276 N 
ATOM      4  C   UNL     1      -5.561   4.830  -0.486  0.00  0.00    +0.331 A 
ATOM      5  O   UNL     1      -6.490   5.605  -0.611  0.00  0.00    -0.246 OA
ATOM      6  N   UNL     1      -4.618   4.772  -1.443  0.00  0.00    -0.273 N 
ATOM      7  H   UNL     1      -4.689   5.366  -2.245  0.00  0.00    +0.173 HD
ATOM      8  C   UNL     1      -3.577   3.923  -1.334  0.00  0.00    +0.277 A 
ATOM      9  O   UNL     1      -2.727   3.878  -2.207  0.00  0.00    -0.266 OA
ENDROOT
BRANCH   1  12
ATOM     10  C   UNL     1      -1.143   2.664   0.077  0.00  0.00    +0.258 C 
ATOM     11  O   UNL     1      -0.949   3.864   0.145  0.00  0.00    -0.269 OA
ATOM     12  N   UNL     1      -2.397   2.191  -0.069  0.00  0.00    -0.255 N 
BRANCH  10  15
ATOM     13  C   UNL     1       2.199   0.932   0.221  0.00  0.00    -0.037 A 
ATOM     14  C   UNL     1       1.345   2.005   0.143  0.00  0.00    +0.024 A 
ATOM     15  C   UNL     1      -0.013   1.732   0.152  0.00  0.00    +0.075 A 
ATOM     16  S   UNL     1      -0.029  -0.047   0.273  0.00  0.00    -0.089 S 
ATOM     17  C   UNL     1       1.682  -0.322   0.303  0.00  0.00    -0.009 A 
ATOM     18  C   UNL     1       2.419  -1.633   0.396  0.00  0.00    +0.052 C 
BRANCH  13  20
ATOM     19  C   UNL     1       4.222   0.993  -1.211  0.00  0.00    +0.009 C 
ATOM     20  C   UNL     1       3.691   1.143   0.216  0.00  0.00    +0.032 C 
ENDBRANCH  13  20
ENDBRANCH  10  15
BRANCH  12  21
ATOM     21  C   UNL     1      -2.638   0.747  -0.086  0.00  0.00    +0.149 C 
BRANCH  21  22
ATOM     22  C   UNL     1      -2.727   0.269  -1.512  0.00  0.00    -0.030 A 
ATOM     23  C   UNL     1      -3.934   0.318  -2.184  0.00  0.00    +0.005 A 
ATOM     24  C   UNL     1      -4.014  -0.116  -3.494  0.00  0.00    +0.000 A 
ATOM     25  C   UNL     1      -2.890  -0.608  -4.129  0.00  0.00    +0.000 A 
ATOM     26  C   UNL     1      -1.684  -0.662  -3.456  0.00  0.00    +0.000 A 
ATOM     27  C   UNL     1      -1.602  -0.224  -2.147  0.00  0.00    +0.005 A 
ENDBRANCH  21  22
ENDBRANCH  12  21
ENDBRANCH   1  12
BRANCH   2  28
ATOM     28  N   UNL     1      -4.394   2.355   1.877  0.00  0.00    -0.343 N 
ATOM     29  H   UNL     1      -3.622   1.786   2.021  0.00  0.00    +0.144 HD
ATOM     30  H   UNL     1      -5.122   2.356   2.518  0.00  0.00    +0.144 HD
ENDBRANCH   2  28
BRANCH   3  31
ATOM     31  C   UNL     1      -6.541   4.135   1.628  0.00  0.00    +0.163 C 
BRANCH  31  32
ATOM     32  C   UNL     1      -7.646   3.163   1.303  0.00  0.00    -0.028 A 
ATOM     33  C   UNL     1      -8.711   3.563   0.518  0.00  0.00    +0.005 A 
ATOM     34  C   UNL     1      -9.722   2.670   0.216  0.00  0.00    +0.000 A 
ATOM     35  C   UNL     1      -9.673   1.379   0.708  0.00  0.00    +0.000 A 
ATOM     36  C   UNL     1      -8.611   0.980   1.497  0.00  0.00    +0.000 A 
ATOM     37  C   UNL     1      -7.597   1.871   1.795  0.00  0.00    +0.005 A 
ENDBRANCH  31  32
ENDBRANCH   3  31
TORSDOF 8
