REMARK  Name = ZINC35183035
REMARK  7 active torsions:
REMARK  status: ('A' for Active; 'I' for Inactive)
REMARK    1  A    between atoms: C_6  and  C_7
REMARK    2  A    between atoms: C_9  and  C_28
REMARK    3  A    between atoms: C_10  and  N_27
REMARK    4  A    between atoms: C_12  and  C_20
REMARK    5  A    between atoms: C_14  and  C_15
REMARK    6  A    between atoms: C_14  and  C_17
REMARK    7  A    between atoms: C_17  and  N_19
REMARK                            x       y       z     vdW  Elec       q    Type
REMARK                         _______ _______ _______ _____ _____    ______ ____
ROOT
ATOM      1  C   UNL     1      -1.240  -0.498   0.205  0.00  0.00    +0.089 C 
ATOM      2  C   UNL     1      -1.513  -1.189  -1.087  0.00  0.00    +0.066 C 
ATOM      3  C   UNL     1      -1.334  -2.499  -1.353  0.00  0.00    +0.073 C 
ATOM      4  S   UNL     1      -0.755  -3.628  -0.129  0.00  0.00    -0.100 S 
ATOM      5  C   UNL     1      -0.166  -2.525   1.193  0.00  0.00    +0.109 C 
ATOM      6  C   UNL     1      -1.234  -1.444   1.398  0.00  0.00    +0.129 C 
ENDROOT
BRANCH   1  12
ATOM      7  C   UNL     1       0.355   1.089  -0.892  0.00  0.00    +0.006 A 
ATOM      8  C   UNL     1       1.587   1.710  -0.972  0.00  0.00    +0.020 A 
ATOM      9  C   UNL     1       2.569   1.420  -0.042  0.00  0.00    +0.041 A 
ATOM     10  C   UNL     1       2.318   0.509   0.968  0.00  0.00    +0.020 A 
ATOM     11  C   UNL     1       1.085  -0.112   1.047  0.00  0.00    +0.006 A 
ATOM     12  C   UNL     1       0.104   0.178   0.117  0.00  0.00    -0.037 A 
ATOM     13 CL   UNL     1       4.117   2.200  -0.143  0.00  0.00    -0.084 Cl
ENDBRANCH   1  12
BRANCH   5  14
ATOM     14  C   UNL     1       0.025  -3.308   2.466  0.00  0.00    -0.032 A 
ATOM     15  C   UNL     1      -0.966  -4.166   2.905  0.00  0.00    +0.006 A 
ATOM     16  C   UNL     1      -0.791  -4.884   4.073  0.00  0.00    +0.020 A 
ATOM     17  C   UNL     1       0.375  -4.744   4.803  0.00  0.00    +0.041 A 
ATOM     18  C   UNL     1       1.366  -3.884   4.364  0.00  0.00    +0.020 A 
ATOM     19  C   UNL     1       1.193  -3.171   3.192  0.00  0.00    +0.006 A 
ATOM     20 CL   UNL     1       0.595  -5.645   6.270  0.00  0.00    -0.084 Cl
ENDBRANCH   5  14
BRANCH   3  21
ATOM     21  N   UNL     1      -1.611  -2.968  -2.615  0.00  0.00    -0.352 N 
ATOM     22  H   UNL     1      -1.931  -2.359  -3.300  0.00  0.00    +0.143 HD
ATOM     23  H   UNL     1      -1.488  -3.908  -2.822  0.00  0.00    +0.143 HD
ENDBRANCH   3  21
BRANCH   6  24
ATOM     24  C   UNL     1      -2.556  -2.079   1.526  0.00  0.00    +0.078 C 
ATOM     25  N   UNL     1      -3.576  -2.569   1.626  0.00  0.00    -0.195 NA
ENDBRANCH   6  24
BRANCH   6  26
ATOM     26  C   UNL     1      -0.925  -0.669   2.652  0.00  0.00    +0.069 C 
ATOM     27  S   UNL     1      -0.752   0.919   2.589  0.00  0.00    -0.039 S 
BRANCH  26  28
ATOM     28  N   UNL     1      -0.794  -1.315   3.828  0.00  0.00    -0.354 N 
ATOM     29  H   UNL     1      -0.982  -2.265   3.884  0.00  0.00    +0.143 HD
ATOM     30  H   UNL     1      -0.511  -0.829   4.619  0.00  0.00    +0.143 HD
ENDBRANCH  26  28
ENDBRANCH   6  26
BRANCH   2  31
ATOM     31  C   UNL     1      -2.017  -0.379  -2.155  0.00  0.00    +0.098 C 
ATOM     32  N   UNL     1      -2.416   0.263  -3.003  0.00  0.00    -0.191 NA
ENDBRANCH   2  31
TORSDOF 7
