REMARK  Name = ZINC53986545
REMARK  6 active torsions:
REMARK  status: ('A' for Active; 'I' for Inactive)
REMARK    1  A    between atoms: C_1  and  C_2
REMARK    2  A    between atoms: C_2  and  C_3
REMARK    3  A    between atoms: C_2  and  C_4
REMARK    4  A    between atoms: C_4  and  C_6
REMARK    5  A    between atoms: C_4  and  N_16
REMARK    6  A    between atoms: N_19  and  C_20
REMARK                            x       y       z     vdW  Elec       q    Type
REMARK                         _______ _______ _______ _____ _____    ______ ____
ROOT
ATOM      1  C   UNL     1      -0.459   2.040   1.395  0.00  0.00    +0.107 C 
ENDROOT
BRANCH   1   2
ATOM      2  C   UNL     1      -0.349   2.025  -0.108  0.00  0.00    -0.023 A 
ATOM      3  C   UNL     1      -1.489   2.128  -0.883  0.00  0.00    +0.009 A 
ATOM      4  C   UNL     1      -1.393   2.113  -2.262  0.00  0.00    +0.050 A 
ATOM      5  C   UNL     1      -0.152   1.996  -2.871  0.00  0.00    +0.162 A 
ATOM      6  C   UNL     1       0.994   1.896  -2.091  0.00  0.00    +0.162 A 
ATOM      7  C   UNL     1       0.890   1.915  -0.708  0.00  0.00    +0.055 A 
ATOM      8  O   UNL     1       2.222   1.788  -2.668  0.00  0.00    -0.485 OA
ATOM      9  C   UNL     1       2.253   1.403  -4.047  0.00  0.00    +0.270 C 
ATOM     10  C   UNL     1       1.212   2.239  -4.803  0.00  0.00    +0.270 C 
ATOM     11  O   UNL     1      -0.074   1.979  -4.230  0.00  0.00    -0.485 OA
ENDBRANCH   1   2
BRANCH   1  12
ATOM     12  N   UNL     1      -1.623   1.252   1.808  0.00  0.00    -0.292 N 
ATOM     13  C   UNL     1      -1.660   0.698   3.036  0.00  0.00    +0.304 C 
ATOM     14  O   UNL     1      -0.728   0.852   3.801  0.00  0.00    -0.252 OA
ATOM     15  N   UNL     1      -2.731  -0.027   3.416  0.00  0.00    -0.265 N 
ATOM     16  H   UNL     1      -2.366   1.129   1.198  0.00  0.00    +0.151 HD
ATOM     17  H   UNL     1      -3.506  -0.089   2.835  0.00  0.00    +0.157 HD
BRANCH  15  18
ATOM     18  C   UNL     1      -2.725  -0.692   4.650  0.00  0.00    +0.106 A 
ATOM     19  C   UNL     1      -3.233  -0.065   5.782  0.00  0.00    +0.147 A 
ATOM     20  C   UNL     1      -3.226  -0.725   6.998  0.00  0.00    +0.040 A 
ATOM     21  C   UNL     1      -2.715  -2.006   7.088  0.00  0.00    +0.006 A 
ATOM     22  C   UNL     1      -2.209  -2.634   5.965  0.00  0.00    +0.040 A 
ATOM     23  C   UNL     1      -2.218  -1.983   4.744  0.00  0.00    +0.147 A 
ATOM     24  F   UNL     1      -1.729  -2.599   3.645  0.00  0.00    -0.203 F 
ATOM     25  F   UNL     1      -3.731   1.188   5.694  0.00  0.00    -0.203 F 
ENDBRANCH  15  18
ENDBRANCH   1  12
BRANCH   1  27
ATOM     26  C   UNL     1      -1.950   4.045   1.373  0.00  0.00    +0.009 C 
ATOM     27  C   UNL     1      -0.621   3.482   1.881  0.00  0.00    +0.008 C 
ATOM     28  C   UNL     1      -0.607   3.510   3.410  0.00  0.00    +0.009 C 
ENDBRANCH   1  27
TORSDOF 4
