REMARK  Name = ZINC38831104
REMARK  7 active torsions:
REMARK  status: ('A' for Active; 'I' for Inactive)
REMARK    1  A    between atoms: N_9  and  C_11
REMARK    2  A    between atoms: C_11  and  C_12
REMARK    3  A    between atoms: C_15  and  C_18
REMARK    4  A    between atoms: C_18  and  N_19
REMARK    5  A    between atoms: C_20  and  C_22
REMARK    6  A    between atoms: N_27  and  C_29
REMARK    7  A    between atoms: C_29  and  C_30
REMARK                            x       y       z     vdW  Elec       q    Type
REMARK                         _______ _______ _______ _____ _____    ______ ____
ROOT
ATOM      1  C   UNL     1       8.800  -0.510   3.787  0.00  0.00    +0.139 C 
ENDROOT
BRANCH   1   5
ATOM      2  C   UNL     1       5.892  -2.188   1.146  0.00  0.00    -0.064 A 
ATOM      3  C   UNL     1       6.675  -1.128   0.728  0.00  0.00    +0.002 A 
ATOM      4  C   UNL     1       7.616  -0.585   1.583  0.00  0.00    +0.005 A 
ATOM      5  C   UNL     1       7.774  -1.101   2.855  0.00  0.00    -0.030 A 
ATOM      6  C   UNL     1       6.991  -2.161   3.273  0.00  0.00    +0.005 A 
ATOM      7  C   UNL     1       6.047  -2.701   2.420  0.00  0.00    +0.002 A 
BRANCH   2   8
ATOM      8  C   UNL     1       4.866  -2.780   0.214  0.00  0.00    -0.043 C 
BRANCH   8  17
ATOM      9  C   UNL     1      -0.017   1.376   0.010  0.00  0.00    +0.000 A 
ATOM     10  C   UNL     1       1.173   2.080   0.002  0.00  0.00    +0.000 A 
ATOM     11  C   UNL     1       2.375   1.401  -0.015  0.00  0.00    +0.002 A 
ATOM     12  C   UNL     1       2.395   0.014  -0.023  0.00  0.00    -0.061 A 
ATOM     13  C   UNL     1       1.208  -0.687  -0.013  0.00  0.00    -0.048 A 
ATOM     14  C   UNL     1       0.002  -0.004   0.002  0.00  0.00    +0.004 A 
ATOM     15  C   UNL     1       1.186  -2.194  -0.014  0.00  0.00    +0.017 C 
ATOM     16  C   UNL     1       2.554  -2.732  -0.434  0.00  0.00    -0.073 C 
ATOM     17  N   UNL     1       3.587  -2.079   0.386  0.00  0.00    +0.385 N 
ATOM     18  C   UNL     1       3.728  -0.686  -0.046  0.00  0.00    -0.042 C 
ATOM     19  H   UNL     1       3.313  -2.106   1.357  0.00  0.00    -0.081 HD
ENDBRANCH   8  17
ENDBRANCH   2   8
ENDBRANCH   1   5
BRANCH   1  20
ATOM     20  N   UNL     1       8.188   0.569   4.566  0.00  0.00    -0.311 N 
ATOM     21  C   UNL     1       8.922   1.247   5.471  0.00  0.00    +0.215 C 
ATOM     22  O   UNL     1      10.090   0.964   5.639  0.00  0.00    -0.276 OA
ATOM     23  H   UNL     1       7.255   0.795   4.432  0.00  0.00    +0.149 HD
BRANCH  21  24
ATOM     24  C   UNL     1       8.293   2.356   6.273  0.00  0.00    +0.058 C 
ATOM     25  C   UNL     1       7.780   3.445   5.325  0.00  0.00    +0.009 C 
ATOM     26  C   UNL     1       7.213   4.602   6.152  0.00  0.00    -0.018 C 
ATOM     27  C   UNL     1       8.296   5.122   7.101  0.00  0.00    -0.078 C 
ATOM     28  N   UNL     1       8.725   4.043   7.997  0.00  0.00    +0.383 N 
ATOM     29  C   UNL     1       9.335   2.959   7.217  0.00  0.00    -0.066 C 
ATOM     30  H   UNL     1       7.926   3.685   8.499  0.00  0.00    -0.081 HD
BRANCH  28  31
ATOM     31  C   UNL     1       9.707   4.566   8.956  0.00  0.00    -0.040 C 
BRANCH  31  32
ATOM     32  C   UNL     1       9.045   5.586   9.847  0.00  0.00    -0.029 A 
ATOM     33  C   UNL     1       9.205   6.935   9.591  0.00  0.00    +0.004 A 
ATOM     34  C   UNL     1       8.598   7.870  10.408  0.00  0.00    +0.000 A 
ATOM     35  C   UNL     1       7.831   7.457  11.482  0.00  0.00    +0.003 A 
ATOM     36  C   UNL     1       7.669   6.109  11.739  0.00  0.00    +0.038 A 
ATOM     37  C   UNL     1       8.272   5.171  10.918  0.00  0.00    +0.125 A 
ATOM     38  F   UNL     1       8.111   3.853  11.165  0.00  0.00    -0.205 F 
ENDBRANCH  31  32
ENDBRANCH  28  31
ENDBRANCH  21  24
ENDBRANCH   1  20
TORSDOF 7
