REMARK  Name = ZINC02270355
REMARK  9 active torsions:
REMARK  status: ('A' for Active; 'I' for Inactive)
REMARK    1  A    between atoms: C_1  and  C_2
REMARK    2  A    between atoms: C_5  and  N_9
REMARK    3  A    between atoms: C_6  and  C_8
REMARK    4  A    between atoms: C_14  and  S_16
REMARK    5  A    between atoms: S_16  and  C_17
REMARK    6  A    between atoms: C_20  and  C_22
REMARK    7  A    between atoms: N_23  and  C_24
REMARK    8  A    between atoms: C_27  and  C_31
REMARK    9  A    between atoms: C_29  and  C_30
REMARK                            x       y       z     vdW  Elec       q    Type
REMARK                         _______ _______ _______ _____ _____    ______ ____
ROOT
ATOM      1  N   UNL     1       2.181  -4.209  -0.341  0.00  0.00    -0.283 N 
ATOM      2  C   UNL     1       0.914  -3.993   0.167  0.00  0.00    +0.225 A 
ATOM      3  N   UNL     1       0.354  -4.897   0.964  0.00  0.00    -0.181 NA
ATOM      4  C   UNL     1      -0.864  -4.690   1.452  0.00  0.00    +0.225 A 
ATOM      5  N   UNL     1      -1.523  -3.577   1.145  0.00  0.00    -0.188 NA
ATOM      6  C   UNL     1      -0.963  -2.672   0.348  0.00  0.00    +0.201 A 
ATOM      7  N   UNL     1       0.253  -2.882  -0.146  0.00  0.00    -0.188 NA
ATOM      8  N   UNL     1      -1.446  -5.630   2.281  0.00  0.00    -0.283 N 
ATOM      9  H   UNL     1       2.556  -3.591  -0.988  0.00  0.00    +0.155 HD
ATOM     10  H   UNL     1      -0.995  -6.472   2.451  0.00  0.00    +0.155 HD
ENDROOT
BRANCH   1  15
ATOM     11  C   UNL     1       5.189  -8.708   1.357  0.00  0.00    +0.044 C 
ATOM     12  C   UNL     1       4.390  -7.512   0.906  0.00  0.00    -0.050 A 
ATOM     13  C   UNL     1       3.036  -7.642   0.655  0.00  0.00    +0.005 A 
ATOM     14  C   UNL     1       2.301  -6.549   0.242  0.00  0.00    +0.024 A 
ATOM     15  C   UNL     1       2.922  -5.318   0.078  0.00  0.00    +0.037 A 
ATOM     16  C   UNL     1       4.283  -5.192   0.326  0.00  0.00    -0.029 A 
ATOM     17  C   UNL     1       5.012  -6.288   0.744  0.00  0.00    +0.008 A 
ATOM     18  C   UNL     1       4.963  -3.859   0.143  0.00  0.00    +0.045 C 
ENDBRANCH   1  15
BRANCH   8  19
ATOM     19  C   UNL     1      -2.686  -5.369   2.873  0.00  0.00    +0.037 A 
ATOM     20  C   UNL     1      -2.965  -4.105   3.376  0.00  0.00    +0.024 A 
ATOM     21  C   UNL     1      -4.190  -3.850   3.959  0.00  0.00    +0.005 A 
ATOM     22  C   UNL     1      -5.139  -4.852   4.043  0.00  0.00    -0.050 A 
ATOM     23  C   UNL     1      -4.865  -6.112   3.544  0.00  0.00    +0.008 A 
ATOM     24  C   UNL     1      -3.643  -6.372   2.954  0.00  0.00    -0.029 A 
ATOM     25  C   UNL     1      -3.347  -7.744   2.405  0.00  0.00    +0.045 C 
ATOM     26  C   UNL     1      -6.475  -4.571   4.680  0.00  0.00    +0.044 C 
ENDBRANCH   8  19
BRANCH   6  27
ATOM     27  S   UNL     1      -1.836  -1.197  -0.060  0.00  0.00    -0.021 S 
BRANCH  27  28
ATOM     28  C   UNL     1      -0.715  -0.488  -1.220  0.00  0.00    +0.166 A 
ATOM     29  N   UNL     1       0.495  -0.887  -1.591  0.00  0.00    -0.134 NA
ATOM     30  N   UNL     1       1.170  -0.253  -2.446  0.00  0.00    -0.146 NA
ATOM     31  C   UNL     1       0.720   0.842  -3.026  0.00  0.00    +0.100 A 
ATOM     32  S   UNL     1      -0.882   0.976  -2.238  0.00  0.00    -0.044 S 
ATOM     33  C   UNL     1       1.368   1.728  -4.059  0.00  0.00    +0.075 C 
ENDBRANCH  27  28
ENDBRANCH   6  27
TORSDOF 4
