REMARK  Name = ZINC03294286
REMARK  7 active torsions:
REMARK  status: ('A' for Active; 'I' for Inactive)
REMARK    1  A    between atoms: C_1  and  C_2
REMARK    2  A    between atoms: C_5  and  C_27
REMARK    3  A    between atoms: C_10  and  C_12
REMARK    4  A    between atoms: C_12  and  S_13
REMARK    5  A    between atoms: S_13  and  C_14
REMARK    6  A    between atoms: C_17  and  C_20
REMARK    7  A    between atoms: N_18  and  N_19
REMARK                            x       y       z     vdW  Elec       q    Type
REMARK                         _______ _______ _______ _____ _____    ______ ____
ROOT
ATOM      1  C   UNL     1      -2.579  -3.190   0.010  0.00  0.00    +0.209 A 
ATOM      2  N   UNL     1      -3.690  -2.488   0.024  0.00  0.00    -0.121 NA
ATOM      3  N   UNL     1      -4.708  -3.272   0.029  0.00  0.00    -0.127 NA
ATOM      4  C   UNL     1      -4.310  -4.523   0.019  0.00  0.00    +0.182 A 
ATOM      5  N   UNL     1      -2.935  -4.509   0.000  0.00  0.00    -0.224 N 
ENDROOT
BRANCH   4   6
ATOM      6  C   UNL     1      -5.177  -5.721   0.022  0.00  0.00    +0.021 A 
ATOM      7  C   UNL     1      -4.639  -6.974   0.318  0.00  0.00    +0.013 A 
ATOM      8  C   UNL     1      -5.453  -8.087   0.323  0.00  0.00    +0.021 A 
ATOM      9  C   UNL     1      -6.800  -7.965   0.026  0.00  0.00    +0.041 A 
ATOM     10  C   UNL     1      -7.339  -6.725  -0.274  0.00  0.00    +0.021 A 
ATOM     11  C   UNL     1      -6.535  -5.603  -0.277  0.00  0.00    +0.013 A 
ATOM     12 CL   UNL     1      -7.818  -9.371   0.028  0.00  0.00    -0.084 Cl
ENDBRANCH   4   6
BRANCH   5  13
ATOM     13  N   UNL     1      -2.098  -5.589  -0.020  0.00  0.00    -0.295 N 
ATOM     14  H   UNL     1      -1.867  -5.885   0.916  0.00  0.00    +0.163 HD
ATOM     15  H   UNL     1      -2.501  -6.348  -0.549  0.00  0.00    +0.163 HD
ENDBRANCH   5  13
BRANCH   1  16
ATOM     16  S   UNL     1      -0.938  -2.550  -0.003  0.00  0.00    -0.075 S 
BRANCH  16  17
ATOM     17  C   UNL     1      -1.293  -0.775   0.010  0.00  0.00    +0.173 C 
BRANCH  17  25
ATOM     18  C   UNL     1      -2.540   3.925   1.150  0.00  0.00    +0.009 C 
ATOM     19  C   UNL     1      -1.279   3.061   1.198  0.00  0.00    +0.004 C 
ATOM     20  C   UNL     1      -0.042   3.956   1.094  0.00  0.00    +0.009 C 
ATOM     21  C   UNL     1       1.221   3.095   1.174  0.00  0.00    +0.004 C 
ATOM     22  C   UNL     1       1.238   2.109   0.002  0.00  0.00    +0.111 C 
ATOM     23  N   UNL     1      -0.016   1.344   0.009  0.00  0.00    -0.300 N 
ATOM     24  C   UNL     1      -1.290   2.075   0.019  0.00  0.00    +0.111 C 
ATOM     25  C   UNL     1       0.002  -0.004   0.002  0.00  0.00    +0.226 C 
ATOM     26  O   UNL     1       1.060  -0.596  -0.011  0.00  0.00    -0.275 OA
ATOM     27  C   UNL     1       1.227   2.319   2.493  0.00  0.00    +0.009 C 
ENDBRANCH  17  25
ENDBRANCH  16  17
ENDBRANCH   1  16
TORSDOF 5
