REMARK  Name = ZINC45824778
REMARK  7 active torsions:
REMARK  status: ('A' for Active; 'I' for Inactive)
REMARK    1  A    between atoms: C_1  and  C_2
REMARK    2  A    between atoms: C_5  and  C_32
REMARK    3  A    between atoms: N_8  and  S_10
REMARK    4  A    between atoms: S_10  and  C_13
REMARK    5  A    between atoms: C_17  and  C_19
REMARK    6  A    between atoms: N_21  and  N_22
REMARK    7  A    between atoms: C_23  and  C_25
REMARK                            x       y       z     vdW  Elec       q    Type
REMARK                         _______ _______ _______ _____ _____    ______ ____
ROOT
ATOM      1  C   UNL     1       2.547  -3.268  -0.217  0.00  0.00    +0.106 A 
ATOM      2  C   UNL     1       2.078  -4.392  -0.874  0.00  0.00    +0.028 A 
ATOM      3  C   UNL     1       2.503  -4.677  -2.159  0.00  0.00    +0.003 A 
ATOM      4  C   UNL     1       3.399  -3.842  -2.794  0.00  0.00    +0.013 A 
ATOM      5  C   UNL     1       3.876  -2.707  -2.137  0.00  0.00    +0.040 A 
ATOM      6  C   UNL     1       3.438  -2.421  -0.843  0.00  0.00    +0.041 A 
ENDROOT
BRANCH   5   7
ATOM      7  C   UNL     1       4.837  -1.807  -2.811  0.00  0.00    +0.260 C 
ATOM      8  O   UNL     1       5.250  -0.819  -2.236  0.00  0.00    -0.269 OA
ATOM      9  N   UNL     1       5.254  -2.083  -4.063  0.00  0.00    -0.230 N 
ATOM     10  H   UNL     1       4.924  -2.872  -4.521  0.00  0.00    +0.173 HD
BRANCH   9  11
ATOM     11  N   UNL     1       6.164  -1.231  -4.701  0.00  0.00    -0.229 N 
ATOM     12  C   UNL     1       6.581  -1.506  -5.953  0.00  0.00    +0.276 C 
ATOM     13  O   UNL     1       6.167  -2.496  -6.528  0.00  0.00    -0.267 OA
ATOM     14  H   UNL     1       6.494  -0.442  -4.243  0.00  0.00    +0.173 HD
BRANCH  12  15
ATOM     15  C   UNL     1       7.534  -0.614  -6.622  0.00  0.00    +0.104 A 
ATOM     16  C   UNL     1       8.040  -0.769  -7.895  0.00  0.00    +0.047 A 
ATOM     17  C   UNL     1       8.908   0.303  -8.126  0.00  0.00    +0.036 A 
ATOM     18  C   UNL     1       8.917   1.077  -7.014  0.00  0.00    +0.098 A 
ATOM     19  N   UNL     1       8.083   0.533  -6.094  0.00  0.00    -0.356 N 
ATOM     20  H   UNL     1       7.904   0.891  -5.210  0.00  0.00    +0.166 HD
ATOM     21 BR   UNL     1       9.893   0.617  -9.709  0.00  0.00    -0.049 Br
ENDBRANCH  12  15
ENDBRANCH   9  11
ENDBRANCH   5   7
BRANCH   1  22
ATOM     22  S   UNL     1       1.999  -2.914   1.419  0.00  0.00    +0.061 S 
ATOM     23  O   UNL     1       2.998  -2.098   2.015  0.00  0.00    -0.153 OA
ATOM     24  O   UNL     1       1.587  -4.150   1.986  0.00  0.00    -0.153 OA
BRANCH  22  30
ATOM     25  C   UNL     1      -0.019   1.526   0.010  0.00  0.00    +0.009 C 
ATOM     26  C   UNL     1       0.002  -0.004   0.002  0.00  0.00    +0.002 C 
ATOM     27  C   UNL     1      -1.433  -0.534   0.015  0.00  0.00    +0.009 C 
ATOM     28  C   UNL     1      -1.414  -2.064  -0.027  0.00  0.00    +0.002 C 
ATOM     29  C   UNL     1      -0.692  -2.596   1.215  0.00  0.00    +0.112 C 
ATOM     30  N   UNL     1       0.639  -1.977   1.288  0.00  0.00    -0.176 NA
ATOM     31  C   UNL     1       0.742  -0.512   1.244  0.00  0.00    +0.112 C 
ATOM     32  C   UNL     1      -0.680  -2.532  -1.285  0.00  0.00    +0.009 C 
ENDBRANCH  22  30
ENDBRANCH   1  22
TORSDOF 5
