REMARK  Name = ZINC54805491
REMARK  8 active torsions:
REMARK  status: ('A' for Active; 'I' for Inactive)
REMARK    1  A    between atoms: C_1  and  C_2
REMARK    2  A    between atoms: N_7  and  C_9
REMARK    3  A    between atoms: C_9  and  C_10
REMARK    4  A    between atoms: C_9  and  C_11
REMARK    5  A    between atoms: C_9  and  C_12
REMARK    6  A    between atoms: C_12  and  N_13
REMARK    7  A    between atoms: N_19  and  C_22
REMARK    8  A    between atoms: C_27  and  O_28
REMARK                            x       y       z     vdW  Elec       q    Type
REMARK                         _______ _______ _______ _____ _____    ______ ____
ROOT
ATOM      1  N   UNL     1       2.232  -4.376   1.177  0.00  0.00    -0.301 N 
ATOM      2  C   UNL     1       2.304  -5.671   0.808  0.00  0.00    +0.302 C 
ATOM      3  O   UNL     1       1.771  -6.527   1.488  0.00  0.00    -0.253 OA
ATOM      4  N   UNL     1       2.967  -6.017  -0.313  0.00  0.00    -0.283 N 
ATOM      5  C   UNL     1       2.955  -7.407  -0.791  0.00  0.00    +0.128 C 
ATOM      6  C   UNL     1       2.452  -7.423  -2.239  0.00  0.00    +0.124 C 
ATOM      7  N   UNL     1       3.198  -6.417  -3.007  0.00  0.00    -0.324 N 
ATOM      8  C   UNL     1       3.210  -5.027  -2.530  0.00  0.00    +0.124 C 
ATOM      9  C   UNL     1       3.708  -5.009  -1.085  0.00  0.00    +0.128 C 
ATOM     10  H   UNL     1       2.719  -3.702   0.676  0.00  0.00    +0.150 HD
ENDROOT
BRANCH   7  11
ATOM     11  C   UNL     1       3.886  -6.776  -4.172  0.00  0.00    +0.072 A 
ATOM     12  C   UNL     1       3.248  -6.718  -5.403  0.00  0.00    +0.027 A 
ATOM     13  C   UNL     1       3.930  -7.072  -6.552  0.00  0.00    +0.002 A 
ATOM     14  C   UNL     1       5.247  -7.486  -6.478  0.00  0.00    +0.004 A 
ATOM     15  C   UNL     1       5.889  -7.546  -5.255  0.00  0.00    +0.047 A 
ATOM     16  C   UNL     1       5.215  -7.188  -4.100  0.00  0.00    +0.138 A 
BRANCH  16  17
ATOM     17  O   UNL     1       5.847  -7.242  -2.897  0.00  0.00    -0.505 OA
ATOM     18  H   UNL     1       5.766  -8.094  -2.447  0.00  0.00    +0.292 HD
ENDBRANCH  16  17
ENDBRANCH   7  11
BRANCH   1  19
ATOM     19  C   UNL     1       1.421  -3.988   2.332  0.00  0.00    +0.093 C 
BRANCH  19  20
ATOM     20  C   UNL     1       1.425  -2.464   2.469  0.00  0.00    -0.055 C 
ATOM     21  C   UNL     1       0.642  -2.062   3.721  0.00  0.00    -0.008 C 
ATOM     22  C   UNL     1       0.770  -1.839   1.236  0.00  0.00    -0.008 C 
BRANCH  20  28
ATOM     23  C   UNL     1       4.251   1.505   2.951  0.00  0.00    +0.005 C 
ATOM     24  C   UNL     1       4.253  -0.016   2.782  0.00  0.00    -0.031 C 
ATOM     25  C   UNL     1       4.986  -0.661   3.961  0.00  0.00    -0.001 C 
ATOM     26  C   UNL     1       4.914  -2.184   3.823  0.00  0.00    -0.018 C 
ATOM     27  C   UNL     1       3.448  -2.615   3.746  0.00  0.00    -0.078 C 
ATOM     28  N   UNL     1       2.810  -1.986   2.583  0.00  0.00    +0.384 N 
ATOM     29  C   UNL     1       2.811  -0.527   2.742  0.00  0.00    -0.075 C 
ATOM     30  H   UNL     1       3.318  -2.232   1.748  0.00  0.00    -0.081 HD
ENDBRANCH  20  28
ENDBRANCH  19  20
ENDBRANCH   1  19
TORSDOF 5
