REMARK  Name = ZINC00842740
REMARK  7 active torsions:
REMARK  status: ('A' for Active; 'I' for Inactive)
REMARK    1  A    between atoms: C_1  and  C_2
REMARK    2  A    between atoms: C_4  and  C_24
REMARK    3  A    between atoms: N_5  and  N_13
REMARK    4  A    between atoms: C_6  and  C_12
REMARK    5  A    between atoms: C_8  and  C_11
REMARK    6  A    between atoms: C_14  and  C_15
REMARK    7  A    between atoms: C_20  and  O_21
REMARK                            x       y       z     vdW  Elec       q    Type
REMARK                         _______ _______ _______ _____ _____    ______ ____
ROOT
ATOM      1  C   UNL     1       0.552   1.524  -0.168  0.00  0.00    +0.068 C 
ATOM      2  C   UNL     1       0.470   0.020  -0.142  0.00  0.00    +0.070 A 
ATOM      3  C   UNL     1       0.115  -0.699  -1.302  0.00  0.00    +0.029 A 
ATOM      4  C   UNL     1      -0.219  -0.413  -2.602  0.00  0.00    +0.050 A 
ATOM      5  N   UNL     1      -0.463  -1.579  -3.254  0.00  0.00    -0.240 N 
ATOM      6  C   UNL     1      -0.301  -2.642  -2.423  0.00  0.00    +0.050 A 
ATOM      7  C   UNL     1       0.060  -2.178  -1.184  0.00  0.00    +0.029 A 
ATOM      8  C   UNL     1       0.369  -2.728   0.077  0.00  0.00    +0.070 A 
ATOM      9  N   UNL     1       0.681  -1.918   1.060  0.00  0.00    -0.154 NA
ATOM     10  N   UNL     1       0.733  -0.645   0.957  0.00  0.00    -0.154 NA
ATOM     11  C   UNL     1       0.339  -4.219   0.292  0.00  0.00    +0.068 C 
ATOM     12  C   UNL     1      -0.488  -4.089  -2.801  0.00  0.00    +0.066 C 
ATOM     13  C   UNL     1      -0.301   0.965  -3.205  0.00  0.00    +0.066 C 
ENDROOT
BRANCH   5  14
ATOM     14  N   UNL     1      -0.833  -1.673  -4.602  0.00  0.00    -0.174 NA
ATOM     15  C   UNL     1       0.081  -1.780  -5.520  0.00  0.00    +0.145 C 
BRANCH  15  16
ATOM     16  C   UNL     1      -0.308  -1.879  -6.937  0.00  0.00    +0.039 A 
ATOM     17  C   UNL     1       0.671  -2.000  -7.927  0.00  0.00    +0.033 A 
ATOM     18  C   UNL     1       0.300  -2.093  -9.252  0.00  0.00    +0.043 A 
ATOM     19  C   UNL     1      -1.039  -2.066  -9.607  0.00  0.00    +0.043 A 
ATOM     20  C   UNL     1      -2.017  -1.947  -8.637  0.00  0.00    +0.084 A 
ATOM     21  C   UNL     1      -1.662  -1.859  -7.299  0.00  0.00    +0.144 A 
ATOM     22 CL   UNL     1      -3.692  -1.915  -9.093  0.00  0.00    -0.080 Cl
ATOM     23 CL   UNL     1       1.517  -2.243 -10.482  0.00  0.00    -0.083 Cl
BRANCH  21  24
ATOM     24  O   UNL     1      -2.622  -1.747  -6.345  0.00  0.00    -0.505 OA
ATOM     25  H   UNL     1      -2.867  -0.835  -6.139  0.00  0.00    +0.292 HD
ENDBRANCH  21  24
ENDBRANCH  15  16
ENDBRANCH   5  14
TORSDOF 3
