REMARK  Name = ZINC15678138
REMARK  2 active torsions:
REMARK  status: ('A' for Active; 'I' for Inactive)
REMARK    1  A    between atoms: C_8  and  C_17
REMARK    2  A    between atoms: N_19  and  C_20
REMARK                            x       y       z     vdW  Elec       q    Type
REMARK                         _______ _______ _______ _____ _____    ______ ____
ROOT
ATOM      1  C   UNL     1       1.408   2.595  -1.610  0.00  0.00    +0.000 A 
ATOM      2  C   UNL     1       2.557   2.898  -2.317  0.00  0.00    +0.002 A 
ATOM      3  C   UNL     1       3.606   2.003  -2.359  0.00  0.00    +0.023 A 
ATOM      4  C   UNL     1       3.515   0.786  -1.688  0.00  0.00    +0.039 A 
ATOM      5  C   UNL     1       2.354   0.492  -0.980  0.00  0.00    +0.004 A 
ATOM      6  C   UNL     1       1.309   1.389  -0.941  0.00  0.00    +0.008 A 
ATOM      7  C   UNL     1       2.567  -0.872  -0.380  0.00  0.00    +0.137 C 
ATOM      8  C   UNL     1       1.513  -1.865  -0.894  0.00  0.00    +0.111 C 
ATOM      9  C   UNL     1       1.251  -2.762   0.346  0.00  0.00    +0.034 C 
ATOM     10  C   UNL     1       1.385  -1.745   1.505  0.00  0.00    +0.059 C 
ATOM     11  N   UNL     1       2.480  -0.831   1.085  0.00  0.00    -0.282 NA
ATOM     12  C   UNL     1       3.724  -1.387   1.675  0.00  0.00    +0.086 C 
ATOM     13  C   UNL     1       3.270  -1.912   3.059  0.00  0.00    +0.017 C 
ATOM     14  C   UNL     1       1.844  -2.481   2.774  0.00  0.00    +0.020 C 
ATOM     15  C   UNL     1       3.946  -1.278  -0.832  0.00  0.00    +0.243 C 
ATOM     16  O   UNL     1       4.516  -2.317  -0.572  0.00  0.00    -0.273 OA
ATOM     17  N   UNL     1       4.425  -0.267  -1.581  0.00  0.00    -0.283 N 
ATOM     18  H   UNL     1       5.301  -0.270  -1.998  0.00  0.00    +0.155 HD
ENDROOT
BRANCH   8  19
ATOM     19  C   UNL     1       0.257  -1.143  -1.310  0.00  0.00    +0.223 C 
ATOM     20  O   UNL     1      -0.464  -0.648  -0.470  0.00  0.00    -0.275 OA
ATOM     21  N   UNL     1      -0.064  -1.047  -2.615  0.00  0.00    -0.281 N 
ATOM     22  H   UNL     1       0.482  -1.492  -3.283  0.00  0.00    +0.155 HD
BRANCH  21  23
ATOM     23  C   UNL     1      -1.186  -0.306  -3.008  0.00  0.00    +0.110 A 
ATOM     24  C   UNL     1      -2.463  -0.768  -2.716  0.00  0.00    +0.182 A 
ATOM     25  C   UNL     1      -3.571  -0.033  -3.105  0.00  0.00    +0.163 A 
ATOM     26  C   UNL     1      -3.406   1.162  -3.785  0.00  0.00    +0.082 A 
ATOM     27  C   UNL     1      -2.135   1.625  -4.078  0.00  0.00    +0.163 A 
ATOM     28  C   UNL     1      -1.024   0.897  -3.686  0.00  0.00    +0.182 A 
ATOM     29  F   UNL     1       0.217   1.352  -3.967  0.00  0.00    -0.200 F 
ATOM     30  F   UNL     1      -1.978   2.791  -4.742  0.00  0.00    -0.202 F 
ATOM     31  F   UNL     1      -4.813  -0.483  -2.822  0.00  0.00    -0.202 F 
ATOM     32  F   UNL     1      -2.625  -1.934  -2.053  0.00  0.00    -0.200 F 
ENDBRANCH  21  23
ENDBRANCH   8  19
TORSDOF 2
