REMARK  Name = ZINC58615798
REMARK  7 active torsions:
REMARK  status: ('A' for Active; 'I' for Inactive)
REMARK    1  A    between atoms: C_1  and  C_2
REMARK    2  A    between atoms: C_2  and  C_3
REMARK    3  A    between atoms: C_2  and  N_14
REMARK    4  A    between atoms: N_5  and  C_6
REMARK    5  A    between atoms: C_11  and  C_12
REMARK    6  A    between atoms: N_14  and  C_15
REMARK    7  A    between atoms: C_18  and  C_21
REMARK                            x       y       z     vdW  Elec       q    Type
REMARK                         _______ _______ _______ _____ _____    ______ ____
ROOT
ATOM      1  C   UNL     1      -0.004   1.514  -0.003  0.00  0.00    +0.038 C 
ATOM      2  C   UNL     1       0.007  -0.016  -0.006  0.00  0.00    +0.154 C 
ENDROOT
BRANCH   2   3
ATOM      3  C   UNL     1      -1.411  -0.528   0.011  0.00  0.00    +0.237 C 
ATOM      4  O   UNL     1      -1.791  -1.230   0.924  0.00  0.00    -0.273 OA
ATOM      5  N   UNL     1      -2.256  -0.206  -0.988  0.00  0.00    -0.283 N 
ATOM      6  H   UNL     1      -1.978   0.419  -1.676  0.00  0.00    +0.155 HD
BRANCH   5   7
ATOM      7  C   UNL     1      -3.529  -0.771  -1.034  0.00  0.00    +0.051 A 
ATOM      8  C   UNL     1      -3.772  -1.992  -0.420  0.00  0.00    +0.024 A 
ATOM      9  C   UNL     1      -5.035  -2.550  -0.466  0.00  0.00    +0.002 A 
ATOM     10  C   UNL     1      -6.066  -1.899  -1.123  0.00  0.00    +0.001 A 
ATOM     11  C   UNL     1      -5.842  -0.686  -1.739  0.00  0.00    +0.021 A 
ATOM     12  C   UNL     1      -4.572  -0.106  -1.696  0.00  0.00    +0.073 A 
BRANCH  12  13
ATOM     13  C   UNL     1      -4.335   1.156  -2.328  0.00  0.00    +0.101 C 
ATOM     14  N   UNL     1      -4.147   2.158  -2.829  0.00  0.00    -0.191 NA
ENDBRANCH  12  13
ENDBRANCH   5   7
ENDBRANCH   2   3
BRANCH   2  15
ATOM     15  N   UNL     1       0.716  -0.502   1.180  0.00  0.00    -0.333 N 
ATOM     16  H   UNL     1       0.219  -0.738   1.979  0.00  0.00    +0.147 HD
BRANCH  15  17
ATOM     17  C   UNL     1       2.106  -0.626   1.160  0.00  0.00    +0.028 A 
ATOM     18  C   UNL     1       2.817  -0.282   0.016  0.00  0.00    +0.023 A 
ATOM     19  C   UNL     1       4.190  -0.403  -0.005  0.00  0.00    +0.010 A 
ATOM     20  C   UNL     1       4.865  -0.871   1.121  0.00  0.00    -0.018 A 
ATOM     21  C   UNL     1       4.150  -1.215   2.267  0.00  0.00    +0.010 A 
ATOM     22  C   UNL     1       2.778  -1.087   2.286  0.00  0.00    +0.023 A 
BRANCH  20  23
ATOM     23  C   UNL     1       6.343  -1.003   1.100  0.00  0.00    -0.018 A 
ATOM     24  C   UNL     1       7.059  -0.654  -0.043  0.00  0.00    +0.008 A 
ATOM     25  C   UNL     1       8.434  -0.779  -0.058  0.00  0.00    +0.001 A 
ATOM     26  C   UNL     1       9.100  -1.248   1.060  0.00  0.00    +0.000 A 
ATOM     27  C   UNL     1       8.393  -1.596   2.197  0.00  0.00    +0.001 A 
ATOM     28  C   UNL     1       7.019  -1.470   2.225  0.00  0.00    +0.008 A 
ENDBRANCH  20  23
ENDBRANCH  15  17
ENDBRANCH   2  15
TORSDOF 6
