REMARK  Name = ZINC34274263
REMARK  2 active torsions:
REMARK  status: ('A' for Active; 'I' for Inactive)
REMARK    1  A    between atoms: C_1  and  C_2
REMARK    2  A    between atoms: C_2  and  C_12
REMARK                            x       y       z     vdW  Elec       q    Type
REMARK                         _______ _______ _______ _____ _____    ______ ____
ROOT
ATOM      1  C   UNL     1      -0.019   1.526   0.010  0.00  0.00    +0.014 C 
ATOM      2  C   UNL     1       0.002  -0.004   0.002  0.00  0.00    +0.010 C 
ATOM      3  C   UNL     1      -1.433  -0.537   0.029  0.00  0.00    +0.088 C 
ATOM      4  C   UNL     1      -1.410  -2.041   0.090  0.00  0.00    +0.160 C 
ATOM      5  O   UNL     1      -2.420  -2.740  -0.461  0.00  0.00    -0.293 OA
ATOM      6  C   UNL     1      -0.398  -2.699   0.683  0.00  0.00    +0.095 C 
ATOM      7  C   UNL     1       0.681  -2.020   1.268  0.00  0.00    +0.194 C 
ATOM      8  O   UNL     1       1.574  -2.650   1.798  0.00  0.00    -0.289 OA
ATOM      9  C   UNL     1       0.743  -0.514   1.242  0.00  0.00    +0.242 C 
ATOM     10  F   UNL     1       0.135  -0.002   2.394  0.00  0.00    -0.236 F 
ATOM     11  C   UNL     1       0.712  -0.500  -1.259  0.00  0.00    +0.014 C 
ENDROOT
TORSDOF 0
