REMARK  Name = ZINC09378515
REMARK  8 active torsions:
REMARK  status: ('A' for Active; 'I' for Inactive)
REMARK    1  A    between atoms: C_3  and  C_6
REMARK    2  A    between atoms: C_6  and  C_8
REMARK    3  A    between atoms: C_6  and  N_62
REMARK    4  A    between atoms: C_8  and  N_9
REMARK    5  A    between atoms: C_10  and  C_12
REMARK    6  A    between atoms: C_15  and  N_18
REMARK    7  A    between atoms: N_18  and  S_19
REMARK    8  A    between atoms: S_19  and  C_22
REMARK                            x       y       z     vdW  Elec       q    Type
REMARK                         _______ _______ _______ _____ _____    ______ ____
ROOT
ATOM      1  C   UNL     1       5.448   2.153  -4.185  0.00  0.00    +0.037 A 
ATOM      2  C   UNL     1       6.319   1.062  -4.255  0.00  0.00    +0.015 A 
ATOM      3  C   UNL     1       6.212   0.038  -3.341  0.00  0.00    +0.025 A 
ATOM      4  C   UNL     1       5.237   0.088  -2.349  0.00  0.00    +0.048 A 
ATOM      5  C   UNL     1       4.365   1.170  -2.280  0.00  0.00    +0.025 A 
ATOM      6  C   UNL     1       4.471   2.200  -3.187  0.00  0.00    +0.015 A 
ENDROOT
BRANCH   1   8
ATOM      7  N   UNL     1       4.720   4.303  -5.094  0.00  0.00    -0.312 N 
ATOM      8  C   UNL     1       5.561   3.252  -5.162  0.00  0.00    +0.244 C 
ATOM      9  O   UNL     1       6.411   3.209  -6.030  0.00  0.00    -0.270 OA
ATOM     10  H   UNL     1       4.041   4.337  -4.402  0.00  0.00    +0.149 HD
BRANCH   7  11
ATOM     11  C   UNL     1       4.831   5.394  -6.065  0.00  0.00    +0.097 C 
BRANCH  11  12
ATOM     12  C   UNL     1       3.768   6.453  -5.766  0.00  0.00    +0.016 C 
BRANCH  12  17
ATOM     13  C   UNL     1       5.291   7.302  -4.067  0.00  0.00    -0.078 C 
ATOM     14  C   UNL     1       5.135   8.196  -2.811  0.00  0.00    -0.020 C 
ATOM     15  C   UNL     1       3.818   8.957  -3.091  0.00  0.00    -0.020 C 
ATOM     16  C   UNL     1       3.063   8.090  -4.115  0.00  0.00    -0.078 C 
ATOM     17  N   UNL     1       3.901   6.914  -4.351  0.00  0.00    +0.387 N 
ATOM     18  H   UNL     1       3.617   6.154  -3.722  0.00  0.00    -0.081 HD
ENDBRANCH  12  17
BRANCH  12  21
ATOM     19  C   UNL     1       3.719   9.120  -8.310  0.00  0.00    +0.041 A 
ATOM     20  C   UNL     1       3.179   7.946  -7.735  0.00  0.00    +0.043 A 
ATOM     21  C   UNL     1       3.960   7.631  -6.686  0.00  0.00    +0.093 A 
ATOM     22  O   UNL     1       4.944   8.542  -6.601  0.00  0.00    -0.469 OA
ATOM     23  C   UNL     1       4.802   9.447  -7.583  0.00  0.00    +0.195 A 
ENDBRANCH  12  21
ENDBRANCH  11  12
ENDBRANCH   7  11
ENDBRANCH   1   8
BRANCH   4  24
ATOM     24  N   UNL     1       5.131  -0.948  -1.428  0.00  0.00    -0.216 N 
ATOM     25  H   UNL     1       4.399  -1.581  -1.491  0.00  0.00    +0.174 HD
BRANCH  24  26
ATOM     26  S   UNL     1       6.256  -1.102  -0.222  0.00  0.00    +0.072 S 
ATOM     27  O   UNL     1       7.531  -1.054  -0.847  0.00  0.00    -0.150 OA
ATOM     28  O   UNL     1       5.842  -2.199   0.582  0.00  0.00    -0.150 OA
BRANCH  26  29
ATOM     29  C   UNL     1       6.136   0.336   0.789  0.00  0.00    +0.112 A 
ATOM     30  C   UNL     1       5.201   0.390   1.805  0.00  0.00    +0.032 A 
ATOM     31  C   UNL     1       5.103   1.516   2.599  0.00  0.00    +0.051 A 
ATOM     32  C   UNL     1       5.943   2.597   2.378  0.00  0.00    +0.162 A 
ATOM     33  C   UNL     1       6.886   2.543   1.358  0.00  0.00    +0.164 A 
ATOM     34  C   UNL     1       6.978   1.409   0.564  0.00  0.00    +0.078 A 
ATOM     35  O   UNL     1       7.726   3.589   1.129  0.00  0.00    -0.485 OA
ATOM     36  C   UNL     1       7.355   4.849   1.699  0.00  0.00    +0.270 C 
ATOM     37  C   UNL     1       6.937   4.612   3.156  0.00  0.00    +0.270 C 
ATOM     38  O   UNL     1       5.830   3.704   3.162  0.00  0.00    -0.485 OA
ENDBRANCH  26  29
ENDBRANCH  24  26
ENDBRANCH   4  24
TORSDOF 8
