REMARK  Name = ZINC63280069
REMARK  7 active torsions:
REMARK  status: ('A' for Active; 'I' for Inactive)
REMARK    1  A    between atoms: C_1  and  O_2
REMARK    2  A    between atoms: O_2  and  C_3
REMARK    3  A    between atoms: C_6  and  S_9
REMARK    4  A    between atoms: S_9  and  N_12
REMARK    5  A    between atoms: N_12  and  C_13
REMARK    6  A    between atoms: C_19  and  C_23
REMARK    7  A    between atoms: N_25  and  C_26
REMARK                            x       y       z     vdW  Elec       q    Type
REMARK                         _______ _______ _______ _____ _____    ______ ____
ROOT
ATOM      1  C   UNL     1      -4.860  -3.853  -2.408  0.00  0.00    +0.224 C 
ATOM      2  N   UNL     1      -4.989  -3.462  -3.818  0.00  0.00    -0.318 N 
ATOM      3  C   UNL     1      -5.545  -4.383  -4.695  0.00  0.00    +0.043 A 
ATOM      4  C   UNL     1      -5.744  -4.179  -6.075  0.00  0.00    +0.025 A 
ATOM      5  C   UNL     1      -6.302  -5.148  -6.867  0.00  0.00    +0.015 A 
ATOM      6  C   UNL     1      -6.694  -6.377  -6.330  0.00  0.00    +0.038 A 
ATOM      7  C   UNL     1      -6.506  -6.603  -4.961  0.00  0.00    +0.029 A 
ATOM      8  C   UNL     1      -5.947  -5.623  -4.180  0.00  0.00    +0.033 A 
ATOM      9  S   UNL     1      -5.561  -5.551  -2.444  0.00  0.00    -0.084 S 
ATOM     10  H   UNL     1      -4.696  -2.590  -4.125  0.00  0.00    +0.148 HD
ENDROOT
BRANCH   6  11
ATOM     11  C   UNL     1      -7.294  -7.416  -7.189  0.00  0.00    +0.247 C 
ATOM     12  O   UNL     1      -7.631  -8.481  -6.709  0.00  0.00    -0.270 OA
ATOM     13  N   UNL     1      -7.469  -7.184  -8.505  0.00  0.00    -0.274 N 
ATOM     14  H   UNL     1      -7.200  -6.335  -8.888  0.00  0.00    +0.153 HD
BRANCH  13  15
ATOM     15  C   UNL     1      -8.064  -8.216  -9.357  0.00  0.00    +0.269 C 
ATOM     16  N   UNL     1      -7.066  -9.245  -9.676  0.00  0.00    -0.348 N 
ATOM     17  C   UNL     1      -6.920  -9.260 -10.969  0.00  0.00    +0.061 A 
ATOM     18  C   UNL     1      -6.078 -10.059 -11.870  0.00  0.00    +0.027 A 
ATOM     19  C   UNL     1      -6.140  -9.848 -13.200  0.00  0.00    +0.002 A 
ATOM     20  C   UNL     1      -6.985  -8.884 -13.776  0.00  0.00    +0.002 A 
ATOM     21  C   UNL     1      -7.797  -8.097 -13.041  0.00  0.00    +0.027 A 
ATOM     22  C   UNL     1      -7.815  -8.239 -11.579  0.00  0.00    +0.061 A 
ATOM     23  N   UNL     1      -8.481  -7.633 -10.639  0.00  0.00    -0.348 N 
ATOM     24  H   UNL     1      -6.601  -9.810  -9.039  0.00  0.00    +0.163 HD
ATOM     25  H   UNL     1      -9.132  -6.925 -10.762  0.00  0.00    +0.163 HD
ENDBRANCH  13  15
ENDBRANCH   6  11
BRANCH   1  26
ATOM     26  N   UNL     1      -5.651  -2.974  -1.542  0.00  0.00    -0.160 NA
ATOM     27  H   UNL     1      -6.436  -2.525  -1.895  0.00  0.00    +0.151 HD
BRANCH  26  28
ATOM     28  S   UNL     1      -5.207  -2.748   0.036  0.00  0.00    +0.061 S 
ATOM     29  O   UNL     1      -4.982  -4.040   0.584  0.00  0.00    -0.153 OA
ATOM     30  O   UNL     1      -6.142  -1.836   0.595  0.00  0.00    -0.153 OA
BRANCH  28  34
ATOM     31  C   UNL     1      -1.200  -0.637   0.010  0.00  0.00    +0.120 A 
ATOM     32  C   UNL     1      -2.375   0.101   0.019  0.00  0.00    +0.047 A 
ATOM     33  C   UNL     1      -3.596  -0.545   0.027  0.00  0.00    +0.032 A 
ATOM     34  C   UNL     1      -3.648  -1.927   0.026  0.00  0.00    +0.106 A 
ATOM     35  C   UNL     1      -2.479  -2.665   0.017  0.00  0.00    +0.032 A 
ATOM     36  C   UNL     1      -1.255  -2.024   0.003  0.00  0.00    +0.047 A 
BRANCH  31  38
ATOM     37  C   UNL     1      -0.017   1.425   0.010  0.00  0.00    +0.277 C 
ATOM     38  O   UNL     1       0.002  -0.004   0.002  0.00  0.00    -0.495 OA
ENDBRANCH  31  38
ENDBRANCH  28  34
ENDBRANCH  26  28
ENDBRANCH   1  26
TORSDOF 6
