REMARK  Name = ZINC62612538
REMARK  7 active torsions:
REMARK  status: ('A' for Active; 'I' for Inactive)
REMARK    1  A    between atoms: C_1  and  C_2
REMARK    2  A    between atoms: C_2  and  C_3
REMARK    3  A    between atoms: C_3  and  C_5
REMARK    4  A    between atoms: C_3  and  N_23
REMARK    5  A    between atoms: C_5  and  C_7
REMARK    6  A    between atoms: C_5  and  O_14
REMARK    7  A    between atoms: O_14  and  C_15
REMARK                            x       y       z     vdW  Elec       q    Type
REMARK                         _______ _______ _______ _____ _____    ______ ____
ROOT
ATOM      1  C   UNL     1      -1.408  -2.031  -0.248  0.00  0.00    +0.190 C 
ENDROOT
BRANCH   1   2
ATOM      2  C   UNL     1      -2.748  -2.668  -0.513  0.00  0.00    +0.005 A 
ATOM      3  C   UNL     1      -3.406  -3.341   0.499  0.00  0.00    +0.008 A 
ATOM      4  C   UNL     1      -4.635  -3.925   0.257  0.00  0.00    +0.000 A 
ATOM      5  C   UNL     1      -5.207  -3.836  -0.999  0.00  0.00    +0.001 A 
ATOM      6  C   UNL     1      -4.550  -3.164  -2.012  0.00  0.00    +0.015 A 
ATOM      7  C   UNL     1      -3.322  -2.575  -1.768  0.00  0.00    +0.024 A 
ATOM      8 BR   UNL     1      -2.426  -1.648  -3.151  0.00  0.00    -0.050 Br
ENDBRANCH   1   2
BRANCH   1   9
ATOM      9  C   UNL     1      -1.607  -0.558   0.114  0.00  0.00    -0.029 C 
BRANCH   9  10
ATOM     10  N   UNL     1      -2.510  -0.454   1.267  0.00  0.00    +0.383 N 
ATOM     11  H   UNL     1      -2.109  -0.943   2.054  0.00  0.00    -0.089 HD
ATOM     12  H   UNL     1      -2.641   0.517   1.506  0.00  0.00    -0.089 HD
ATOM     13  H   UNL     1      -3.401  -0.867   1.035  0.00  0.00    -0.089 HD
ENDBRANCH   9  10
BRANCH   9  15
ATOM     14  C   UNL     1      -0.433   1.568   0.700  0.00  0.00    +0.002 C 
ATOM     15  C   UNL     1      -0.255   0.067   0.466  0.00  0.00    -0.016 C 
ENDBRANCH   9  15
ENDBRANCH   1   9
BRANCH   1  16
ATOM     16  O   UNL     1      -0.766  -2.706   0.836  0.00  0.00    -0.483 OA
BRANCH  16  17
ATOM     17  C   UNL     1      -0.029  -3.806   0.528  0.00  0.00    +0.159 A 
ATOM     18  C   UNL     1      -0.018  -4.294  -0.770  0.00  0.00    +0.049 A 
ATOM     19  C   UNL     1       0.733  -5.412  -1.081  0.00  0.00    +0.007 A 
ATOM     20  C   UNL     1       1.473  -6.045  -0.101  0.00  0.00    +0.041 A 
ATOM     21  C   UNL     1       1.465  -5.562   1.196  0.00  0.00    +0.162 A 
ATOM     22  C   UNL     1       0.719  -4.439   1.512  0.00  0.00    +0.200 A 
ATOM     23  F   UNL     1       0.714  -3.963   2.777  0.00  0.00    -0.199 F 
ATOM     24  F   UNL     1       2.189  -6.184   2.153  0.00  0.00    -0.202 F 
ENDBRANCH  16  17
ENDBRANCH   1  16
TORSDOF 6
