REMARK  Name = ZINC15229935
REMARK  10 active torsions:
REMARK  status: ('A' for Active; 'I' for Inactive)
REMARK    1  A    between atoms: C_1  and  C_2
REMARK    2  A    between atoms: C_3  and  C_21
REMARK    3  A    between atoms: N_10  and  C_11
REMARK    4  A    between atoms: C_11  and  C_12
REMARK    5  A    between atoms: C_15  and  N_18
REMARK    6  A    between atoms: C_22  and  C_23
REMARK    7  A    between atoms: C_22  and  C_25
REMARK    8  A    between atoms: N_27  and  C_28
REMARK    9  A    between atoms: C_28  and  C_29
REMARK   10  A    between atoms: C_29  and  C_30
REMARK                            x       y       z     vdW  Elec       q    Type
REMARK                         _______ _______ _______ _____ _____    ______ ____
ROOT
ATOM      1  C   UNL     1       0.381   1.389  -0.037  0.00  0.00    +0.064 C 
ATOM      2  C   UNL     1       0.140  -0.098  -0.004  0.00  0.00    +0.024 A 
ATOM      3  C   UNL     1      -0.015  -0.856   1.142  0.00  0.00    +0.005 A 
ATOM      4  C   UNL     1      -0.227  -2.245   0.690  0.00  0.00    +0.007 A 
ATOM      5  C   UNL     1      -0.441  -3.453   1.347  0.00  0.00    +0.010 A 
ATOM      6  C   UNL     1      -0.608  -4.609   0.614  0.00  0.00    +0.001 A 
ATOM      7  C   UNL     1      -0.562  -4.570  -0.772  0.00  0.00    +0.002 A 
ATOM      8  C   UNL     1      -0.350  -3.381  -1.435  0.00  0.00    +0.026 A 
ATOM      9  C   UNL     1      -0.180  -2.204  -0.712  0.00  0.00    +0.050 A 
ATOM     10  N   UNL     1       0.037  -0.893  -1.087  0.00  0.00    -0.339 N 
ENDROOT
BRANCH   3  11
ATOM     11  C   UNL     1       0.021  -0.393   2.476  0.00  0.00    +0.034 C 
ATOM     12  C   UNL     1       0.963  -0.895   3.357  0.00  0.00    +0.114 C 
BRANCH  12  13
ATOM     13  C   UNL     1       2.014  -1.798   2.872  0.00  0.00    +0.254 C 
ATOM     14  O   UNL     1       2.121  -2.023   1.680  0.00  0.00    -0.269 OA
ATOM     15  N   UNL     1       2.861  -2.378   3.745  0.00  0.00    -0.310 N 
ATOM     16  H   UNL     1       2.776  -2.199   4.695  0.00  0.00    +0.149 HD
BRANCH  15  17
ATOM     17  C   UNL     1       3.910  -3.279   3.261  0.00  0.00    +0.109 C 
BRANCH  17  18
ATOM     18  C   UNL     1       4.725  -3.797   4.447  0.00  0.00    +0.056 C 
BRANCH  18  19
ATOM     19  C   UNL     1       5.804  -4.724   3.949  0.00  0.00    -0.021 A 
ATOM     20  C   UNL     1       5.736  -6.063   3.876  0.00  0.00    +0.087 A 
ATOM     21  N   UNL     1       6.905  -6.562   3.371  0.00  0.00    -0.360 N 
ATOM     22  H   UNL     1       7.092  -7.503   3.224  0.00  0.00    +0.165 HD
ATOM     23  C   UNL     1       7.780  -5.532   3.108  0.00  0.00    +0.047 A 
ATOM     24  C   UNL     1       7.129  -4.335   3.458  0.00  0.00    +0.003 A 
ATOM     25  C   UNL     1       7.783  -3.113   3.296  0.00  0.00    +0.010 A 
ATOM     26  C   UNL     1       9.055  -3.085   2.797  0.00  0.00    +0.001 A 
ATOM     27  C   UNL     1       9.702  -4.263   2.450  0.00  0.00    +0.002 A 
ATOM     28  C   UNL     1       9.075  -5.480   2.602  0.00  0.00    +0.026 A 
ENDBRANCH  18  19
ENDBRANCH  17  18
ENDBRANCH  15  17
ENDBRANCH  12  13
BRANCH  12  29
ATOM     29  C   UNL     1       0.913  -0.534   4.742  0.00  0.00    +0.104 C 
ATOM     30  N   UNL     1       0.873  -0.248   5.840  0.00  0.00    -0.191 NA
ENDBRANCH  12  29
ENDBRANCH   3  11
BRANCH  10  31
ATOM     31  C   UNL     1       0.145  -0.430  -2.473  0.00  0.00    +0.157 C 
BRANCH  31  32
ATOM     32  C   UNL     1       1.584  -0.498  -2.915  0.00  0.00    -0.028 A 
ATOM     33  C   UNL     1       2.414   0.593  -2.735  0.00  0.00    +0.007 A 
ATOM     34  C   UNL     1       3.735   0.529  -3.137  0.00  0.00    +0.033 A 
ATOM     35  C   UNL     1       4.224  -0.622  -3.726  0.00  0.00    +0.126 A 
ATOM     36  C   UNL     1       3.392  -1.711  -3.910  0.00  0.00    +0.033 A 
ATOM     37  C   UNL     1       2.072  -1.648  -3.505  0.00  0.00    +0.007 A 
BRANCH  35  38
ATOM     38  N   UNL     1       5.637  -0.689  -4.160  0.00  0.00    +0.056 N 
ATOM     39  O   UNL     1       6.068  -1.703  -4.679  0.00  0.00    -0.126 OA
ATOM     40  O   UNL     1       6.370   0.270  -3.997  0.00  0.00    -0.126 OA
ENDBRANCH  35  38
ENDBRANCH  31  32
ENDBRANCH  10  31
TORSDOF 9
