REMARK  Name = ZINC14623559
REMARK  12 active torsions:
REMARK  status: ('A' for Active; 'I' for Inactive)
REMARK    1  A    between atoms: C_1  and  C_2
REMARK    2  A    between atoms: C_2  and  C_3
REMARK    3  A    between atoms: C_3  and  C_4
REMARK    4  A    between atoms: C_4  and  N_5
REMARK    5  A    between atoms: C_6  and  N_30
REMARK    6  A    between atoms: C_7  and  N_14
REMARK    7  A    between atoms: N_14  and  C_15
REMARK    8  A    between atoms: C_15  and  C_16
REMARK    9  A    between atoms: C_16  and  C_17
REMARK   10  A    between atoms: C_17  and  C_18
REMARK   11  A    between atoms: C_17  and  C_19
REMARK   12  A    between atoms: C_20  and  C_22
REMARK                            x       y       z     vdW  Elec       q    Type
REMARK                         _______ _______ _______ _____ _____    ______ ____
ROOT
ATOM      1  N   UNL     1      -0.766   2.758  -2.066  0.00  0.00    -0.280 N 
ATOM      2  C   UNL     1       0.350   3.489  -1.731  0.00  0.00    +0.127 A 
ATOM      3  C   UNL     1       1.065   3.147  -0.601  0.00  0.00    +0.140 A 
ATOM      4  C   UNL     1       0.628   2.057   0.175  0.00  0.00    +0.277 A 
ATOM      5  O   UNL     1       1.241   1.733   1.178  0.00  0.00    -0.266 OA
ATOM      6  N   UNL     1      -0.472   1.374  -0.198  0.00  0.00    -0.273 N 
ATOM      7  H   UNL     1      -0.785   0.602   0.355  0.00  0.00    +0.173 HD
ATOM      8  C   UNL     1      -1.153   1.719  -1.305  0.00  0.00    +0.331 A 
ATOM      9  O   UNL     1      -2.140   1.082  -1.621  0.00  0.00    -0.246 OA
ENDROOT
BRANCH   3  10
ATOM     10  N   UNL     1       2.213   3.877  -0.231  0.00  0.00    -0.260 N 
ATOM     11  C   UNL     1       2.125   5.204  -0.007  0.00  0.00    +0.252 C 
ATOM     12  O   UNL     1       3.119   5.837   0.292  0.00  0.00    -0.270 OA
BRANCH  11  13
ATOM     13  C   UNL     1       0.821   5.888  -0.125  0.00  0.00    +0.057 A 
ATOM     14  C   UNL     1      -0.365   5.170   0.039  0.00  0.00    +0.014 A 
ATOM     15  C   UNL     1      -1.580   5.814  -0.072  0.00  0.00    +0.002 A 
ATOM     16  C   UNL     1      -1.626   7.170  -0.345  0.00  0.00    +0.021 A 
ATOM     17  C   UNL     1      -0.455   7.889  -0.509  0.00  0.00    +0.060 A 
ATOM     18  C   UNL     1       0.769   7.257  -0.395  0.00  0.00    +0.071 A 
ATOM     19 CL   UNL     1       2.238   8.162  -0.593  0.00  0.00    -0.081 Cl
ATOM     20 CL   UNL     1      -0.524   9.590  -0.852  0.00  0.00    -0.082 Cl
ENDBRANCH  11  13
BRANCH  10  21
ATOM     21  C   UNL     1       3.501   3.194  -0.089  0.00  0.00    +0.114 C 
BRANCH  21  22
ATOM     22  C   UNL     1       4.202   3.142  -1.448  0.00  0.00    +0.022 C 
BRANCH  22  23
ATOM     23  C   UNL     1       5.548   2.429  -1.301  0.00  0.00    -0.016 C 
ATOM     24  C   UNL     1       5.311   0.968  -0.911  0.00  0.00    +0.007 C 
ATOM     25  C   UNL     1       6.304   2.485  -2.630  0.00  0.00    +0.007 C 
ENDBRANCH  22  23
ENDBRANCH  21  22
ENDBRANCH  10  21
ENDBRANCH   3  10
BRANCH   2  26
ATOM     26  N   UNL     1       0.748   4.548  -2.512  0.00  0.00    -0.343 N 
ATOM     27  H   UNL     1       1.608   4.969  -2.356  0.00  0.00    +0.144 HD
ATOM     28  H   UNL     1       0.169   4.874  -3.219  0.00  0.00    +0.144 HD
ENDBRANCH   2  26
BRANCH   1  29
ATOM     29  C   UNL     1      -1.534   3.110  -3.263  0.00  0.00    +0.128 C 
BRANCH  29  30
ATOM     30  C   UNL     1      -0.983   2.343  -4.467  0.00  0.00    +0.021 C 
BRANCH  30  32
ATOM     31  C   UNL     1      -1.234   1.943  -6.920  0.00  0.00    +0.004 C 
ATOM     32  C   UNL     1      -1.785   2.710  -5.717  0.00  0.00    -0.002 C 
ENDBRANCH  30  32
ENDBRANCH  29  30
ENDBRANCH   1  29
TORSDOF 9
