REMARK  Name = ZINC38740763
REMARK  8 active torsions:
REMARK  status: ('A' for Active; 'I' for Inactive)
REMARK    1  A    between atoms: C_1  and  C_2
REMARK    2  A    between atoms: C_2  and  C_4
REMARK    3  A    between atoms: C_2  and  N_18
REMARK    4  A    between atoms: C_4  and  C_5
REMARK    5  A    between atoms: C_4  and  C_11
REMARK    6  A    between atoms: C_4  and  O_17
REMARK    7  A    between atoms: C_19  and  C_21
REMARK    8  A    between atoms: C_27  and  C_29
REMARK                            x       y       z     vdW  Elec       q    Type
REMARK                         _______ _______ _______ _____ _____    ______ ____
ROOT
ATOM      1  N   UNL     1       0.726  -0.497   1.198  0.00  0.00    -0.309 N 
ATOM      2  C   UNL     1       0.060  -0.646   2.361  0.00  0.00    +0.217 C 
ATOM      3  O   UNL     1      -1.118  -0.366   2.425  0.00  0.00    -0.275 OA
ATOM      4  H   UNL     1       1.668  -0.722   1.147  0.00  0.00    +0.149 HD
ENDROOT
BRANCH   2   5
ATOM      5  C   UNL     1       0.780  -1.161   3.581  0.00  0.00    +0.091 C 
ATOM      6  C   UNL     1       1.925  -0.212   3.942  0.00  0.00    +0.040 C 
ATOM      7  C   UNL     1       2.479  -0.561   5.292  0.00  0.00    -0.030 C 
ATOM      8  C   UNL     1       1.863  -1.296   6.161  0.00  0.00    -0.030 C 
ATOM      9  C   UNL     1       0.513  -1.911   5.936  0.00  0.00    +0.040 C 
ATOM     10  C   UNL     1      -0.194  -1.227   4.764  0.00  0.00    +0.091 C 
BRANCH  10  11
ATOM     11  C   UNL     1      -1.415  -2.018   4.372  0.00  0.00    +0.220 C 
ATOM     12  O   UNL     1      -1.346  -2.840   3.484  0.00  0.00    -0.275 OA
ATOM     13  N   UNL     1      -2.585  -1.810   5.009  0.00  0.00    -0.298 N 
ATOM     14  C   UNL     1      -2.711  -0.745   6.013  0.00  0.00    +0.126 C 
ATOM     15  C   UNL     1      -3.876   0.170   5.613  0.00  0.00    +0.125 C 
ATOM     16  N   UNL     1      -5.048  -0.666   5.316  0.00  0.00    -0.314 N 
ATOM     17  C   UNL     1      -4.922  -1.732   4.312  0.00  0.00    +0.125 C 
ATOM     18  C   UNL     1      -3.758  -2.642   4.707  0.00  0.00    +0.126 C 
ATOM     19  C   UNL     1      -6.254  -0.452   5.973  0.00  0.00    +0.099 A 
ATOM     20  C   UNL     1      -6.394   0.643   6.819  0.00  0.00    +0.042 A 
ATOM     21  C   UNL     1      -7.600   0.844   7.466  0.00  0.00    +0.005 A 
ATOM     22  C   UNL     1      -8.630  -0.061   7.244  0.00  0.00    +0.018 A 
ATOM     23  C   UNL     1      -8.422  -1.127   6.392  0.00  0.00    +0.084 A 
ATOM     24  N   UNL     1      -7.262  -1.290   5.783  0.00  0.00    -0.350 N 
ATOM     25  H   UNL     1      -7.144  -2.045   5.186  0.00  0.00    +0.166 HD
ENDBRANCH  10  11
ENDBRANCH   2   5
BRANCH   1  27
ATOM     26  C   UNL     1       0.017   1.534   0.034  0.00  0.00    +0.031 C 
ATOM     27  C   UNL     1       0.026   0.004   0.013  0.00  0.00    +0.110 C 
BRANCH  27  28
ATOM     28  C   UNL     1       0.744  -0.484  -1.247  0.00  0.00    +0.134 C 
BRANCH  28  29
ATOM     29  C   UNL     1       0.753  -1.991  -1.268  0.00  0.00    -0.010 A 
ATOM     30  C   UNL     1      -0.279  -2.697  -0.679  0.00  0.00    +0.007 A 
ATOM     31  C   UNL     1      -0.271  -4.079  -0.699  0.00  0.00    +0.000 A 
ATOM     32  C   UNL     1       0.769  -4.755  -1.308  0.00  0.00    +0.000 A 
ATOM     33  C   UNL     1       1.801  -4.050  -1.897  0.00  0.00    +0.000 A 
ATOM     34  C   UNL     1       1.791  -2.667  -1.882  0.00  0.00    +0.007 A 
ENDBRANCH  28  29
BRANCH  28  35
ATOM     35  C   UNL     1       0.024   0.031  -2.467  0.00  0.00    -0.010 A 
ATOM     36  C   UNL     1      -1.339   0.258  -2.421  0.00  0.00    +0.007 A 
ATOM     37  C   UNL     1      -1.999   0.731  -3.539  0.00  0.00    +0.000 A 
ATOM     38  C   UNL     1      -1.296   0.977  -4.704  0.00  0.00    +0.000 A 
ATOM     39  C   UNL     1       0.067   0.750  -4.750  0.00  0.00    +0.000 A 
ATOM     40  C   UNL     1       0.728   0.282  -3.630  0.00  0.00    +0.007 A 
ENDBRANCH  28  35
BRANCH  28  41
ATOM     41  O   UNL     1       2.088   0.000  -1.247  0.00  0.00    -0.377 OA
ATOM     42  H   UNL     1       2.612  -0.293  -0.489  0.00  0.00    +0.211 HD
ENDBRANCH  28  41
ENDBRANCH  27  28
ENDBRANCH   1  27
TORSDOF 7
