REMARK  Name = ZINC59501043
REMARK  5 active torsions:
REMARK  status: ('A' for Active; 'I' for Inactive)
REMARK    1  A    between atoms: C_1  and  C_2
REMARK    2  A    between atoms: C_6  and  C_37
REMARK    3  A    between atoms: C_8  and  N_12
REMARK    4  A    between atoms: C_15  and  C_28
REMARK    5  A    between atoms: C_31  and  N_34
REMARK                            x       y       z     vdW  Elec       q    Type
REMARK                         _______ _______ _______ _____ _____    ______ ____
ROOT
ATOM      1  N   UNL     1       0.087  -4.812   3.438  0.00  0.00    -0.181 NA
ATOM      2  C   UNL     1       0.006  -6.125   3.425  0.00  0.00    +0.188 C 
ATOM      3  N   UNL     1      -0.089  -6.854   4.595  0.00  0.00    -0.306 N 
ATOM      4  C   UNL     1       0.873  -7.955   4.797  0.00  0.00    +0.139 C 
ATOM      5  C   UNL     1       1.074  -8.626   3.457  0.00  0.00    +0.046 C 
ATOM      6  C   UNL     1       0.658  -8.064   2.276  0.00  0.00    +0.050 C 
ATOM      7  N   UNL     1       0.006  -6.841   2.236  0.00  0.00    -0.286 N 
ATOM      8  C   UNL     1       1.011  -8.960   1.171  0.00  0.00    +0.007 A 
ATOM      9  C   UNL     1       0.822  -8.861  -0.199  0.00  0.00    +0.010 A 
ATOM     10  C   UNL     1       1.290  -9.920  -0.982  0.00  0.00    +0.001 A 
ATOM     11  C   UNL     1       1.912 -11.014  -0.429  0.00  0.00    +0.001 A 
ATOM     12  C   UNL     1       2.112 -11.130   0.951  0.00  0.00    +0.012 A 
ATOM     13  C   UNL     1       1.653 -10.091   1.737  0.00  0.00    +0.031 A 
ATOM     14  C   UNL     1       1.689  -9.871   3.200  0.00  0.00    +0.194 C 
ATOM     15  O   UNL     1       2.161 -10.625   4.029  0.00  0.00    -0.287 OA
ATOM     16  H   UNL     1      -0.419  -6.506   1.431  0.00  0.00    +0.155 HD
ATOM     17  H   UNL     1      -0.765  -6.651   5.260  0.00  0.00    +0.150 HD
ENDROOT
BRANCH   1  25
ATOM     18  C   UNL     1       1.600  -4.921  -3.586  0.00  0.00    +0.044 C 
ATOM     19  C   UNL     1       1.302  -4.175  -2.310  0.00  0.00    -0.048 A 
ATOM     20  C   UNL     1       1.261  -2.783  -2.324  0.00  0.00    +0.004 A 
ATOM     21  C   UNL     1       0.995  -2.078  -1.189  0.00  0.00    +0.012 A 
ATOM     22  C   UNL     1       0.759  -2.764   0.011  0.00  0.00    +0.022 A 
ATOM     23  C   UNL     1       0.479  -2.087   1.214  0.00  0.00    +0.051 A 
ATOM     24  N   UNL     1       0.268  -2.797   2.300  0.00  0.00    -0.215 NA
ATOM     25  C   UNL     1       0.314  -4.133   2.282  0.00  0.00    +0.254 A 
ATOM     26  N   UNL     1       0.573  -4.821   1.180  0.00  0.00    -0.211 NA
ATOM     27  C   UNL     1       0.801  -4.182   0.027  0.00  0.00    +0.077 A 
ATOM     28  C   UNL     1       1.073  -4.874  -1.163  0.00  0.00    +0.032 A 
ATOM     29  C   UNL     1       0.423  -0.581   1.256  0.00  0.00    +0.066 C 
ENDBRANCH   1  25
BRANCH   4  30
ATOM     30  C   UNL     1       2.183  -7.404   5.298  0.00  0.00    -0.023 A 
ATOM     31  C   UNL     1       2.678  -6.220   4.784  0.00  0.00    +0.008 A 
ATOM     32  C   UNL     1       3.880  -5.715   5.244  0.00  0.00    +0.033 A 
ATOM     33  C   UNL     1       4.587  -6.394   6.219  0.00  0.00    +0.126 A 
ATOM     34  C   UNL     1       4.092  -7.577   6.734  0.00  0.00    +0.033 A 
ATOM     35  C   UNL     1       2.888  -8.080   6.277  0.00  0.00    +0.008 A 
BRANCH  33  36
ATOM     36  N   UNL     1       5.874  -5.854   6.711  0.00  0.00    +0.056 N 
ATOM     37  O   UNL     1       6.307  -4.819   6.260  0.00  0.00    -0.126 OA
ATOM     38  O   UNL     1       6.492  -6.447   7.564  0.00  0.00    -0.126 OA
ENDBRANCH  33  36
ENDBRANCH   4  30
TORSDOF 3
