REMARK  Name = ZINC61609390
REMARK  5 active torsions:
REMARK  status: ('A' for Active; 'I' for Inactive)
REMARK    1  A    between atoms: C_4  and  C_7
REMARK    2  A    between atoms: C_7  and  C_9
REMARK    3  A    between atoms: C_7  and  C_11
REMARK    4  A    between atoms: C_9  and  N_10
REMARK    5  A    between atoms: C_13  and  C_16
REMARK                            x       y       z     vdW  Elec       q    Type
REMARK                         _______ _______ _______ _____ _____    ______ ____
ROOT
ATOM      1  C   UNL     1       3.711  -0.707  -0.038  0.00  0.00    +0.090 C 
ENDROOT
BRANCH   1   5
ATOM      2  C   UNL     1      -0.017   1.378   0.010  0.00  0.00    +0.000 A 
ATOM      3  C   UNL     1       1.171   2.086   0.002  0.00  0.00    +0.000 A 
ATOM      4  C   UNL     1       2.377   1.411  -0.013  0.00  0.00    +0.004 A 
ATOM      5  C   UNL     1       2.396   0.029  -0.020  0.00  0.00    -0.037 A 
ATOM      6  C   UNL     1       1.208  -0.679  -0.012  0.00  0.00    +0.004 A 
ATOM      7  C   UNL     1       0.002  -0.004   0.002  0.00  0.00    +0.000 A 
ENDBRANCH   1   5
BRANCH   1   8
ATOM      8  C   UNL     1       3.816  -1.579   1.188  0.00  0.00    +0.233 A 
ATOM      9  N   UNL     1       4.733  -1.491   2.108  0.00  0.00    -0.191 NA
ATOM     10  C   UNL     1       4.524  -2.421   3.056  0.00  0.00    +0.202 A 
ATOM     11  N   UNL     1       3.458  -3.112   2.737  0.00  0.00    -0.056 NA
ATOM     12  O   UNL     1       2.977  -2.569   1.517  0.00  0.00    -0.337 OA
BRANCH  10  13
ATOM     13  C   UNL     1       5.362  -2.631   4.263  0.00  0.00    +0.023 A 
ATOM     14  C   UNL     1       6.473  -1.821   4.492  0.00  0.00    +0.013 A 
ATOM     15  C   UNL     1       7.250  -2.020   5.615  0.00  0.00    +0.016 A 
ATOM     16  C   UNL     1       6.926  -3.021   6.514  0.00  0.00    +0.018 A 
ATOM     17  C   UNL     1       5.824  -3.828   6.292  0.00  0.00    +0.016 A 
ATOM     18  C   UNL     1       5.038  -3.634   5.174  0.00  0.00    +0.013 A 
ATOM     19 BR   UNL     1       7.995  -3.288   8.052  0.00  0.00    -0.050 Br
ENDBRANCH  10  13
ENDBRANCH   1   8
BRANCH   1  20
ATOM     20  C   UNL     1       3.791  -1.579  -1.292  0.00  0.00    -0.069 C 
BRANCH  20  21
ATOM     21  N   UNL     1       3.810  -0.722  -2.485  0.00  0.00    +0.379 N 
ATOM     22  H   UNL     1       3.862  -1.297  -3.312  0.00  0.00    -0.090 HD
ATOM     23  H   UNL     1       2.967  -0.167  -2.513  0.00  0.00    -0.090 HD
ATOM     24  H   UNL     1       4.612  -0.111  -2.447  0.00  0.00    -0.090 HD
ENDBRANCH  20  21
ENDBRANCH   1  20
TORSDOF 5
