REMARK  Name = ZINC20862405
REMARK  2 active torsions:
REMARK  status: ('A' for Active; 'I' for Inactive)
REMARK    1  A    between atoms: C_8  and  C_11
REMARK    2  A    between atoms: C_22  and  C_24
REMARK                            x       y       z     vdW  Elec       q    Type
REMARK                         _______ _______ _______ _____ _____    ______ ____
ROOT
ATOM      1  C   UNL     1       1.336  -0.670   1.913  0.00  0.00    +0.257 C 
ATOM      2  O   UNL     1       0.369  -0.387   2.588  0.00  0.00    -0.271 OA
ATOM      3  N   UNL     1       2.443  -1.168   2.497  0.00  0.00    -0.284 N 
ATOM      4  C   UNL     1       3.624  -1.523   1.695  0.00  0.00    +0.115 C 
ATOM      5  C   UNL     1       3.870  -3.029   1.788  0.00  0.00    +0.076 C 
ATOM      6  C   UNL     1       3.741  -3.456   3.229  0.00  0.00    +0.066 A 
ATOM      7  C   UNL     1       3.131  -2.727   4.189  0.00  0.00    +0.065 A 
ATOM      8  N   UNL     1       3.208  -3.439   5.345  0.00  0.00    -0.346 N 
ATOM      9  H   UNL     1       2.769  -3.036   6.270  0.00  0.00    +0.167 HD
ATOM     10  C   UNL     1       3.868  -4.585   5.060  0.00  0.00    +0.197 A 
ATOM     11  N   UNL     1       4.183  -4.585   3.791  0.00  0.00    -0.240 NA
ATOM     12  C   UNL     1       2.500  -1.378   3.955  0.00  0.00    +0.173 C 
ENDROOT
BRANCH   1  20
ATOM     13  C   UNL     1       0.402   4.105   0.006  0.00  0.00    +0.000 A 
ATOM     14  C   UNL     1      -0.885   3.598   0.021  0.00  0.00    +0.004 A 
ATOM     15  C   UNL     1      -1.097   2.236   0.019  0.00  0.00    +0.046 A 
ATOM     16  C   UNL     1      -0.016   1.357   0.009  0.00  0.00    +0.125 A 
ATOM     17  C   UNL     1       1.271   1.878   0.000  0.00  0.00    -0.002 A 
ATOM     18  C   UNL     1       1.481   3.239  -0.005  0.00  0.00    +0.007 A 
ATOM     19  C   UNL     1       2.227   0.701   0.001  0.00  0.00    +0.093 C 
ATOM     20  C   UNL     1       1.298  -0.464   0.420  0.00  0.00    +0.263 C 
ATOM     21  O   UNL     1       0.002  -0.004   0.002  0.00  0.00    -0.479 OA
ENDBRANCH   1  20
BRANCH  12  22
ATOM     22  C   UNL     1       3.339  -0.302   4.596  0.00  0.00    +0.068 A 
ATOM     23  C   UNL     1       3.130   0.029   5.922  0.00  0.00    +0.025 A 
ATOM     24  C   UNL     1       3.907   1.020   6.501  0.00  0.00    +0.003 A 
ATOM     25  C   UNL     1       4.869   1.644   5.722  0.00  0.00    +0.020 A 
ATOM     26  C   UNL     1       5.021   1.261   4.403  0.00  0.00    +0.111 A 
ATOM     27  N   UNL     1       4.267   0.310   3.886  0.00  0.00    -0.258 NA
ENDBRANCH  12  22
TORSDOF 2
