REMARK  Name = ZINC02093952
REMARK  10 active torsions:
REMARK  status: ('A' for Active; 'I' for Inactive)
REMARK    1  A    between atoms: C_1  and  C_2
REMARK    2  A    between atoms: C_2  and  O_3
REMARK    3  A    between atoms: O_3  and  C_4
REMARK    4  A    between atoms: C_6  and  C_20
REMARK    5  A    between atoms: C_9  and  O_10
REMARK    6  A    between atoms: O_10  and  C_11
REMARK    7  A    between atoms: C_11  and  C_12
REMARK    8  A    between atoms: C_20  and  N_21
REMARK    9  A    between atoms: N_21  and  C_22
REMARK   10  A    between atoms: C_25  and  C_29
REMARK                            x       y       z     vdW  Elec       q    Type
REMARK                         _______ _______ _______ _____ _____    ______ ____
ROOT
ATOM      1  C   UNL     1      -0.567  -4.260  -1.216  0.00  0.00    +0.163 A 
ATOM      2  C   UNL     1      -0.843  -2.902  -1.204  0.00  0.00    +0.054 A 
ATOM      3  C   UNL     1      -0.961  -2.232  -0.001  0.00  0.00    -0.026 A 
ATOM      4  C   UNL     1      -0.815  -2.914   1.192  0.00  0.00    +0.024 A 
ATOM      5  C   UNL     1      -0.544  -4.271   1.188  0.00  0.00    +0.063 A 
ATOM      6  C   UNL     1      -0.419  -4.948  -0.015  0.00  0.00    +0.176 A 
ATOM      7 BR   UNL     1      -0.343  -5.201   2.822  0.00  0.00    -0.046 Br
ENDROOT
BRANCH   1   8
ATOM      8  O   UNL     1      -0.445  -4.920  -2.399  0.00  0.00    -0.489 OA
BRANCH   8  10
ATOM      9  C   UNL     1      -0.439  -5.057  -4.811  0.00  0.00    +0.048 C 
ATOM     10  C   UNL     1      -0.609  -4.150  -3.591  0.00  0.00    +0.226 C 
ENDBRANCH   8  10
ENDBRANCH   1   8
BRANCH   6  11
ATOM     11  O   UNL     1      -0.153  -6.282  -0.022  0.00  0.00    -0.483 OA
BRANCH  11  12
ATOM     12  C   UNL     1      -1.275  -7.167  -0.015  0.00  0.00    +0.264 C 
BRANCH  12  13
ATOM     13  C   UNL     1      -0.789  -8.594  -0.024  0.00  0.00    -0.010 A 
ATOM     14  C   UNL     1      -0.583  -9.245  -1.226  0.00  0.00    +0.008 A 
ATOM     15  C   UNL     1      -0.132 -10.552  -1.235  0.00  0.00    +0.020 A 
ATOM     16  C   UNL     1       0.102 -11.211  -0.041  0.00  0.00    +0.041 A 
ATOM     17  C   UNL     1      -0.111 -10.560   1.161  0.00  0.00    +0.020 A 
ATOM     18  C   UNL     1      -0.556  -9.252   1.169  0.00  0.00    +0.008 A 
ATOM     19 CL   UNL     1       0.661 -12.854  -0.052  0.00  0.00    -0.084 Cl
ENDBRANCH  12  13
ENDBRANCH  11  12
ENDBRANCH   6  11
BRANCH   3  20
ATOM     20  C   UNL     1      -1.256  -0.754   0.010  0.00  0.00    +0.137 C 
BRANCH  20  21
ATOM     21  N   UNL     1       0.002  -0.004   0.002  0.00  0.00    -0.340 N 
ATOM     22  H   UNL     1       0.849  -0.478  -0.009  0.00  0.00    +0.146 HD
BRANCH  21  23
ATOM     23  C   UNL     1      -0.017   1.393   0.010  0.00  0.00    +0.029 A 
ATOM     24  C   UNL     1      -1.229   2.072   0.019  0.00  0.00    +0.023 A 
ATOM     25  C   UNL     1      -1.244   3.453   0.033  0.00  0.00    +0.006 A 
ATOM     26  C   UNL     1      -0.056   4.160   0.025  0.00  0.00    -0.032 A 
ATOM     27  C   UNL     1       1.153   3.487   0.010  0.00  0.00    +0.046 A 
ATOM     28  C   UNL     1       1.175   2.105   0.002  0.00  0.00    +0.043 A 
ATOM     29 CL   UNL     1       2.642   4.378   0.001  0.00  0.00    -0.083 Cl
ATOM     30  C   UNL     1      -0.077   5.667   0.033  0.00  0.00    +0.045 C 
ENDBRANCH  21  23
ENDBRANCH  20  21
ENDBRANCH   3  20
TORSDOF 8
