REMARK  Name = ZINC53620115
REMARK  6 active torsions:
REMARK  status: ('A' for Active; 'I' for Inactive)
REMARK    1  A    between atoms: C_1  and  C_2
REMARK    2  A    between atoms: C_4  and  C_7
REMARK    3  A    between atoms: N_10  and  C_13
REMARK    4  A    between atoms: C_13  and  C_14
REMARK    5  A    between atoms: N_16  and  C_17
REMARK    6  A    between atoms: C_17  and  C_18
REMARK                            x       y       z     vdW  Elec       q    Type
REMARK                         _______ _______ _______ _____ _____    ______ ____
ROOT
ATOM      1  C   UNL     1       1.329  -8.106  -2.581  0.00  0.00    +0.196 C 
ATOM      2  O   UNL     1       2.045  -7.758  -1.666  0.00  0.00    -0.278 OA
ATOM      3  N   UNL     1       1.544  -9.287  -3.194  0.00  0.00    -0.316 N 
ATOM      4  H   UNL     1       0.971  -9.565  -3.926  0.00  0.00    +0.149 HD
ENDROOT
BRANCH   1   5
ATOM      5  C   UNL     1       0.198  -7.218  -3.033  0.00  0.00    +0.019 C 
BRANCH   5   9
ATOM      6  C   UNL     1       0.203  -3.126  -1.843  0.00  0.00    +0.074 C 
ATOM      7  C   UNL     1      -1.069  -3.960  -1.667  0.00  0.00    -0.006 C 
ATOM      8  C   UNL     1      -0.996  -5.191  -2.573  0.00  0.00    -0.077 C 
ATOM      9  N   UNL     1       0.175  -5.999  -2.213  0.00  0.00    +0.385 N 
ATOM     10  C   UNL     1       1.403  -5.230  -2.448  0.00  0.00    -0.077 C 
ATOM     11  C   UNL     1       1.422  -4.001  -1.537  0.00  0.00    -0.006 C 
ATOM     12  H   UNL     1       0.120  -6.253  -1.238  0.00  0.00    -0.081 HD
BRANCH   6  16
ATOM     13  C   UNL     1       0.196   1.583  -0.135  0.00  0.00    +0.091 C 
ATOM     14  C   UNL     1       0.168   0.076  -0.144  0.00  0.00    +0.169 A 
ATOM     15  N   UNL     1       0.214  -0.696  -1.236  0.00  0.00    -0.196 NA
ATOM     16  C   UNL     1       0.172  -1.954  -0.896  0.00  0.00    +0.230 A 
ATOM     17  O   UNL     1       0.098  -2.026   0.439  0.00  0.00    -0.338 OA
ATOM     18  N   UNL     1       0.102  -0.686   0.909  0.00  0.00    -0.062 NA
ENDBRANCH   6  16
ENDBRANCH   5   9
ENDBRANCH   1   5
BRANCH   3  19
ATOM     19  C   UNL     1       2.643 -10.151  -2.755  0.00  0.00    +0.112 C 
BRANCH  19  20
ATOM     20  C   UNL     1       2.588 -11.475  -3.519  0.00  0.00    +0.036 C 
ATOM     21  C   UNL     1       1.282 -12.194  -3.188  0.00  0.00    +0.010 C 
ATOM     22  C   UNL     1       1.341 -13.605  -3.785  0.00  0.00    +0.005 C 
ATOM     23  C   UNL     1       2.365 -14.419  -2.995  0.00  0.00    +0.035 C 
ATOM     24  C   UNL     1       3.670 -13.674  -2.895  0.00  0.00    -0.044 A 
ATOM     25  C   UNL     1       3.772 -12.322  -3.132  0.00  0.00    -0.040 A 
ATOM     26  C   UNL     1       5.005 -11.694  -3.016  0.00  0.00    +0.004 A 
ATOM     27  C   UNL     1       6.129 -12.415  -2.669  0.00  0.00    +0.000 A 
ATOM     28  C   UNL     1       6.028 -13.774  -2.435  0.00  0.00    +0.000 A 
ATOM     29  C   UNL     1       4.803 -14.399  -2.548  0.00  0.00    +0.004 A 
ENDBRANCH  19  20
ENDBRANCH   3  19
TORSDOF 5
