REMARK  Name = ZINC58846543
REMARK  8 active torsions:
REMARK  status: ('A' for Active; 'I' for Inactive)
REMARK    1  A    between atoms: C_1  and  C_2
REMARK    2  A    between atoms: C_5  and  N_9
REMARK    3  A    between atoms: C_7  and  C_8
REMARK    4  A    between atoms: N_9  and  S_10
REMARK    5  A    between atoms: S_10  and  C_13
REMARK    6  A    between atoms: C_26  and  C_29
REMARK    7  A    between atoms: C_34  and  O_35
REMARK    8  A    between atoms: O_35  and  C_36
REMARK                            x       y       z     vdW  Elec       q    Type
REMARK                         _______ _______ _______ _____ _____    ______ ____
ROOT
ATOM      1  C   UNL     1       2.568  -5.184  -0.022  0.00  0.00    +0.109 A 
ATOM      2  C   UNL     1       3.062  -4.099  -0.723  0.00  0.00    +0.030 A 
ATOM      3  C   UNL     1       4.356  -3.672  -0.500  0.00  0.00    +0.025 A 
ATOM      4  C   UNL     1       5.158  -4.328   0.427  0.00  0.00    +0.031 A 
ATOM      5  C   UNL     1       4.660  -5.407   1.140  0.00  0.00    -0.018 A 
ATOM      6  C   UNL     1       3.359  -5.830   0.906  0.00  0.00    +0.034 A 
ATOM      7  C   UNL     1       5.476  -6.111   2.171  0.00  0.00    +0.049 C 
ATOM      8  C   UNL     1       5.999  -7.434   1.675  0.00  0.00    -0.023 C 
ATOM      9  C   UNL     1       7.198  -7.656   2.153  0.00  0.00    -0.030 C 
ATOM     10  C   UNL     1       7.650  -6.510   3.031  0.00  0.00    +0.033 C 
ATOM     11  C   UNL     1       6.716  -5.345   2.628  0.00  0.00    +0.029 C 
ATOM     12  C   UNL     1       7.391  -4.560   1.521  0.00  0.00    +0.108 C 
ATOM     13  N   UNL     1       6.465  -3.897   0.627  0.00  0.00    -0.336 N 
ATOM     14  H   UNL     1       6.778  -3.129   0.125  0.00  0.00    +0.147 HD
ENDROOT
BRANCH  12  15
ATOM     15  C   UNL     1       8.270  -5.499   0.736  0.00  0.00    +0.015 A 
ATOM     16  C   UNL     1       9.615  -5.598   1.034  0.00  0.00    +0.009 A 
ATOM     17  C   UNL     1      10.422  -6.459   0.314  0.00  0.00    +0.001 A 
ATOM     18  C   UNL     1       9.886  -7.223  -0.707  0.00  0.00    +0.004 A 
ATOM     19  C   UNL     1       8.541  -7.127  -1.009  0.00  0.00    +0.046 A 
ATOM     20  C   UNL     1       7.728  -6.268  -0.284  0.00  0.00    +0.125 A 
BRANCH  20  21
ATOM     21  O   UNL     1       6.404  -6.176  -0.575  0.00  0.00    -0.495 OA
ATOM     22  C   UNL     1       5.915  -6.997  -1.637  0.00  0.00    +0.277 C 
ENDBRANCH  20  21
ENDBRANCH  12  15
BRANCH   1  23
ATOM     23  S   UNL     1       0.920  -5.739  -0.310  0.00  0.00    +0.072 S 
ATOM     24  O   UNL     1       0.878  -7.105   0.081  0.00  0.00    -0.150 OA
ATOM     25  O   UNL     1       0.570  -5.309  -1.618  0.00  0.00    -0.150 OA
BRANCH  23  26
ATOM     26  N   UNL     1      -0.063  -4.916   0.739  0.00  0.00    -0.216 N 
ATOM     27  H   UNL     1      -0.539  -5.396   1.434  0.00  0.00    +0.174 HD
BRANCH  26  32
ATOM     28  C   UNL     1      -0.649   0.704   0.260  0.00  0.00    +0.044 C 
ATOM     29  C   UNL     1      -0.493  -0.790   0.387  0.00  0.00    -0.047 A 
ATOM     30  C   UNL     1      -0.546  -1.588  -0.742  0.00  0.00    +0.005 A 
ATOM     31  C   UNL     1      -0.403  -2.957  -0.629  0.00  0.00    +0.025 A 
ATOM     32  C   UNL     1      -0.207  -3.532   0.621  0.00  0.00    +0.048 A 
ATOM     33  C   UNL     1      -0.155  -2.728   1.752  0.00  0.00    +0.028 A 
ATOM     34  C   UNL     1      -0.292  -1.359   1.631  0.00  0.00    -0.046 A 
ATOM     35  C   UNL     1      -0.230  -0.485   2.857  0.00  0.00    +0.044 C 
ENDBRANCH  26  32
ENDBRANCH  23  26
ENDBRANCH   1  23
TORSDOF 5
