REMARK  Name = ZINC22553905
REMARK  12 active torsions:
REMARK  status: ('A' for Active; 'I' for Inactive)
REMARK    1  A    between atoms: C_1  and  C_2
REMARK    2  A    between atoms: C_5  and  C_8
REMARK    3  A    between atoms: C_8  and  N_9
REMARK    4  A    between atoms: C_10  and  C_36
REMARK    5  A    between atoms: C_10  and  C_37
REMARK    6  A    between atoms: N_11  and  N_33
REMARK    7  A    between atoms: N_14  and  C_15
REMARK    8  A    between atoms: C_18  and  N_21
REMARK    9  A    between atoms: N_22  and  C_23
REMARK   10  A    between atoms: C_26  and  S_29
REMARK   11  A    between atoms: N_33  and  C_34
REMARK   12  A    between atoms: N_33  and  C_35
REMARK                            x       y       z     vdW  Elec       q    Type
REMARK                         _______ _______ _______ _____ _____    ______ ____
ROOT
ATOM      1  N   UNL     1      -6.792   4.860  10.469  0.00  0.00    -0.191 NA
ATOM      2  C   UNL     1      -7.317   5.604  11.629  0.00  0.00    +0.116 C 
ATOM      3  N   UNL     1      -6.404   6.745  11.794  0.00  0.00    -0.216 N 
ATOM      4  C   UNL     1      -5.452   6.635  10.810  0.00  0.00    +0.191 C 
ATOM      5  N   UNL     1      -4.466   7.470  10.635  0.00  0.00    -0.372 N 
ATOM      6  N   UNL     1      -5.682   5.527  10.039  0.00  0.00    -0.203 N 
ATOM      7  C   UNL     1      -7.302   4.725  12.881  0.00  0.00    +0.052 C 
ATOM      8  C   UNL     1      -8.737   6.096  11.343  0.00  0.00    +0.052 C 
ATOM      9  H   UNL     1      -3.746   7.307   9.820  0.00  0.00    +0.158 HD
ATOM     10  H   UNL     1      -4.355   8.338  11.302  0.00  0.00    +0.158 HD
ENDROOT
BRANCH   6  11
ATOM     11  C   UNL     1      -4.893   5.136   8.957  0.00  0.00    +0.053 A 
ATOM     12  C   UNL     1      -4.457   3.819   8.856  0.00  0.00    +0.027 A 
ATOM     13  C   UNL     1      -3.677   3.429   7.790  0.00  0.00    +0.031 A 
ATOM     14  C   UNL     1      -3.324   4.361   6.807  0.00  0.00    +0.086 A 
ATOM     15  C   UNL     1      -3.760   5.685   6.915  0.00  0.00    +0.031 A 
ATOM     16  C   UNL     1      -4.544   6.065   7.981  0.00  0.00    +0.027 A 
BRANCH  14  17
ATOM     17  N   UNL     1      -2.551   3.979   5.750  0.00  0.00    -0.149 NA
ATOM     18  N   UNL     1      -2.226   4.839   4.844  0.00  0.00    -0.149 NA
BRANCH  18  19
ATOM     19  C   UNL     1      -1.452   4.456   3.785  0.00  0.00    +0.086 A 
ATOM     20  C   UNL     1      -1.098   5.385   2.802  0.00  0.00    +0.031 A 
ATOM     21  C   UNL     1      -0.317   4.992   1.736  0.00  0.00    +0.032 A 
ATOM     22  C   UNL     1       0.117   3.682   1.638  0.00  0.00    +0.120 A 
ATOM     23  C   UNL     1      -0.233   2.755   2.604  0.00  0.00    +0.032 A 
ATOM     24  C   UNL     1      -1.010   3.135   3.679  0.00  0.00    +0.031 A 
BRANCH  22  25
ATOM     25  S   UNL     1       1.116   3.189   0.272  0.00  0.00    +0.140 S 
ATOM     26  O   UNL     1       0.847   4.106  -0.779  0.00  0.00    -0.140 OA
ATOM     27  O   UNL     1       0.938   1.787   0.124  0.00  0.00    -0.140 OA
ATOM     28  O   UNL     1       2.568   3.403   0.676  0.00  0.00    -0.043 OA
ENDBRANCH  22  25
ENDBRANCH  18  19
ENDBRANCH  14  17
ENDBRANCH   6  11
BRANCH   3  29
ATOM     29  N   UNL     1      -6.487   7.724  12.743  0.00  0.00    -0.229 NA
ATOM     30  C   UNL     1      -5.280   7.751  13.579  0.00  0.00    +0.127 C 
ATOM     31  C   UNL     1      -6.730   9.035  12.127  0.00  0.00    +0.127 C 
ENDBRANCH   3  29
BRANCH   1  32
ATOM     32  C   UNL     1      -7.796   4.766   9.402  0.00  0.00    +0.143 C 
BRANCH  32  37
ATOM     33  C   UNL     1      -5.904   1.176   5.287  0.00  0.00    +0.044 C 
ATOM     34  C   UNL     1      -6.398   2.112   6.360  0.00  0.00    -0.050 A 
ATOM     35  C   UNL     1      -6.908   1.604   7.540  0.00  0.00    +0.003 A 
ATOM     36  C   UNL     1      -7.360   2.462   8.524  0.00  0.00    +0.005 A 
ATOM     37  C   UNL     1      -7.303   3.830   8.329  0.00  0.00    -0.032 A 
ATOM     38  C   UNL     1      -6.799   4.338   7.146  0.00  0.00    +0.005 A 
ATOM     39  C   UNL     1      -6.342   3.479   6.164  0.00  0.00    +0.003 A 
ENDBRANCH  32  37
ENDBRANCH   1  32
TORSDOF 7
