REMARK  Name = ZINC32986821
REMARK  3 active torsions:
REMARK  status: ('A' for Active; 'I' for Inactive)
REMARK    1  A    between atoms: C_5  and  C_7
REMARK    2  A    between atoms: N_19  and  C_20
REMARK    3  A    between atoms: C_20  and  C_21
REMARK                            x       y       z     vdW  Elec       q    Type
REMARK                         _______ _______ _______ _____ _____    ______ ____
ROOT
ATOM      1  C   UNL     1       2.407   4.246   2.159  0.00  0.00    +0.196 C 
ATOM      2  N   UNL     1       2.339   3.419   3.361  0.00  0.00    -0.322 N 
ATOM      3  C   UNL     1       1.256   3.429   4.237  0.00  0.00    +0.055 A 
ATOM      4  C   UNL     1       1.447   2.991   5.546  0.00  0.00    +0.025 A 
ATOM      5  C   UNL     1       0.391   2.974   6.433  0.00  0.00    +0.002 A 
ATOM      6  C   UNL     1      -0.865   3.388   6.030  0.00  0.00    +0.002 A 
ATOM      7  C   UNL     1      -1.061   3.830   4.734  0.00  0.00    +0.030 A 
ATOM      8  C   UNL     1      -0.005   3.857   3.847  0.00  0.00    +0.126 A 
ATOM      9  S   UNL     1      -0.251   4.467   2.201  0.00  0.00    +0.065 S 
ATOM     10  O   UNL     1      -0.300   5.885   2.283  0.00  0.00    -0.153 OA
ATOM     11  O   UNL     1      -1.292   3.692   1.623  0.00  0.00    -0.153 OA
ATOM     12  N   UNL     1       1.155   4.073   1.394  0.00  0.00    -0.148 NA
ATOM     13  H   UNL     1       3.171   2.744   3.612  0.00  0.00    +0.148 HD
ENDROOT
BRANCH   1  18
ATOM     14  C   UNL     1       2.107   8.009   2.149  0.00  0.00    +0.000 A 
ATOM     15  C   UNL     1       2.864   8.350   3.254  0.00  0.00    +0.001 A 
ATOM     16  C   UNL     1       3.474   7.363   4.005  0.00  0.00    +0.020 A 
ATOM     17  C   UNL     1       3.326   6.034   3.651  0.00  0.00    +0.047 A 
ATOM     18  C   UNL     1       2.568   5.693   2.545  0.00  0.00    +0.007 A 
ATOM     19  C   UNL     1       1.962   6.682   1.792  0.00  0.00    +0.008 A 
ATOM     20 CL   UNL     1       4.093   4.794   4.594  0.00  0.00    -0.083 Cl
ENDBRANCH   1  18
BRANCH  12  21
ATOM     21  C   UNL     1       1.149   3.593   0.010  0.00  0.00    +0.147 C 
BRANCH  21  22
ATOM     22  C   UNL     1       1.171   2.086   0.002  0.00  0.00    -0.031 A 
ATOM     23  C   UNL     1      -0.017   1.378   0.010  0.00  0.00    +0.008 A 
ATOM     24  C   UNL     1       0.002  -0.004   0.002  0.00  0.00    +0.038 A 
ATOM     25  C   UNL     1       1.211  -0.679  -0.013  0.00  0.00    +0.123 A 
ATOM     26  C   UNL     1       2.399   0.031  -0.021  0.00  0.00    +0.038 A 
ATOM     27  C   UNL     1       2.378   1.413  -0.013  0.00  0.00    +0.008 A 
ATOM     28  F   UNL     1       1.230  -2.030  -0.020  0.00  0.00    -0.205 F 
ENDBRANCH  21  22
ENDBRANCH  12  21
TORSDOF 3
