REMARK  Name = ZINC13147073
REMARK  8 active torsions:
REMARK  status: ('A' for Active; 'I' for Inactive)
REMARK    1  A    between atoms: C_1  and  C_2
REMARK    2  A    between atoms: N_6  and  N_7
REMARK    3  A    between atoms: C_8  and  C_10
REMARK    4  A    between atoms: C_13  and  C_16
REMARK    5  A    between atoms: C_16  and  S_17
REMARK    6  A    between atoms: S_17  and  C_18
REMARK    7  A    between atoms: C_29  and  C_31
REMARK    8  A    between atoms: C_29  and  C_32
REMARK                            x       y       z     vdW  Elec       q    Type
REMARK                         _______ _______ _______ _____ _____    ______ ____
ROOT
ATOM      1  C   UNL     1      -2.341   6.431   6.197  0.00  0.00    +0.038 A 
ATOM      2  C   UNL     1      -3.626   5.916   6.380  0.00  0.00    +0.013 A 
ATOM      3  C   UNL     1      -4.422   6.403   7.396  0.00  0.00    +0.005 A 
ATOM      4  C   UNL     1      -3.956   7.409   8.224  0.00  0.00    -0.037 A 
ATOM      5  C   UNL     1      -2.686   7.928   8.043  0.00  0.00    +0.005 A 
ATOM      6  C   UNL     1      -1.877   7.446   7.036  0.00  0.00    +0.013 A 
ENDROOT
BRANCH   1   8
ATOM      7  N   UNL     1      -1.931   4.930   4.307  0.00  0.00    -0.203 N 
ATOM      8  C   UNL     1      -1.480   5.910   5.115  0.00  0.00    +0.263 C 
ATOM      9  O   UNL     1      -0.364   6.364   4.955  0.00  0.00    -0.268 OA
ATOM     10  H   UNL     1      -2.822   4.567   4.435  0.00  0.00    +0.178 HD
BRANCH   7  15
ATOM     11  C   UNL     1      -3.726   0.394   3.229  0.00  0.00    +0.008 C 
ATOM     12  C   UNL     1      -2.438   1.189   3.005  0.00  0.00    -0.008 C 
ATOM     13  C   UNL     1      -2.765   2.684   2.934  0.00  0.00    +0.055 C 
ATOM     14  C   UNL     1      -1.502   3.437   2.581  0.00  0.00    +0.038 C 
ATOM     15  N   UNL     1      -1.115   4.436   3.282  0.00  0.00    -0.189 NA
ATOM     16  C   UNL     1      -0.707   2.979   1.378  0.00  0.00    +0.059 C 
ATOM     17  C   UNL     1      -0.454   1.473   1.505  0.00  0.00    -0.029 C 
ATOM     18  C   UNL     1      -1.787   0.748   1.693  0.00  0.00    +0.010 C 
ATOM     19  C   UNL     1       0.232   0.962   0.237  0.00  0.00    +0.011 C 
ATOM     20  C   UNL     1       0.446   1.208   2.714  0.00  0.00    +0.011 C 
ENDBRANCH   7  15
ENDBRANCH   1   8
BRANCH   4  21
ATOM     21  C   UNL     1      -4.834   7.941   9.326  0.00  0.00    +0.112 C 
BRANCH  21  22
ATOM     22  S   UNL     1      -5.817   9.325   8.700  0.00  0.00    -0.083 S 
BRANCH  22  23
ATOM     23  C   UNL     1      -6.723   9.740  10.153  0.00  0.00    +0.168 A 
ATOM     24  N   UNL     1      -7.642  10.747  10.246  0.00  0.00    -0.333 N 
ATOM     25  H   UNL     1      -7.915  11.369   9.512  0.00  0.00    +0.168 HD
ATOM     26  C   UNL     1      -8.124  10.745  11.544  0.00  0.00    +0.067 A 
ATOM     27  C   UNL     1      -9.055  11.515  12.225  0.00  0.00    +0.028 A 
ATOM     28  C   UNL     1      -9.322  11.254  13.553  0.00  0.00    +0.002 A 
ATOM     29  C   UNL     1      -8.666  10.226  14.213  0.00  0.00    +0.002 A 
ATOM     30  C   UNL     1      -7.739   9.451  13.553  0.00  0.00    +0.030 A 
ATOM     31  C   UNL     1      -7.456   9.702  12.208  0.00  0.00    +0.090 A 
ATOM     32  N   UNL     1      -6.620   9.124  11.306  0.00  0.00    -0.222 NA
ENDBRANCH  22  23
ENDBRANCH  21  22
ENDBRANCH   4  21
TORSDOF 5
