REMARK  Name = ZINC65372321
REMARK  3 active torsions:
REMARK  status: ('A' for Active; 'I' for Inactive)
REMARK    1  A    between atoms: N_3  and  C_18
REMARK    2  A    between atoms: C_8  and  C_12
REMARK    3  A    between atoms: N_14  and  C_15
REMARK                            x       y       z     vdW  Elec       q    Type
REMARK                         _______ _______ _______ _____ _____    ______ ____
ROOT
ATOM      1  C   UNL     1      -0.018   1.475   0.010  0.00  0.00    +0.032 C 
ATOM      2  C   UNL     1       1.375   2.100   0.000  0.00  0.00    +0.088 C 
ATOM      3  N   UNL     1       1.870   2.176   1.351  0.00  0.00    -0.275 NA
ATOM      4  C   UNL     1       2.730   1.004   1.699  0.00  0.00    +0.111 C 
ATOM      5  C   UNL     1       2.142  -0.268   1.105  0.00  0.00    +0.115 C 
ATOM      6  C   UNL     1       2.744  -1.491   1.773  0.00  0.00    +0.024 C 
ATOM      7  C   UNL     1       1.725  -2.346   1.941  0.00  0.00    +0.101 C 
ATOM      8  N   UNL     1       0.547  -1.812   1.404  0.00  0.00    -0.273 N 
ATOM      9  N   UNL     1       0.728  -0.476   1.222  0.00  0.00    -0.221 NA
ATOM     10  C   UNL     1       0.002  -0.004   0.002  0.00  0.00    +0.107 C 
ATOM     11  H   UNL     1      -0.261  -2.311   1.206  0.00  0.00    +0.167 HD
ENDROOT
BRANCH   3  12
ATOM     12  C   UNL     1       2.584   3.439   1.579  0.00  0.00    +0.214 C 
ATOM     13  C   UNL     1       1.601   4.571   1.431  0.00  0.00    +0.055 C 
ATOM     14  C   UNL     1       0.452   4.956   1.991  0.00  0.00    +0.145 C 
ATOM     15  N   UNL     1       0.051   6.100   1.397  0.00  0.00    -0.155 NA
ATOM     16  N   UNL     1       0.871   6.485   0.482  0.00  0.00    -0.131 NA
ATOM     17  C   UNL     1       1.905   5.596   0.402  0.00  0.00    +0.164 C 
ATOM     18  N   UNL     1       2.987   5.474  -0.313  0.00  0.00    -0.311 N 
ATOM     19  C   UNL     1       3.865   4.457  -0.177  0.00  0.00    +0.189 C 
ATOM     20  N   UNL     1       3.747   3.483   0.670  0.00  0.00    -0.230 NA
ATOM     21  N   UNL     1       4.972   4.455  -1.004  0.00  0.00    -0.329 N 
ATOM     22  H   UNL     1       5.094   5.167  -1.652  0.00  0.00    +0.145 HD
ATOM     23  H   UNL     1       5.626   3.742  -0.937  0.00  0.00    +0.145 HD
ATOM     24  H   UNL     1       3.172   6.151  -0.982  0.00  0.00    +0.170 HD
ENDBRANCH   3  12
BRANCH   7  25
ATOM     25  C   UNL     1       1.831  -3.663   2.597  0.00  0.00    +0.259 C 
ATOM     26  O   UNL     1       2.901  -4.041   3.033  0.00  0.00    -0.269 OA
ATOM     27  N   UNL     1       0.741  -4.447   2.714  0.00  0.00    -0.307 N 
ATOM     28  H   UNL     1      -0.113  -4.146   2.366  0.00  0.00    +0.149 HD
BRANCH  27  29
ATOM     29  C   UNL     1       0.845  -5.755   3.366  0.00  0.00    +0.073 C 
ATOM     30  C   UNL     1       0.134  -6.935   2.700  0.00  0.00    +0.024 C 
ATOM     31  C   UNL     1      -0.424  -6.336   3.993  0.00  0.00    +0.024 C 
ENDBRANCH  27  29
ENDBRANCH   7  25
TORSDOF 3
