REMARK  Name = ZINC23445181
REMARK  11 active torsions:
REMARK  status: ('A' for Active; 'I' for Inactive)
REMARK    1  A    between atoms: C_1  and  C_2
REMARK    2  A    between atoms: C_3  and  C_8
REMARK    3  A    between atoms: C_4  and  C_7
REMARK    4  A    between atoms: N_13  and  C_16
REMARK    5  A    between atoms: C_16  and  C_17
REMARK    6  A    between atoms: C_17  and  C_19
REMARK    7  A    between atoms: C_17  and  O_30
REMARK    8  A    between atoms: C_23  and  N_25
REMARK    9  A    between atoms: O_30  and  C_31
REMARK   10  A    between atoms: C_31  and  C_32
REMARK   11  A    between atoms: C_35  and  C_38
REMARK                            x       y       z     vdW  Elec       q    Type
REMARK                         _______ _______ _______ _____ _____    ______ ____
ROOT
ATOM      1  C   UNL     1       2.174  -4.599   3.359  0.00  0.00    +0.132 C 
ENDROOT
BRANCH   1   2
ATOM      2  C   UNL     1       3.099  -5.767   3.126  0.00  0.00    -0.019 A 
ATOM      3  C   UNL     1       3.467  -6.110   1.838  0.00  0.00    +0.006 A 
ATOM      4  C   UNL     1       4.319  -7.177   1.620  0.00  0.00    +0.002 A 
ATOM      5  C   UNL     1       4.797  -7.910   2.688  0.00  0.00    +0.023 A 
ATOM      6  C   UNL     1       4.425  -7.572   3.983  0.00  0.00    +0.030 A 
ATOM      7  C   UNL     1       3.572  -6.495   4.199  0.00  0.00    +0.029 A 
BRANCH   6   8
ATOM      8  N   UNL     1       4.905  -8.311   5.066  0.00  0.00    -0.330 N 
ATOM      9  C   UNL     1       5.748  -7.470   5.954  0.00  0.00    +0.105 C 
ATOM     10  C   UNL     1       5.739  -8.248   7.293  0.00  0.00    +0.020 C 
ATOM     11  C   UNL     1       4.295  -8.796   7.365  0.00  0.00    +0.020 C 
ATOM     12  C   UNL     1       3.793  -8.800   5.910  0.00  0.00    +0.105 C 
ENDBRANCH   6   8
ENDBRANCH   1   2
BRANCH   1  13
ATOM     13  C   UNL     1       2.971  -3.295   3.285  0.00  0.00    -0.042 C 
BRANCH  13  19
ATOM     14  C   UNL     1      -1.520  -0.467   4.415  0.00  0.00    +0.252 C 
ATOM     15  O   UNL     1      -2.197  -0.082   3.482  0.00  0.00    -0.270 OA
ATOM     16  N   UNL     1      -0.210  -0.727   4.235  0.00  0.00    -0.301 N 
ATOM     17  C   UNL     1       0.629  -1.188   5.351  0.00  0.00    +0.089 C 
ATOM     18  C   UNL     1       1.378  -2.453   4.902  0.00  0.00    -0.059 C 
ATOM     19  N   UNL     1       2.103  -2.170   3.657  0.00  0.00    +0.384 N 
ATOM     20  C   UNL     1       1.179  -1.836   2.565  0.00  0.00    -0.059 C 
ATOM     21  C   UNL     1       0.420  -0.551   2.917  0.00  0.00    +0.089 C 
ATOM     22  H   UNL     1       2.742  -1.292   3.834  0.00  0.00    -0.082 HD
BRANCH  14  25
ATOM     23  C   UNL     1      -2.933  -3.193   5.635  0.00  0.00    +0.070 C 
ATOM     24  C   UNL     1      -2.764  -1.853   6.304  0.00  0.00    +0.093 A 
ATOM     25  C   UNL     1      -2.131  -0.650   5.744  0.00  0.00    +0.101 A 
ATOM     26  C   UNL     1      -2.251   0.262   6.764  0.00  0.00    +0.147 A 
ATOM     27  O   UNL     1      -2.875  -0.369   7.761  0.00  0.00    -0.359 OA
ATOM     28  N   UNL     1      -3.153  -1.514   7.497  0.00  0.00    -0.083 NA
ATOM     29  C   UNL     1      -1.773   1.691   6.759  0.00  0.00    +0.090 C 
ENDBRANCH  14  25
ENDBRANCH  13  19
ENDBRANCH   1  13
BRANCH   1  30
ATOM     30  O   UNL     1       1.155  -4.591   2.357  0.00  0.00    -0.369 OA
BRANCH  30  31
ATOM     31  C   UNL     1      -0.012  -5.336   2.710  0.00  0.00    +0.195 C 
BRANCH  31  32
ATOM     32  C   UNL     1      -1.015  -5.260   1.587  0.00  0.00    -0.022 A 
ATOM     33  C   UNL     1      -1.955  -4.245   1.571  0.00  0.00    +0.007 A 
ATOM     34  C   UNL     1      -2.873  -4.166   0.544  0.00  0.00    +0.019 A 
ATOM     35  C   UNL     1      -2.858  -5.120  -0.475  0.00  0.00    +0.052 A 
ATOM     36  C   UNL     1      -1.910  -6.145  -0.450  0.00  0.00    +0.019 A 
ATOM     37  C   UNL     1      -0.995  -6.209   0.580  0.00  0.00    +0.007 A 
BRANCH  35  38
ATOM     38  C   UNL     1      -3.811  -5.048  -1.542  0.00  0.00    +0.099 C 
ATOM     39  N   UNL     1      -4.567  -4.990  -2.388  0.00  0.00    -0.191 NA
ENDBRANCH  35  38
ENDBRANCH  31  32
ENDBRANCH  30  31
ENDBRANCH   1  30
TORSDOF 9
