REMARK  Name = ZINC35266842
REMARK  8 active torsions:
REMARK  status: ('A' for Active; 'I' for Inactive)
REMARK    1  A    between atoms: C_1  and  C_2
REMARK    2  A    between atoms: C_2  and  C_3
REMARK    3  A    between atoms: C_3  and  C_5
REMARK    4  A    between atoms: C_3  and  C_6
REMARK    5  A    between atoms: C_6  and  C_8
REMARK    6  A    between atoms: C_6  and  N_23
REMARK    7  A    between atoms: C_14  and  C_16
REMARK    8  A    between atoms: C_24  and  C_26
REMARK                            x       y       z     vdW  Elec       q    Type
REMARK                         _______ _______ _______ _____ _____    ______ ____
ROOT
ATOM      1  C   UNL     1       0.590  -2.042  -1.397  0.00  0.00    +0.162 C 
ENDROOT
BRANCH   1   2
ATOM      2  C   UNL     1       1.010  -2.707  -0.112  0.00  0.00    +0.239 C 
ATOM      3  O   UNL     1       0.253  -3.468   0.453  0.00  0.00    -0.273 OA
ATOM      4  N   UNL     1       2.226  -2.455   0.412  0.00  0.00    -0.262 N 
ATOM      5  C   UNL     1       2.575  -2.988   1.647  0.00  0.00    +0.188 A 
ATOM      6  N   UNL     1       1.879  -3.764   2.467  0.00  0.00    -0.125 NA
ATOM      7  N   UNL     1       2.351  -4.165   3.566  0.00  0.00    -0.140 NA
ATOM      8  C   UNL     1       3.572  -3.835   3.967  0.00  0.00    +0.134 A 
ATOM      9  S   UNL     1       4.095  -2.830   2.580  0.00  0.00    -0.030 S 
ATOM     10  H   UNL     1       2.858  -1.902  -0.074  0.00  0.00    +0.157 HD
BRANCH   8  11
ATOM     11  C   UNL     1       4.297  -4.197   5.203  0.00  0.00    +0.009 A 
ATOM     12  C   UNL     1       5.592  -3.724   5.421  0.00  0.00    +0.012 A 
ATOM     13  C   UNL     1       6.263  -4.066   6.576  0.00  0.00    +0.020 A 
ATOM     14  C   UNL     1       5.655  -4.877   7.519  0.00  0.00    +0.041 A 
ATOM     15  C   UNL     1       4.371  -5.351   7.309  0.00  0.00    +0.020 A 
ATOM     16  C   UNL     1       3.688  -5.011   6.160  0.00  0.00    +0.012 A 
ATOM     17 CL   UNL     1       6.507  -5.304   8.971  0.00  0.00    -0.084 Cl
ENDBRANCH   8  11
ENDBRANCH   1   2
BRANCH   1  18
ATOM     18  N   UNL     1      -0.514  -2.794  -1.998  0.00  0.00    -0.303 N 
ATOM     19  C   UNL     1      -0.728  -2.730  -3.327  0.00  0.00    +0.220 C 
ATOM     20  O   UNL     1      -0.007  -2.049  -4.026  0.00  0.00    -0.275 OA
ATOM     21  H   UNL     1      -1.091  -3.338  -1.440  0.00  0.00    +0.149 HD
BRANCH  19  22
ATOM     22  C   UNL     1      -1.865  -3.503  -3.946  0.00  0.00    +0.048 C 
ATOM     23  C   UNL     1      -3.189  -3.040  -3.335  0.00  0.00    +0.019 C 
ATOM     24  C   UNL     1      -4.342  -3.825  -3.962  0.00  0.00    -0.009 C 
ATOM     25  C   UNL     1      -4.364  -3.580  -5.473  0.00  0.00    +0.007 C 
ATOM     26  C   UNL     1      -3.039  -4.043  -6.083  0.00  0.00    -0.009 C 
ATOM     27  C   UNL     1      -1.886  -3.258  -5.456  0.00  0.00    +0.019 C 
ATOM     28  C   UNL     1      -2.847  -5.537  -5.812  0.00  0.00    +0.007 C 
ATOM     29  C   UNL     1      -2.825  -5.782  -4.302  0.00  0.00    -0.009 C 
ATOM     30  C   UNL     1      -4.150  -5.319  -3.691  0.00  0.00    +0.007 C 
ATOM     31  C   UNL     1      -1.672  -4.997  -3.674  0.00  0.00    +0.019 C 
ENDBRANCH  19  22
ENDBRANCH   1  18
BRANCH   1  32
ATOM     32  C   UNL     1       0.134  -0.611  -1.106  0.00  0.00    +0.015 C 
ATOM     33  C   UNL     1      -1.099  -0.643  -0.201  0.00  0.00    +0.010 C 
BRANCH  32  35
ATOM     34  C   UNL     1      -0.552   1.556  -2.143  0.00  0.00    +0.004 C 
ATOM     35  C   UNL     1      -0.216   0.090  -2.421  0.00  0.00    +0.002 C 
ENDBRANCH  32  35
ENDBRANCH   1  32
TORSDOF 6
