REMARK  Name = ZINC16516052
REMARK  5 active torsions:
REMARK  status: ('A' for Active; 'I' for Inactive)
REMARK    1  A    between atoms: C_1  and  C_2
REMARK    2  A    between atoms: C_5  and  C_8
REMARK    3  A    between atoms: C_8  and  C_9
REMARK    4  A    between atoms: C_17  and  C_20
REMARK    5  A    between atoms: C_25  and  N_28
REMARK                            x       y       z     vdW  Elec       q    Type
REMARK                         _______ _______ _______ _____ _____    ______ ____
ROOT
ATOM      1  C   UNL     1       0.973   1.523   0.532  0.00  0.00    +0.145 A 
ATOM      2  N   UNL     1       0.931   0.214   0.622  0.00  0.00    -0.208 NA
ATOM      3  C   UNL     1       1.948  -0.489   0.142  0.00  0.00    +0.181 A 
ATOM      4  S   UNL     1       2.988   0.768  -0.451  0.00  0.00    +0.049 S 
ATOM      5  N   UNL     1       2.008   2.105  -0.024  0.00  0.00    -0.192 NA
ATOM      6  N   UNL     1       2.132  -1.859   0.121  0.00  0.00    -0.308 N 
ATOM      7  C   UNL     1       1.009  -2.531  -0.547  0.00  0.00    +0.108 C 
ATOM      8  C   UNL     1       1.174  -4.047  -0.424  0.00  0.00    +0.032 C 
ATOM      9  C   UNL     1       2.499  -4.466  -1.068  0.00  0.00    +0.078 C 
ATOM     10  C   UNL     1       3.647  -3.716  -0.387  0.00  0.00    +0.032 C 
ATOM     11  C   UNL     1       3.411  -2.209  -0.511  0.00  0.00    +0.108 C 
ENDROOT
BRANCH   9  12
ATOM     12  C   UNL     1       2.695  -5.950  -0.897  0.00  0.00    +0.219 C 
ATOM     13  O   UNL     1       3.386  -6.370   0.006  0.00  0.00    -0.275 OA
ATOM     14  N   UNL     1       2.102  -6.810  -1.749  0.00  0.00    -0.301 N 
ATOM     15  C   UNL     1       1.335  -6.315  -2.900  0.00  0.00    +0.110 C 
ATOM     16  C   UNL     1       1.876  -6.984  -4.172  0.00  0.00    +0.044 C 
ATOM     17  C   UNL     1       1.838  -8.504  -3.999  0.00  0.00    +0.095 C 
ATOM     18  C   UNL     1       2.733  -8.908  -2.824  0.00  0.00    +0.044 C 
ATOM     19  C   UNL     1       2.205  -8.261  -1.540  0.00  0.00    +0.110 C 
BRANCH  17  20
ATOM     20  N   UNL     1       2.320  -9.147  -5.223  0.00  0.00    -0.289 N 
ATOM     21  C   UNL     1       1.595 -10.028  -6.021  0.00  0.00    +0.070 A 
ATOM     22  C   UNL     1       0.310 -10.545  -5.944  0.00  0.00    +0.028 A 
ATOM     23  C   UNL     1      -0.138 -11.422  -6.912  0.00  0.00    +0.002 A 
ATOM     24  C   UNL     1       0.690 -11.787  -7.960  0.00  0.00    +0.002 A 
ATOM     25  C   UNL     1       1.971 -11.277  -8.046  0.00  0.00    +0.028 A 
ATOM     26  C   UNL     1       2.429 -10.396  -7.078  0.00  0.00    +0.067 A 
ATOM     27  N   UNL     1       3.636  -9.727  -6.890  0.00  0.00    -0.306 N 
ATOM     28  H   UNL     1       4.414  -9.785  -7.467  0.00  0.00    +0.170 HD
ATOM     29  C   UNL     1       3.539  -8.982  -5.772  0.00  0.00    +0.328 A 
ATOM     30  O   UNL     1       4.419  -8.271  -5.325  0.00  0.00    -0.247 OA
ENDBRANCH  17  20
ENDBRANCH   9  12
BRANCH   1  31
ATOM     31  C   UNL     1      -0.168   2.353   1.061  0.00  0.00    +0.112 C 
BRANCH  31  36
ATOM     32  C   UNL     1       0.815   3.669   6.602  0.00  0.00    +0.044 C 
ATOM     33  C   UNL     1       0.558   3.326   5.157  0.00  0.00    -0.050 A 
ATOM     34  C   UNL     1       1.010   4.166   4.156  0.00  0.00    +0.003 A 
ATOM     35  C   UNL     1       0.775   3.851   2.831  0.00  0.00    +0.004 A 
ATOM     36  C   UNL     1       0.088   2.696   2.506  0.00  0.00    -0.040 A 
ATOM     37  C   UNL     1      -0.368   1.859   3.507  0.00  0.00    +0.004 A 
ATOM     38  C   UNL     1      -0.130   2.172   4.832  0.00  0.00    +0.003 A 
ENDBRANCH  31  36
ENDBRANCH   1  31
TORSDOF 4
