REMARK  Name = ZINC40917302
REMARK  7 active torsions:
REMARK  status: ('A' for Active; 'I' for Inactive)
REMARK    1  A    between atoms: C_1  and  C_2
REMARK    2  A    between atoms: C_2  and  O_3
REMARK    3  A    between atoms: O_3  and  C_4
REMARK    4  A    between atoms: C_6  and  C_20
REMARK    5  A    between atoms: C_9  and  O_10
REMARK    6  A    between atoms: O_10  and  C_11
REMARK    7  A    between atoms: C_11  and  C_12
REMARK                            x       y       z     vdW  Elec       q    Type
REMARK                         _______ _______ _______ _____ _____    ______ ____
ROOT
ATOM      1  C   UNL     1       0.777  -1.811  -1.336  0.00  0.00    +0.163 A 
ATOM      2  C   UNL     1       0.243  -2.669  -0.388  0.00  0.00    +0.055 A 
ATOM      3  C   UNL     1       0.352  -4.037  -0.554  0.00  0.00    -0.014 A 
ATOM      4  C   UNL     1       0.992  -4.553  -1.665  0.00  0.00    +0.025 A 
ATOM      5  C   UNL     1       1.527  -3.702  -2.616  0.00  0.00    +0.063 A 
ATOM      6  C   UNL     1       1.416  -2.329  -2.458  0.00  0.00    +0.176 A 
ATOM      7 BR   UNL     1       2.403  -4.412  -4.134  0.00  0.00    -0.046 Br
ENDROOT
BRANCH   3   8
ATOM      8  C   UNL     1      -0.228  -4.968   0.479  0.00  0.00    +0.177 C 
ATOM      9  C   UNL     1      -1.276  -5.848  -0.169  0.00  0.00    +0.041 C 
ATOM     10  C   UNL     1      -1.054  -7.153  -0.434  0.00  0.00    +0.020 C 
ATOM     11  C   UNL     1      -2.114  -8.000  -1.098  0.00  0.00    +0.052 C 
ATOM     12  C   UNL     1      -3.501  -7.498  -0.694  0.00  0.00    +0.014 C 
ATOM     13  C   UNL     1      -3.625  -6.030  -1.115  0.00  0.00    +0.080 C 
ATOM     14  C   UNL     1      -2.507  -5.246  -0.487  0.00  0.00    +0.163 C 
ATOM     15  O   UNL     1      -2.671  -4.066  -0.247  0.00  0.00    -0.292 OA
ATOM     16  N   UNL     1       0.132  -7.768  -0.111  0.00  0.00    -0.286 N 
ATOM     17  C   UNL     1       0.994  -7.108   0.749  0.00  0.00    +0.240 A 
ATOM     18  N   UNL     1       0.833  -5.793   1.037  0.00  0.00    -0.201 N 
ATOM     19  N   UNL     1       1.862  -5.480   1.924  0.00  0.00    -0.042 NA
ATOM     20  N   UNL     1       2.541  -6.567   2.097  0.00  0.00    -0.021 NA
ATOM     21  N   UNL     1       2.036  -7.526   1.409  0.00  0.00    -0.092 NA
ATOM     22  H   UNL     1       0.358  -8.639  -0.473  0.00  0.00    +0.155 HD
ENDBRANCH   3   8
BRANCH   1  23
ATOM     23  O   UNL     1       0.671  -0.465  -1.174  0.00  0.00    -0.489 OA
BRANCH  23  25
ATOM     24  C   UNL     1      -0.019   1.526   0.010  0.00  0.00    +0.048 C 
ATOM     25  C   UNL     1       0.002  -0.004   0.002  0.00  0.00    +0.226 C 
ENDBRANCH  23  25
ENDBRANCH   1  23
BRANCH   6  26
ATOM     26  O   UNL     1       1.936  -1.491  -3.394  0.00  0.00    -0.483 OA
BRANCH  26  27
ATOM     27  C   UNL     1       3.293  -1.080  -3.215  0.00  0.00    +0.267 C 
BRANCH  27  28
ATOM     28  C   UNL     1       3.692  -0.161  -4.341  0.00  0.00    +0.025 A 
ATOM     29  C   UNL     1       2.780   0.158  -5.330  0.00  0.00    +0.010 A 
ATOM     30  C   UNL     1       3.147   1.000  -6.362  0.00  0.00    +0.001 A 
ATOM     31  C   UNL     1       4.425   1.525  -6.407  0.00  0.00    +0.003 A 
ATOM     32  C   UNL     1       5.338   1.209  -5.420  0.00  0.00    +0.039 A 
ATOM     33  C   UNL     1       4.970   0.369  -4.382  0.00  0.00    +0.130 A 
ATOM     34  F   UNL     1       5.861   0.062  -3.413  0.00  0.00    -0.205 F 
ENDBRANCH  27  28
ENDBRANCH  26  27
ENDBRANCH   6  26
TORSDOF 6
