REMARK  Name = ZINC39777156
REMARK  2 active torsions:
REMARK  status: ('A' for Active; 'I' for Inactive)
REMARK    1  A    between atoms: C_4  and  N_7
REMARK    2  A    between atoms: C_11  and  C_12
REMARK                            x       y       z     vdW  Elec       q    Type
REMARK                         _______ _______ _______ _____ _____    ______ ____
ROOT
ATOM      1  N   UNL     1       3.471  -0.856   1.066  0.00  0.00    -0.188 N 
ATOM      2  C   UNL     1       3.541  -2.146   0.671  0.00  0.00    +0.263 C 
ATOM      3  O   UNL     1       2.535  -2.794   0.458  0.00  0.00    -0.269 OA
ATOM      4  C   UNL     1       4.889  -2.743   0.507  0.00  0.00    +0.100 C 
ATOM      5  C   UNL     1       5.051  -4.027   0.115  0.00  0.00    +0.020 C 
ATOM      6  C   UNL     1       6.047  -1.868   0.792  0.00  0.00    +0.276 C 
ATOM      7  O   UNL     1       7.308  -2.329   0.668  0.00  0.00    -0.268 OA
ATOM      8  N   UNL     1       5.816  -0.626   1.170  0.00  0.00    -0.123 NA
ATOM      9  C   UNL     1       4.581  -0.140   1.296  0.00  0.00    +0.340 C 
ATOM     10  O   UNL     1       4.454   1.019   1.645  0.00  0.00    -0.250 OA
ENDROOT
BRANCH   5  11
ATOM     11  C   UNL     1       6.409  -4.676   0.203  0.00  0.00    +0.127 C 
ATOM     12  C   UNL     1       6.946  -4.951  -1.183  0.00  0.00    +0.011 C 
ATOM     13  C   UNL     1       7.113  -6.291  -1.262  0.00  0.00    -0.004 A 
ATOM     14  C   UNL     1       7.597  -7.171  -2.333  0.00  0.00    +0.010 A 
ATOM     15  C   UNL     1       7.652  -8.504  -2.111  0.00  0.00    +0.001 A 
ATOM     16  C   UNL     1       7.260  -9.064  -0.887  0.00  0.00    +0.002 A 
ATOM     17  C   UNL     1       6.805  -8.320   0.143  0.00  0.00    +0.026 A 
ATOM     18  C   UNL     1       6.705  -6.907   0.020  0.00  0.00    +0.043 A 
ATOM     19  N   UNL     1       6.302  -5.983   0.861  0.00  0.00    -0.374 N 
ATOM     20  H   UNL     1       5.987  -6.138   1.765  0.00  0.00    +0.161 HD
ENDBRANCH   5  11
BRANCH   1  24
ATOM     21  C   UNL     1      -0.261   0.933   1.561  0.00  0.00    +0.000 A 
ATOM     22  C   UNL     1       0.617   1.419   0.609  0.00  0.00    +0.002 A 
ATOM     23  C   UNL     1       1.854   0.829   0.443  0.00  0.00    +0.024 A 
ATOM     24  C   UNL     1       2.217  -0.254   1.233  0.00  0.00    +0.046 A 
ATOM     25  C   UNL     1       1.333  -0.740   2.188  0.00  0.00    +0.024 A 
ATOM     26  C   UNL     1       0.097  -0.145   2.349  0.00  0.00    +0.002 A 
ENDBRANCH   1  24
TORSDOF 2
