REMARK  Name = ZINC56203820
REMARK  7 active torsions:
REMARK  status: ('A' for Active; 'I' for Inactive)
REMARK    1  A    between atoms: C_1  and  C_2
REMARK    2  A    between atoms: C_2  and  C_4
REMARK    3  A    between atoms: C_2  and  N_10
REMARK    4  A    between atoms: N_10  and  C_11
REMARK    5  A    between atoms: C_15  and  O_17
REMARK    6  A    between atoms: O_17  and  C_18
REMARK    7  A    between atoms: C_18  and  C_19
REMARK                            x       y       z     vdW  Elec       q    Type
REMARK                         _______ _______ _______ _____ _____    ______ ____
ROOT
ATOM      1  C   UNL     1      -0.018  -0.613  -2.401  0.00  0.00    +0.031 A 
ATOM      2  C   UNL     1      -1.371  -0.295  -2.451  0.00  0.00    +0.023 A 
ATOM      3  C   UNL     1      -2.069  -0.430  -3.635  0.00  0.00    +0.005 A 
ATOM      4  C   UNL     1      -1.425  -0.881  -4.772  0.00  0.00    +0.046 A 
ATOM      5  C   UNL     1      -0.075  -1.199  -4.728  0.00  0.00    +0.123 A 
ATOM      6  C   UNL     1       0.630  -1.060  -3.543  0.00  0.00    +0.068 A 
ENDROOT
BRANCH   1   7
ATOM      7  N   UNL     1       0.688  -0.476  -1.203  0.00  0.00    -0.333 N 
ATOM      8  H   UNL     1       1.632  -0.695  -1.170  0.00  0.00    +0.147 HD
BRANCH   7  10
ATOM      9  C   UNL     1      -0.019   1.526   0.010  0.00  0.00    +0.038 C 
ATOM     10  C   UNL     1       0.002  -0.004   0.002  0.00  0.00    +0.154 C 
BRANCH  10  11
ATOM     11  C   UNL     1       0.731  -0.503   1.223  0.00  0.00    +0.240 C 
ATOM     12  O   UNL     1       1.725  -1.186   1.099  0.00  0.00    -0.273 OA
ATOM     13  N   UNL     1       0.278  -0.191   2.453  0.00  0.00    -0.239 N 
ATOM     14  C   UNL     1       0.930  -0.637   3.545  0.00  0.00    +0.303 C 
ATOM     15  O   UNL     1       1.926  -1.322   3.420  0.00  0.00    -0.253 OA
ATOM     16  N   UNL     1       0.476  -0.324   4.775  0.00  0.00    -0.313 N 
ATOM     17  H   UNL     1      -0.517   0.356   2.553  0.00  0.00    +0.159 HD
ATOM     18  H   UNL     1      -0.319   0.222   4.875  0.00  0.00    +0.146 HD
ATOM     19  H   UNL     1       0.946  -0.646   5.561  0.00  0.00    +0.146 HD
ENDBRANCH  10  11
ENDBRANCH   7  10
ENDBRANCH   1   7
BRANCH   5  20
ATOM     20  O   UNL     1       0.555  -1.642  -5.847  0.00  0.00    -0.487 OA
BRANCH  20  21
ATOM     21  C   UNL     1      -0.232  -1.756  -7.034  0.00  0.00    +0.264 C 
BRANCH  21  22
ATOM     22  C   UNL     1       0.630  -2.257  -8.163  0.00  0.00    -0.008 A 
ATOM     23  C   UNL     1       1.306  -1.359  -8.969  0.00  0.00    +0.007 A 
ATOM     24  C   UNL     1       2.098  -1.818 -10.005  0.00  0.00    +0.003 A 
ATOM     25  C   UNL     1       2.214  -3.176 -10.237  0.00  0.00    +0.038 A 
ATOM     26  C   UNL     1       1.538  -4.076  -9.431  0.00  0.00    +0.124 A 
ATOM     27  C   UNL     1       0.750  -3.615  -8.390  0.00  0.00    +0.045 A 
ATOM     28  F   UNL     1       1.651  -5.403  -9.658  0.00  0.00    -0.205 F 
ENDBRANCH  21  22
ENDBRANCH  20  21
ENDBRANCH   5  20
TORSDOF 6
