REMARK  Name = ZINC12324548
REMARK  9 active torsions:
REMARK  status: ('A' for Active; 'I' for Inactive)
REMARK    1  A    between atoms: C_1  and  C_2
REMARK    2  A    between atoms: C_2  and  C_3
REMARK    3  A    between atoms: C_2  and  C_4
REMARK    4  A    between atoms: C_4  and  C_5
REMARK    5  A    between atoms: N_13  and  C_16
REMARK    6  A    between atoms: C_16  and  C_17
REMARK    7  A    between atoms: N_19  and  C_20
REMARK    8  A    between atoms: C_30  and  C_33
REMARK    9  A    between atoms: C_30  and  C_34
REMARK                            x       y       z     vdW  Elec       q    Type
REMARK                         _______ _______ _______ _____ _____    ______ ____
ROOT
ATOM      1  C   UNL     1       7.611   7.423  -2.738  0.00  0.00    +0.051 A 
ATOM      2  C   UNL     1       7.854   7.340  -1.374  0.00  0.00    +0.004 A 
ATOM      3  C   UNL     1       6.908   6.758  -0.559  0.00  0.00    -0.023 A 
ATOM      4  C   UNL     1       5.741   6.269  -1.145  0.00  0.00    +0.070 A 
ATOM      5  C   UNL     1       4.535   5.602  -0.636  0.00  0.00    +0.126 A 
ATOM      6  C   UNL     1       3.735   5.370  -1.750  0.00  0.00    +0.220 A 
ATOM      7  C   UNL     1       2.491   4.729  -1.555  0.00  0.00    +0.298 A 
ATOM      8  O   UNL     1       1.751   4.503  -2.498  0.00  0.00    -0.264 OA
ATOM      9  N   UNL     1       2.139   4.374  -0.301  0.00  0.00    -0.287 N 
ATOM     10  C   UNL     1       2.963   4.634   0.745  0.00  0.00    +0.203 A 
ATOM     11  N   UNL     1       4.116   5.219   0.581  0.00  0.00    -0.233 NA
ATOM     12  O   UNL     1       4.365   5.840  -2.847  0.00  0.00    -0.430 OA
ATOM     13  C   UNL     1       5.560   6.383  -2.534  0.00  0.00    +0.231 A 
ATOM     14  N   UNL     1       6.503   6.956  -3.271  0.00  0.00    -0.217 NA
ATOM     15  C   UNL     1       7.109   6.647   0.928  0.00  0.00    +0.070 C 
ATOM     16  C   UNL     1       8.587   6.859   1.266  0.00  0.00    +0.068 C 
ATOM     17  O   UNL     1       9.041   8.041   0.598  0.00  0.00    -0.369 OA
ATOM     18  C   UNL     1       9.142   7.885  -0.818  0.00  0.00    +0.197 C 
ATOM     19  C   UNL     1       8.748   7.028   2.778  0.00  0.00    +0.041 C 
ATOM     20  C   UNL     1       9.400   5.652   0.794  0.00  0.00    +0.041 C 
ENDROOT
BRANCH   1  21
ATOM     21  C   UNL     1       8.643   8.062  -3.632  0.00  0.00    +0.059 C 
BRANCH  21  23
ATOM     22  C   UNL     1       8.883   5.994  -5.013  0.00  0.00    +0.007 C 
ATOM     23  C   UNL     1       9.623   6.995  -4.124  0.00  0.00    -0.011 C 
ATOM     24  C   UNL     1      10.741   7.662  -4.928  0.00  0.00    +0.007 C 
ENDBRANCH  21  23
ENDBRANCH   1  21
BRANCH   9  25
ATOM     25  C   UNL     1       0.855   3.709  -0.067  0.00  0.00    +0.222 C 
BRANCH  25  26
ATOM     26  C   UNL     1       1.037   2.216  -0.170  0.00  0.00    +0.237 C 
ATOM     27  O   UNL     1       2.131   1.754  -0.415  0.00  0.00    -0.274 OA
ATOM     28  N   UNL     1      -0.017   1.395   0.010  0.00  0.00    -0.284 N 
ATOM     29  H   UNL     1      -0.906   1.765   0.126  0.00  0.00    +0.155 HD
BRANCH  28  30
ATOM     30  C   UNL     1       0.171   0.009   0.024  0.00  0.00    +0.033 A 
ATOM     31  C   UNL     1      -0.819  -0.833  -0.468  0.00  0.00    +0.023 A 
ATOM     32  C   UNL     1      -0.627  -2.201  -0.458  0.00  0.00    +0.002 A 
ATOM     33  C   UNL     1       0.543  -2.733   0.050  0.00  0.00    +0.000 A 
ATOM     34  C   UNL     1       1.528  -1.898   0.546  0.00  0.00    +0.002 A 
ATOM     35  C   UNL     1       1.345  -0.529   0.534  0.00  0.00    +0.023 A 
ENDBRANCH  28  30
ENDBRANCH  25  26
ENDBRANCH   9  25
TORSDOF 5
