REMARK  Name = ZINC19791018
REMARK  12 active torsions:
REMARK  status: ('A' for Active; 'I' for Inactive)
REMARK    1  A    between atoms: C_1  and  C_2
REMARK    2  A    between atoms: C_5  and  C_30
REMARK    3  A    between atoms: C_6  and  O_8
REMARK    4  A    between atoms: O_8  and  C_9
REMARK    5  A    between atoms: C_9  and  C_10
REMARK    6  A    between atoms: C_10  and  C_12
REMARK    7  A    between atoms: C_10  and  O_29
REMARK    8  A    between atoms: C_12  and  N_13
REMARK    9  A    between atoms: N_16  and  C_19
REMARK   10  A    between atoms: C_19  and  C_20
REMARK   11  A    between atoms: C_30  and  C_31
REMARK   12  A    between atoms: C_30  and  C_32
REMARK                            x       y       z     vdW  Elec       q    Type
REMARK                         _______ _______ _______ _____ _____    ______ ____
ROOT
ATOM      1  N   UNL     1       8.107  -2.696   0.102  0.00  0.00    -0.303 NA
ATOM      2  C   UNL     1       8.396  -1.330   0.559  0.00  0.00    +0.066 C 
ATOM      3  C   UNL     1       7.441  -0.962   1.696  0.00  0.00    -0.063 C 
ATOM      4  N   UNL     1       6.054  -1.074   1.223  0.00  0.00    +0.384 N 
ATOM      5  C   UNL     1       5.765  -2.440   0.767  0.00  0.00    -0.063 C 
ATOM      6  C   UNL     1       6.720  -2.808  -0.371  0.00  0.00    +0.066 C 
ATOM      7  H   UNL     1       5.932  -0.396   0.365  0.00  0.00    -0.081 HD
ENDROOT
BRANCH   1   8
ATOM      8  C   UNL     1       9.054  -3.114  -0.940  0.00  0.00    +0.119 C 
BRANCH   8   9
ATOM      9  C   UNL     1       8.579  -4.428  -1.564  0.00  0.00    +0.166 C 
BRANCH   9  10
ATOM     10  O   UNL     1       8.506  -5.436  -0.553  0.00  0.00    -0.387 OA
ATOM     11  H   UNL     1       7.844  -5.299   0.314  0.00  0.00    +0.210 HD
ENDBRANCH   9  10
BRANCH   9  12
ATOM     12  C   UNL     1       9.565  -4.864  -2.649  0.00  0.00    +0.261 C 
BRANCH  12  13
ATOM     13  O   UNL     1       9.063  -6.027  -3.311  0.00  0.00    -0.489 OA
BRANCH  13  19
ATOM     14  C   UNL     1      13.113  -5.830  -6.027  0.00  0.00    +0.044 C 
ATOM     15  C   UNL     1      11.803  -6.478  -5.661  0.00  0.00    -0.047 A 
ATOM     16  C   UNL     1      11.375  -7.603  -6.342  0.00  0.00    +0.004 A 
ATOM     17  C   UNL     1      10.173  -8.200  -6.009  0.00  0.00    +0.008 A 
ATOM     18  C   UNL     1       9.399  -7.677  -4.990  0.00  0.00    -0.003 A 
ATOM     19  C   UNL     1       9.824  -6.546  -4.309  0.00  0.00    +0.124 A 
ATOM     20  C   UNL     1      11.031  -5.949  -4.645  0.00  0.00    +0.049 A 
BRANCH  18  21
ATOM     21  C   UNL     1       8.093  -8.332  -4.623  0.00  0.00    +0.016 C 
ATOM     22  C   UNL     1       7.163  -8.331  -5.838  0.00  0.00    +0.012 C 
ATOM     23  C   UNL     1       8.351  -9.774  -4.181  0.00  0.00    +0.012 C 
ENDBRANCH  18  21
ENDBRANCH  13  19
ENDBRANCH  12  13
ENDBRANCH   9  12
ENDBRANCH   8   9
ENDBRANCH   1   8
BRANCH   4  24
ATOM     24  C   UNL     1       5.107  -0.655   2.265  0.00  0.00    -0.043 C 
BRANCH  24  25
ATOM     25  C   UNL     1       3.725  -0.548   1.674  0.00  0.00    -0.060 A 
ATOM     26  C   UNL     1       2.885  -1.646   1.677  0.00  0.00    +0.005 A 
ATOM     27  C   UNL     1       1.617  -1.553   1.135  0.00  0.00    +0.050 A 
ATOM     28  C   UNL     1       1.183  -0.356   0.589  0.00  0.00    +0.166 A 
ATOM     29  C   UNL     1       2.028   0.751   0.586  0.00  0.00    +0.166 A 
ATOM     30  C   UNL     1       3.298   0.650   1.131  0.00  0.00    +0.051 A 
ATOM     31  O   UNL     1       1.376   1.797  -0.001  0.00  0.00    -0.453 OA
ATOM     32  C   UNL     1      -0.018   1.436   0.010  0.00  0.00    +0.466 C 
ATOM     33  O   UNL     1       0.002  -0.004   0.002  0.00  0.00    -0.453 OA
ENDBRANCH  24  25
ENDBRANCH   4  24
TORSDOF 9
