REMARK  Name = ZINC11667015
REMARK  6 active torsions:
REMARK  status: ('A' for Active; 'I' for Inactive)
REMARK    1  A    between atoms: C_1  and  C_2
REMARK    2  A    between atoms: C_5  and  O_36
REMARK    3  A    between atoms: C_17  and  C_35
REMARK    4  A    between atoms: C_22  and  C_23
REMARK    5  A    between atoms: C_26  and  O_29
REMARK    6  A    between atoms: O_29  and  C_30
REMARK                            x       y       z     vdW  Elec       q    Type
REMARK                         _______ _______ _______ _____ _____    ______ ____
ROOT
ATOM      1  C   UNL     1       2.465   4.661   0.173  0.00  0.00    +0.016 C 
ATOM      2  C   UNL     1       1.625   4.022   1.280  0.00  0.00    -0.008 C 
ATOM      3  C   UNL     1       2.245   4.405   2.627  0.00  0.00    +0.014 C 
ATOM      4  C   UNL     1       3.657   3.822   2.718  0.00  0.00    +0.032 C 
ATOM      5  C   UNL     1       3.591   2.295   2.669  0.00  0.00    +0.119 C 
ATOM      6  C   UNL     1       3.026   1.850   1.317  0.00  0.00    +0.062 C 
ATOM      7  C   UNL     1       1.685   2.533   1.111  0.00  0.00    -0.065 C 
ATOM      8  C   UNL     1       0.659   1.798   0.797  0.00  0.00    -0.027 C 
ATOM      9  C   UNL     1      -0.714   2.362   0.576  0.00  0.00    +0.031 C 
ATOM     10  C   UNL     1      -0.598   3.826   0.133  0.00  0.00    +0.001 C 
ATOM     11  C   UNL     1       0.218   4.587   1.173  0.00  0.00    +0.003 C 
ATOM     12  C   UNL     1       0.299   6.058   0.745  0.00  0.00    +0.005 C 
ATOM     13  C   UNL     1      -1.109   6.644   0.745  0.00  0.00    +0.015 C 
ATOM     14  C   UNL     1      -1.992   5.933  -0.284  0.00  0.00    +0.034 C 
ATOM     15  C   UNL     1      -1.973   4.411  -0.058  0.00  0.00    +0.010 C 
ATOM     16  C   UNL     1      -2.869   4.269   1.187  0.00  0.00    +0.043 C 
ATOM     17  C   UNL     1      -3.939   5.325   0.957  0.00  0.00    -0.004 C 
ATOM     18  C   UNL     1      -5.174   5.333   1.516  0.00  0.00    +0.015 C 
ATOM     19  C   UNL     1      -3.435   6.298   0.064  0.00  0.00    +0.165 C 
ATOM     20  O   UNL     1      -4.045   7.260  -0.356  0.00  0.00    -0.292 OA
ATOM     21  C   UNL     1      -1.626   6.320  -1.718  0.00  0.00    +0.020 C 
ENDROOT
BRANCH  18  22
ATOM     22  C   UNL     1      -5.517   4.351   2.552  0.00  0.00    -0.024 A 
ATOM     23  C   UNL     1      -6.858   4.111   2.877  0.00  0.00    +0.011 A 
ATOM     24  C   UNL     1      -7.173   3.186   3.845  0.00  0.00    +0.046 A 
ATOM     25  C   UNL     1      -6.163   2.499   4.510  0.00  0.00    +0.127 A 
ATOM     26  C   UNL     1      -4.829   2.738   4.196  0.00  0.00    +0.046 A 
ATOM     27  C   UNL     1      -4.503   3.656   3.224  0.00  0.00    +0.011 A 
BRANCH  25  28
ATOM     28  O   UNL     1      -6.479   1.592   5.469  0.00  0.00    -0.434 OA
BRANCH  28  29
ATOM     29  C   UNL     1      -7.868   1.395   5.742  0.00  0.00    +0.541 C 
ATOM     30  F   UNL     1      -8.436   2.602   6.165  0.00  0.00    -0.166 F 
ATOM     31  F   UNL     1      -8.514   0.956   4.582  0.00  0.00    -0.166 F 
ENDBRANCH  28  29
ENDBRANCH  25  28
ENDBRANCH  18  22
BRANCH   5  32
ATOM     32  O   UNL     1       4.903   1.755   2.839  0.00  0.00    -0.391 OA
ATOM     33  H   UNL     1       4.936   0.789   2.819  0.00  0.00    +0.210 HD
ENDBRANCH   5  32
TORSDOF 4
