REMARK  Name = ZINC01830264
REMARK  15 active torsions:
REMARK  status: ('A' for Active; 'I' for Inactive)
REMARK    1  A    between atoms: C_1  and  C_2
REMARK    2  A    between atoms: C_2  and  C_3
REMARK    3  A    between atoms: C_2  and  C_4
REMARK    4  A    between atoms: C_7  and  C_10
REMARK    5  A    between atoms: C_16  and  C_33
REMARK    6  A    between atoms: C_17  and  C_24
REMARK    7  A    between atoms: C_19  and  C_22
REMARK    8  A    between atoms: C_20  and  N_21
REMARK    9  A    between atoms: C_27  and  C_30
REMARK   10  A    between atoms: C_30  and  C_31
REMARK   11  A    between atoms: C_30  and  C_32
REMARK   12  A    between atoms: C_33  and  O_35
REMARK   13  A    between atoms: O_35  and  C_36
REMARK   14  A    between atoms: C_36  and  C_37
REMARK   15  A    between atoms: C_36  and  C_38
REMARK                            x       y       z     vdW  Elec       q    Type
REMARK                         _______ _______ _______ _____ _____    ______ ____
ROOT
ATOM      1  C   UNL     1      -6.210   6.890   4.167  0.00  0.00    +0.028 C 
ATOM      2  C   UNL     1      -5.036   6.629   3.540  0.00  0.00    +0.079 A 
ATOM      3  C   UNL     1      -4.147   7.540   2.808  0.00  0.00    +0.271 A 
ATOM      4  O   UNL     1      -4.426   8.718   2.685  0.00  0.00    -0.266 OA
ATOM      5  N   UNL     1      -3.021   7.038   2.263  0.00  0.00    -0.257 N 
ATOM      6  C   UNL     1      -2.770   5.692   2.438  0.00  0.00    +0.100 A 
ATOM      7  C   UNL     1      -1.667   5.045   1.948  0.00  0.00    +0.080 C 
ATOM      8  C   UNL     1      -0.659   5.849   1.151  0.00  0.00    +0.102 C 
ATOM      9  C   UNL     1      -0.980   7.320   0.981  0.00  0.00    +0.079 C 
ATOM     10  C   UNL     1      -2.111   7.810   1.532  0.00  0.00    +0.118 C 
ATOM     11  S   UNL     1      -4.146   5.088   3.394  0.00  0.00    -0.065 S 
ENDROOT
BRANCH   1  15
ATOM     12  C   UNL     1      -8.533   3.705   5.729  0.00  0.00    -0.045 A 
ATOM     13  C   UNL     1      -8.667   4.978   6.257  0.00  0.00    +0.004 A 
ATOM     14  C   UNL     1      -7.915   6.019   5.755  0.00  0.00    +0.008 A 
ATOM     15  C   UNL     1      -7.015   5.786   4.709  0.00  0.00    -0.024 A 
ATOM     16  C   UNL     1      -6.890   4.497   4.178  0.00  0.00    +0.008 A 
ATOM     17  C   UNL     1      -7.645   3.466   4.695  0.00  0.00    +0.004 A 
BRANCH  12  19
ATOM     18  C   UNL     1     -10.231   1.986   5.173  0.00  0.00    +0.012 C 
ATOM     19  C   UNL     1      -9.359   2.573   6.284  0.00  0.00    +0.013 C 
ATOM     20  C   UNL     1      -8.432   1.487   6.834  0.00  0.00    +0.012 C 
ENDBRANCH  12  19
ENDBRANCH   1  15
BRANCH   8  21
ATOM     21  C   UNL     1      -0.537   5.231  -0.217  0.00  0.00    -0.035 A 
ATOM     22  C   UNL     1      -1.648   5.140  -1.036  0.00  0.00    +0.005 A 
ATOM     23  C   UNL     1      -1.536   4.577  -2.293  0.00  0.00    +0.004 A 
ATOM     24  C   UNL     1      -0.315   4.096  -2.729  0.00  0.00    -0.045 A 
ATOM     25  C   UNL     1       0.794   4.182  -1.908  0.00  0.00    +0.004 A 
ATOM     26  C   UNL     1       0.683   4.750  -0.653  0.00  0.00    +0.005 A 
BRANCH  24  27
ATOM     27  C   UNL     1      -0.194   3.478  -4.098  0.00  0.00    +0.013 C 
ATOM     28  C   UNL     1      -1.125   2.268  -4.195  0.00  0.00    +0.012 C 
ATOM     29  C   UNL     1      -0.585   4.508  -5.159  0.00  0.00    +0.012 C 
ENDBRANCH  24  27
ENDBRANCH   8  21
BRANCH  10  30
ATOM     30  N   UNL     1      -2.384   9.147   1.367  0.00  0.00    -0.343 N 
ATOM     31  H   UNL     1      -2.046   9.618   0.589  0.00  0.00    +0.144 HD
ATOM     32  H   UNL     1      -2.915   9.618   2.027  0.00  0.00    +0.144 HD
ENDBRANCH  10  30
BRANCH   9  33
ATOM     33  C   UNL     1      -0.098   8.177   0.246  0.00  0.00    +0.099 C 
ATOM     34  N   UNL     1       0.602   8.856  -0.337  0.00  0.00    -0.191 NA
ENDBRANCH   9  33
BRANCH   7  35
ATOM     35  C   UNL     1      -1.478   3.674   2.172  0.00  0.00    +0.339 C 
ATOM     36  O   UNL     1      -2.299   3.043   2.815  0.00  0.00    -0.245 OA
BRANCH  35  37
ATOM     37  O   UNL     1      -0.386   3.052   1.676  0.00  0.00    -0.459 OA
BRANCH  37  38
ATOM     38  C   UNL     1      -0.258   1.654   1.943  0.00  0.00    +0.171 C 
ATOM     39  C   UNL     1       0.503   0.984   0.797  0.00  0.00    +0.052 C 
ATOM     40  C   UNL     1       0.509   1.453   3.251  0.00  0.00    +0.052 C 
ENDBRANCH  37  38
ENDBRANCH  35  37
ENDBRANCH   7  35
TORSDOF 9
