REMARK  Name = ZINC19715405
REMARK  8 active torsions:
REMARK  status: ('A' for Active; 'I' for Inactive)
REMARK    1  A    between atoms: C_1  and  C_2
REMARK    2  A    between atoms: N_10  and  C_14
REMARK    3  A    between atoms: C_14  and  C_15
REMARK    4  A    between atoms: N_17  and  C_18
REMARK    5  A    between atoms: C_18  and  C_20
REMARK    6  A    between atoms: C_18  and  C_21
REMARK    7  A    between atoms: C_21  and  C_22
REMARK    8  A    between atoms: C_22  and  N_23
REMARK                            x       y       z     vdW  Elec       q    Type
REMARK                         _______ _______ _______ _____ _____    ______ ____
ROOT
ATOM      1  C   UNL     1      -8.056   2.941  -1.028  0.00  0.00    +0.231 C 
ATOM      2  O   UNL     1      -8.436   3.625  -1.955  0.00  0.00    -0.274 OA
ATOM      3  N   UNL     1      -6.921   3.261  -0.375  0.00  0.00    -0.311 N 
ATOM      4  H   UNL     1      -6.577   2.641   0.466  0.00  0.00    +0.149 HD
ENDROOT
BRANCH   3   5
ATOM      5  C   UNL     1      -6.147   4.436  -0.784  0.00  0.00    +0.068 C 
ATOM      6  C   UNL     1      -6.716   5.684  -0.106  0.00  0.00    +0.028 C 
BRANCH   5   7
ATOM      7  C   UNL     1      -4.685   4.252  -0.370  0.00  0.00    +0.003 C 
BRANCH   7   8
ATOM      8  C   UNL     1      -4.080   3.078  -1.143  0.00  0.00    -0.077 C 
BRANCH   8   9
ATOM      9  N   UNL     1      -2.717   2.824  -0.658  0.00  0.00    +0.380 N 
ATOM     10  C   UNL     1      -2.731   2.374   0.748  0.00  0.00    -0.079 C 
ATOM     11  C   UNL     1      -1.541   1.472   0.961  0.00  0.00    -0.019 C 
ATOM     12  C   UNL     1      -0.339   2.245   1.530  0.00  0.00    -0.002 C 
ATOM     13  C   UNL     1      -0.177   3.627   0.866  0.00  0.00    -0.002 C 
ATOM     14  C   UNL     1      -0.402   3.585  -0.624  0.00  0.00    -0.019 C 
ATOM     15  C   UNL     1      -1.882   3.914  -0.916  0.00  0.00    -0.079 C 
ATOM     16  H   UNL     1      -2.236   2.029  -1.247  0.00  0.00    -0.082 HD
ENDBRANCH   8   9
ENDBRANCH   7   8
ENDBRANCH   5   7
ENDBRANCH   3   5
BRANCH   1  17
ATOM     17  C   UNL     1      -8.853   1.734  -0.607  0.00  0.00    +0.213 C 
BRANCH  17  27
ATOM     18  C   UNL     1     -14.971   0.689  -5.655  0.00  0.00    +0.007 C 
ATOM     19  C   UNL     1     -13.541   0.527  -5.135  0.00  0.00    -0.014 C 
ATOM     20  C   UNL     1     -12.882   1.903  -5.019  0.00  0.00    +0.006 C 
ATOM     21  C   UNL     1     -11.448   1.739  -4.510  0.00  0.00    +0.035 C 
ATOM     22  C   UNL     1     -11.463   1.048  -3.151  0.00  0.00    +0.113 C 
ATOM     23  C   UNL     1     -12.140  -0.315  -3.246  0.00  0.00    +0.035 C 
ATOM     24  C   UNL     1     -13.572  -0.142  -3.759  0.00  0.00    +0.006 C 
ATOM     25  C   UNL     1     -10.056   0.901  -2.619  0.00  0.00    +0.247 C 
ATOM     26  O   UNL     1      -9.142   0.283  -3.121  0.00  0.00    -0.273 OA
ATOM     27  N   UNL     1     -10.032   1.603  -1.466  0.00  0.00    -0.215 N 
ATOM     28  C   UNL     1     -11.221   2.159  -1.203  0.00  0.00    +0.310 C 
ATOM     29  O   UNL     1     -11.447   2.835  -0.218  0.00  0.00    -0.252 OA
ATOM     30  N   UNL     1     -12.136   1.889  -2.153  0.00  0.00    -0.285 N 
ATOM     31  H   UNL     1     -13.192   2.166  -2.289  0.00  0.00    +0.151 HD
ENDBRANCH  17  27
ENDBRANCH   1  17
TORSDOF 6
