REMARK  Name = ZINC09971857
REMARK  10 active torsions:
REMARK  status: ('A' for Active; 'I' for Inactive)
REMARK    1  A    between atoms: C_1  and  C_2
REMARK    2  A    between atoms: C_6  and  C_35
REMARK    3  A    between atoms: C_7  and  N_8
REMARK    4  A    between atoms: C_9  and  C_13
REMARK    5  A    between atoms: C_13  and  C_15
REMARK    6  A    between atoms: C_13  and  N_60
REMARK    7  A    between atoms: C_22  and  C_23
REMARK    8  A    between atoms: C_22  and  N_60
REMARK    9  A    between atoms: C_23  and  C_24
REMARK   10  A    between atoms: C_25  and  C_34
REMARK                            x       y       z     vdW  Elec       q    Type
REMARK                         _______ _______ _______ _____ _____    ______ ____
ROOT
ATOM      1  C   UNL     1      -1.840   6.097   0.048  0.00  0.00    +0.030 C 
ENDROOT
BRANCH   1   2
ATOM      2  C   UNL     1      -2.136   6.389   1.496  0.00  0.00    -0.054 A 
ATOM      3  C   UNL     1      -2.294   7.695   1.919  0.00  0.00    +0.004 A 
ATOM      4  C   UNL     1      -2.572   7.963   3.247  0.00  0.00    +0.020 A 
ATOM      5  C   UNL     1      -2.680   6.924   4.154  0.00  0.00    +0.041 A 
ATOM      6  C   UNL     1      -2.517   5.617   3.731  0.00  0.00    +0.020 A 
ATOM      7  C   UNL     1      -2.245   5.350   2.402  0.00  0.00    +0.004 A 
ATOM      8 CL   UNL     1      -3.021   7.261   5.822  0.00  0.00    -0.084 Cl
ENDBRANCH   1   2
BRANCH   1  10
ATOM      9  N   UNL     1       0.639   5.646  -0.354  0.00  0.00    -0.198 N 
ATOM     10  C   UNL     1      -0.417   6.484  -0.262  0.00  0.00    +0.147 A 
ATOM     11  N   UNL     1       0.026   7.693  -0.490  0.00  0.00    -0.114 NA
ATOM     12  N   UNL     1       1.289   7.676  -0.721  0.00  0.00    -0.023 NA
ATOM     13  N   UNL     1       1.739   6.470  -0.651  0.00  0.00    -0.039 NA
BRANCH   9  20
ATOM     14  C   UNL     1       1.911   4.569   1.953  0.00  0.00    +0.046 C 
ATOM     15  C   UNL     1       1.248   3.688   0.926  0.00  0.00    -0.025 A 
ATOM     16  C   UNL     1       1.246   2.317   1.090  0.00  0.00    +0.005 A 
ATOM     17  C   UNL     1       0.636   1.507   0.149  0.00  0.00    +0.001 A 
ATOM     18  C   UNL     1       0.033   2.068  -0.962  0.00  0.00    +0.005 A 
ATOM     19  C   UNL     1       0.028   3.439  -1.129  0.00  0.00    -0.025 A 
ATOM     20  C   UNL     1       0.638   4.254  -0.185  0.00  0.00    +0.075 A 
ATOM     21  C   UNL     1      -0.634   4.049  -2.337  0.00  0.00    +0.046 C 
ENDBRANCH   9  20
ENDBRANCH   1  10
BRANCH   1  22
ATOM     22  N   UNL     1      -2.752   6.879  -0.809  0.00  0.00    +0.389 N 
ATOM     23  H   UNL     1      -2.313   7.024  -1.726  0.00  0.00    -0.084 HD
ATOM     24  H   UNL     1      -2.933   7.789  -0.368  0.00  0.00    -0.084 HD
BRANCH  22  25
ATOM     25  C   UNL     1      -4.028   6.162  -0.988  0.00  0.00    -0.076 C 
BRANCH  25  26
ATOM     26  C   UNL     1      -4.951   6.995  -1.879  0.00  0.00    +0.018 C 
BRANCH  26  27
ATOM     27  C   UNL     1      -6.258   6.269  -2.067  0.00  0.00    -0.021 A 
ATOM     28  C   UNL     1      -6.554   5.397  -3.043  0.00  0.00    +0.017 A 
ATOM     29  N   UNL     1      -7.834   4.939  -2.888  0.00  0.00    -0.358 N 
ATOM     30  H   UNL     1      -8.270   4.298  -3.471  0.00  0.00    +0.166 HD
ATOM     31  C   UNL     1      -8.411   5.527  -1.785  0.00  0.00    +0.047 A 
ATOM     32  C   UNL     1      -7.449   6.386  -1.222  0.00  0.00    +0.003 A 
ATOM     33  C   UNL     1      -7.759   7.124  -0.078  0.00  0.00    +0.010 A 
ATOM     34  C   UNL     1      -8.997   7.008   0.489  0.00  0.00    +0.001 A 
ATOM     35  C   UNL     1      -9.949   6.162  -0.062  0.00  0.00    +0.002 A 
ATOM     36  C   UNL     1      -9.664   5.424  -1.191  0.00  0.00    +0.026 A 
ATOM     37  C   UNL     1      -5.614   4.981  -4.145  0.00  0.00    +0.063 C 
ENDBRANCH  26  27
ENDBRANCH  25  26
ENDBRANCH  22  25
ENDBRANCH   1  22
TORSDOF 7
