REMARK  Name = ZINC16603187
REMARK  14 active torsions:
REMARK  status: ('A' for Active; 'I' for Inactive)
REMARK    1  A    between atoms: C_1  and  C_2
REMARK    2  A    between atoms: C_2  and  O_3
REMARK    3  A    between atoms: O_3  and  C_4
REMARK    4  A    between atoms: C_4  and  C_6
REMARK    5  A    between atoms: C_7  and  C_40
REMARK    6  A    between atoms: N_8  and  C_20
REMARK    7  A    between atoms: C_12  and  C_14
REMARK    8  A    between atoms: C_20  and  C_21
REMARK    9  A    between atoms: C_25  and  C_27
REMARK   10  A    between atoms: N_29  and  C_30
REMARK   11  A    between atoms: C_30  and  C_31
REMARK   12  A    between atoms: C_31  and  C_32
REMARK   13  A    between atoms: C_32  and  N_80
REMARK   14  A    between atoms: C_37  and  C_39
REMARK                            x       y       z     vdW  Elec       q    Type
REMARK                         _______ _______ _______ _____ _____    ______ ____
ROOT
ATOM      1  C   UNL     1       6.784  10.053   0.534  0.00  0.00    -0.029 A 
ATOM      2  C   UNL     1       5.549  10.617   0.265  0.00  0.00    +0.005 A 
ATOM      3  C   UNL     1       4.414   9.827   0.225  0.00  0.00    +0.001 A 
ATOM      4  C   UNL     1       4.508   8.468   0.449  0.00  0.00    +0.013 A 
ATOM      5  C   UNL     1       5.750   7.894   0.725  0.00  0.00    +0.037 A 
ATOM      6  C   UNL     1       6.891   8.698   0.764  0.00  0.00    +0.018 A 
ENDROOT
BRANCH   5   7
ATOM      7  C   UNL     1       5.857   6.440   0.970  0.00  0.00    +0.244 C 
ATOM      8  O   UNL     1       6.941   5.942   1.206  0.00  0.00    -0.270 OA
ATOM      9  N   UNL     1       4.754   5.667   0.932  0.00  0.00    -0.311 N 
ATOM     10  H   UNL     1       3.889   6.065   0.744  0.00  0.00    +0.149 HD
BRANCH   9  11
ATOM     11  C   UNL     1       4.861   4.226   1.175  0.00  0.00    +0.102 C 
BRANCH  11  12
ATOM     12  C   UNL     1       3.474   3.588   1.075  0.00  0.00    +0.000 C 
BRANCH  12  13
ATOM     13  C   UNL     1       3.585   2.083   1.329  0.00  0.00    -0.077 C 
BRANCH  13  20
ATOM     14  C   UNL     1       1.535   1.956   0.047  0.00  0.00    -0.078 C 
ATOM     15  C   UNL     1       0.104   1.412   0.057  0.00  0.00    -0.019 C 
ATOM     16  C   UNL     1       0.146  -0.118   0.061  0.00  0.00    -0.003 C 
ATOM     17  C   UNL     1       0.940  -0.597   1.279  0.00  0.00    -0.016 C 
ATOM     18  C   UNL     1       2.346   0.005   1.234  0.00  0.00    -0.072 C 
ATOM     19  C   UNL     1       3.138  -0.454   2.460  0.00  0.00    -0.013 C 
ATOM     20  N   UNL     1       2.238   1.480   1.257  0.00  0.00    +0.381 N 
ATOM     21  H   UNL     1       1.702   1.761   2.086  0.00  0.00    -0.081 HD
ENDBRANCH  13  20
ENDBRANCH  12  13
ENDBRANCH  11  12
ENDBRANCH   9  11
ENDBRANCH   5   7
BRANCH   1  22
ATOM     22  C   UNL     1       8.014  10.923   0.575  0.00  0.00    +0.148 C 
BRANCH  22  25
ATOM     23  C   UNL     1       9.942   9.661  -2.297  0.00  0.00    +0.061 C 
ATOM     24  C   UNL     1       9.539   9.882  -1.034  0.00  0.00    +0.021 C 
ATOM     25  N   UNL     1       8.673  10.899  -0.734  0.00  0.00    -0.271 N 
ATOM     26  C   UNL     1       8.413  11.873  -1.623  0.00  0.00    +0.221 C 
ATOM     27  O   UNL     1       7.573  12.711  -1.374  0.00  0.00    -0.275 OA
ATOM     28  C   UNL     1       9.168  11.930  -2.928  0.00  0.00    +0.109 C 
ATOM     29  C   UNL     1       9.416  10.506  -3.428  0.00  0.00    +0.066 C 
ATOM     30  C   UNL     1      10.048   8.994   0.071  0.00  0.00    +0.061 C 
BRANCH  29  31
ATOM     31  C   UNL     1       8.124   9.919  -3.935  0.00  0.00    -0.039 A 
ATOM     32  C   UNL     1       7.045   9.784  -3.083  0.00  0.00    +0.004 A 
ATOM     33  C   UNL     1       5.858   9.251  -3.550  0.00  0.00    +0.000 A 
ATOM     34  C   UNL     1       5.755   8.841  -4.866  0.00  0.00    +0.000 A 
ATOM     35  C   UNL     1       6.836   8.970  -5.717  0.00  0.00    +0.000 A 
ATOM     36  C   UNL     1       8.021   9.509  -5.252  0.00  0.00    +0.004 A 
ENDBRANCH  29  31
BRANCH  23  37
ATOM     37  C   UNL     1      10.869   8.626  -2.566  0.00  0.00    +0.337 C 
ATOM     38  O   UNL     1      11.297   7.940  -1.656  0.00  0.00    -0.245 OA
BRANCH  37  39
ATOM     39  O   UNL     1      11.278   8.399  -3.832  0.00  0.00    -0.462 OA
BRANCH  39  41
ATOM     40  C   UNL     1      12.558   7.233  -5.518  0.00  0.00    +0.048 C 
ATOM     41  C   UNL     1      12.215   7.338  -4.030  0.00  0.00    +0.229 C 
ENDBRANCH  39  41
ENDBRANCH  37  39
ENDBRANCH  23  37
ENDBRANCH  22  25
ENDBRANCH   1  22
TORSDOF 11
