REMARK  Name = ZINC22127054
REMARK  3 active torsions:
REMARK  status: ('A' for Active; 'I' for Inactive)
REMARK    1  A    between atoms: C_1  and  C_2
REMARK    2  A    between atoms: C_3  and  C_15
REMARK    3  A    between atoms: C_9  and  C_14
REMARK                            x       y       z     vdW  Elec       q    Type
REMARK                         _______ _______ _______ _____ _____    ______ ____
ROOT
ATOM      1  C   UNL     1      -0.018   1.503   0.010  0.00  0.00    +0.064 C 
ATOM      2  C   UNL     1       0.002  -0.004   0.002  0.00  0.00    +0.028 A 
ATOM      3  C   UNL     1      -0.003  -0.795  -1.115  0.00  0.00    +0.094 A 
ATOM      4  C   UNL     1       0.025  -2.170  -0.619  0.00  0.00    +0.052 A 
ATOM      5  C   UNL     1       0.038  -2.095   0.754  0.00  0.00    +0.028 A 
ATOM      6  N   UNL     1       0.023  -0.801   1.102  0.00  0.00    -0.361 N 
ATOM      7  H   UNL     1       0.025  -0.351   2.107  0.00  0.00    +0.165 HD
ATOM      8  C   UNL     1       0.068  -3.317   1.639  0.00  0.00    +0.057 C 
ATOM      9  C   UNL     1       0.587  -4.512   0.834  0.00  0.00    -0.001 C 
ATOM     10  C   UNL     1      -0.211  -4.676  -0.465  0.00  0.00    +0.083 C 
ATOM     11  C   UNL     1       0.033  -3.450  -1.332  0.00  0.00    +0.166 C 
ATOM     12  O   UNL     1       0.220  -3.526  -2.529  0.00  0.00    -0.292 OA
ATOM     13  C   UNL     1       0.450  -5.783   1.674  0.00  0.00    +0.008 C 
ENDROOT
BRANCH   3  14
ATOM     14  C   UNL     1      -0.029  -0.355  -2.518  0.00  0.00    +0.389 C 
ATOM     15  O   UNL     1       1.012  -0.159  -3.113  0.00  0.00    -0.241 OA
ATOM     16  O   UNL     1      -1.209  -0.168  -3.144  0.00  0.00    -0.241 OA
ENDBRANCH   3  14
TORSDOF 1
