REMARK  Name = ZINC64661807
REMARK  5 active torsions:
REMARK  status: ('A' for Active; 'I' for Inactive)
REMARK    1  A    between atoms: C_1  and  C_2
REMARK    2  A    between atoms: C_2  and  C_3
REMARK    3  A    between atoms: C_3  and  N_4
REMARK    4  A    between atoms: C_8  and  C_15
REMARK    5  A    between atoms: C_17  and  C_20
REMARK                            x       y       z     vdW  Elec       q    Type
REMARK                         _______ _______ _______ _____ _____    ______ ____
ROOT
ATOM      1  N   UNL     1      -1.413  -1.998   0.005  0.00  0.00    -0.292 N 
ATOM      2  C   UNL     1      -1.408  -2.806  -1.128  0.00  0.00    +0.070 A 
ATOM      3  C   UNL     1      -1.418  -2.533  -2.490  0.00  0.00    +0.029 A 
ATOM      4  C   UNL     1      -1.408  -3.567  -3.400  0.00  0.00    +0.014 A 
ATOM      5  C   UNL     1      -1.388  -4.890  -2.958  0.00  0.00    +0.025 A 
ATOM      6  C   UNL     1      -1.377  -5.169  -1.594  0.00  0.00    +0.039 A 
ATOM      7  C   UNL     1      -1.387  -4.130  -0.680  0.00  0.00    +0.068 A 
ATOM      8  N   UNL     1      -1.381  -4.083   0.712  0.00  0.00    -0.306 N 
ATOM      9  H   UNL     1      -1.367  -4.850   1.306  0.00  0.00    +0.170 HD
ATOM     10  C   UNL     1      -1.392  -2.792   1.092  0.00  0.00    +0.328 A 
ATOM     11  O   UNL     1      -1.386  -2.400   2.245  0.00  0.00    -0.247 OA
ENDROOT
BRANCH   5  12
ATOM     12  C   UNL     1      -1.379  -6.001  -3.943  0.00  0.00    +0.202 A 
ATOM     13  N   UNL     1      -1.383  -5.861  -5.278  0.00  0.00    -0.187 NA
ATOM     14  C   UNL     1      -1.371  -7.042  -5.851  0.00  0.00    +0.259 A 
ATOM     15  O   UNL     1      -1.359  -7.978  -4.886  0.00  0.00    -0.332 OA
ATOM     16  N   UNL     1      -1.360  -7.279  -3.651  0.00  0.00    -0.056 NA
BRANCH  14  17
ATOM     17  C   UNL     1      -1.371  -7.298  -7.307  0.00  0.00    +0.040 A 
ATOM     18  C   UNL     1      -1.379  -6.231  -8.206  0.00  0.00    +0.014 A 
ATOM     19  C   UNL     1      -1.379  -6.476  -9.563  0.00  0.00    +0.016 A 
ATOM     20  C   UNL     1      -1.373  -7.778 -10.034  0.00  0.00    +0.018 A 
ATOM     21  C   UNL     1      -1.365  -8.841  -9.147  0.00  0.00    +0.016 A 
ATOM     22  C   UNL     1      -1.358  -8.608  -7.788  0.00  0.00    +0.014 A 
ATOM     23 BR   UNL     1      -1.374  -8.106 -11.897  0.00  0.00    -0.050 Br
ENDBRANCH  14  17
ENDBRANCH   5  12
BRANCH   1  24
ATOM     24  C   UNL     1      -1.433  -0.534   0.013  0.00  0.00    +0.127 C 
BRANCH  24  26
ATOM     25  C   UNL     1      -0.019   1.526   0.010  0.00  0.00    +0.005 C 
ATOM     26  C   UNL     1       0.002  -0.004   0.002  0.00  0.00    +0.018 C 
ENDBRANCH  24  26
ENDBRANCH   1  24
TORSDOF 4
