REMARK  Name = ZINC35094600
REMARK  14 active torsions:
REMARK  status: ('A' for Active; 'I' for Inactive)
REMARK    1  A    between atoms: C_1  and  C_2
REMARK    2  A    between atoms: C_2  and  O_3
REMARK    3  A    between atoms: O_3  and  C_4
REMARK    4  A    between atoms: C_9  and  N_10
REMARK    5  A    between atoms: C_20  and  C_21
REMARK    6  A    between atoms: C_21  and  C_23
REMARK    7  A    between atoms: C_21  and  N_24
REMARK    8  A    between atoms: N_24  and  C_25
REMARK    9  A    between atoms: C_25  and  C_26
REMARK   10  A    between atoms: C_26  and  N_27
REMARK   11  A    between atoms: N_27  and  C_28
REMARK   12  A    between atoms: N_27  and  C_29
REMARK   13  A    between atoms: C_30  and  C_32
REMARK   14  A    between atoms: C_33  and  C_34
REMARK                            x       y       z     vdW  Elec       q    Type
REMARK                         _______ _______ _______ _____ _____    ______ ____
ROOT
ATOM      1  N   UNL     1       2.391  -0.118   3.093  0.00  0.00    -0.259 N 
ATOM      2  C   UNL     1       1.746   0.402   4.163  0.00  0.00    +0.266 A 
ATOM      3  O   UNL     1       0.965   1.328   4.042  0.00  0.00    -0.267 OA
ATOM      4  C   UNL     1       2.023  -0.195   5.477  0.00  0.00    +0.065 A 
ATOM      5  C   UNL     1       1.411   0.266   6.641  0.00  0.00    +0.015 A 
ATOM      6  C   UNL     1       1.707  -0.331   7.846  0.00  0.00    +0.001 A 
ATOM      7  C   UNL     1       2.610  -1.385   7.910  0.00  0.00    +0.002 A 
ATOM      8  C   UNL     1       3.226  -1.855   6.772  0.00  0.00    +0.028 A 
ATOM      9  C   UNL     1       2.941  -1.267   5.538  0.00  0.00    +0.078 A 
ATOM     10  N   UNL     1       3.525  -1.700   4.393  0.00  0.00    -0.231 NA
ATOM     11  C   UNL     1       3.256  -1.156   3.244  0.00  0.00    +0.138 A 
ENDROOT
BRANCH   1  17
ATOM     12  C   UNL     1       2.883   1.525   1.383  0.00  0.00    +0.144 A 
ATOM     13  C   UNL     1       2.655   2.044   0.118  0.00  0.00    +0.048 A 
ATOM     14  C   UNL     1       1.711   1.464  -0.707  0.00  0.00    +0.004 A 
ATOM     15  C   UNL     1       0.990   0.365  -0.275  0.00  0.00    +0.002 A 
ATOM     16  C   UNL     1       1.211  -0.158   0.984  0.00  0.00    +0.030 A 
ATOM     17  C   UNL     1       2.162   0.415   1.817  0.00  0.00    +0.093 A 
BRANCH  12  18
ATOM     18  O   UNL     1       3.812   2.094   2.196  0.00  0.00    -0.490 OA
BRANCH  18  20
ATOM     19  C   UNL     1       5.509   3.728   2.734  0.00  0.00    +0.048 C 
ATOM     20  C   UNL     1       4.513   3.229   1.685  0.00  0.00    +0.226 C 
ENDBRANCH  18  20
ENDBRANCH  12  18
ENDBRANCH   1  17
BRANCH  11  21
ATOM     21  C   UNL     1       3.943  -1.700   2.018  0.00  0.00    +0.140 C 
ATOM     22  C   UNL     1       3.703  -3.208   1.924  0.00  0.00    +0.036 C 
BRANCH  21  23
ATOM     23  N   UNL     1       5.382  -1.439   2.108  0.00  0.00    -0.290 N 
ATOM     24  C   UNL     1       5.992  -0.692   1.167  0.00  0.00    +0.240 C 
ATOM     25  O   UNL     1       5.348  -0.234   0.242  0.00  0.00    -0.271 OA
BRANCH  24  26
ATOM     26  C   UNL     1       7.430  -0.431   1.257  0.00  0.00    +0.068 C 
ATOM     27  C   UNL     1       8.040   0.316   0.315  0.00  0.00    +0.013 C 
BRANCH  27  28
ATOM     28  C   UNL     1       9.486   0.578   0.406  0.00  0.00    -0.025 A 
ATOM     29  C   UNL     1      10.231   0.048   1.464  0.00  0.00    +0.008 A 
ATOM     30  C   UNL     1      11.585   0.298   1.542  0.00  0.00    +0.001 A 
ATOM     31  C   UNL     1      12.207   1.070   0.577  0.00  0.00    +0.000 A 
ATOM     32  C   UNL     1      11.476   1.598  -0.473  0.00  0.00    +0.001 A 
ATOM     33  C   UNL     1      10.123   1.352  -0.569  0.00  0.00    +0.008 A 
ENDBRANCH  27  28
ENDBRANCH  24  26
BRANCH  23  34
ATOM     34  C   UNL     1       6.158  -1.991   3.221  0.00  0.00    +0.090 C 
BRANCH  34  35
ATOM     35  C   UNL     1       6.692  -3.372   2.836  0.00  0.00    -0.060 C 
BRANCH  35  36
ATOM     36  N   UNL     1       7.470  -3.925   3.953  0.00  0.00    +0.377 N 
ATOM     37  C   UNL     1       6.582  -4.158   5.100  0.00  0.00    -0.097 C 
ATOM     38  C   UNL     1       8.081  -5.196   3.541  0.00  0.00    -0.097 C 
ATOM     39  H   UNL     1       8.193  -3.273   4.214  0.00  0.00    -0.083 HD
ENDBRANCH  35  36
ENDBRANCH  34  35
ENDBRANCH  23  34
ENDBRANCH  21  23
ENDBRANCH  11  21
TORSDOF 10
