REMARK  Name = ZINC65648316
REMARK  6 active torsions:
REMARK  status: ('A' for Active; 'I' for Inactive)
REMARK    1  A    between atoms: C_1  and  C_2
REMARK    2  A    between atoms: C_5  and  O_9
REMARK    3  A    between atoms: C_7  and  C_8
REMARK    4  A    between atoms: O_9  and  C_10
REMARK    5  A    between atoms: C_10  and  C_12
REMARK    6  A    between atoms: C_16  and  N_18
REMARK                            x       y       z     vdW  Elec       q    Type
REMARK                         _______ _______ _______ _____ _____    ______ ____
ROOT
ATOM      1  C   UNL     1       0.346  -6.355  -1.232  0.00  0.00    +0.061 A 
ATOM      2  C   UNL     1      -0.143  -6.972  -0.079  0.00  0.00    +0.015 A 
ATOM      3  C   UNL     1      -0.720  -8.223  -0.157  0.00  0.00    +0.003 A 
ATOM      4  C   UNL     1      -0.816  -8.870  -1.376  0.00  0.00    +0.025 A 
ATOM      5  C   UNL     1      -0.332  -8.265  -2.529  0.00  0.00    +0.057 A 
ATOM      6  C   UNL     1       0.244  -7.006  -2.462  0.00  0.00    +0.040 A 
ENDROOT
BRANCH   5   7
ATOM      7  N   UNL     1      -0.432  -8.924  -3.760  0.00  0.00    -0.188 N 
ATOM      8  C   UNL     1      -0.029 -10.207  -3.871  0.00  0.00    +0.240 C 
ATOM      9  O   UNL     1       0.468 -10.775  -2.921  0.00  0.00    -0.273 OA
ATOM     10  C   UNL     1      -0.200 -10.930  -5.180  0.00  0.00    +0.093 C 
ATOM     11  C   UNL     1      -0.317 -12.437  -4.944  0.00  0.00    +0.040 C 
ATOM     12  C   UNL     1      -0.740 -13.115  -6.216  0.00  0.00    -0.030 C 
ATOM     13  C   UNL     1      -1.270 -12.501  -7.225  0.00  0.00    -0.030 C 
ATOM     14  C   UNL     1      -1.534 -11.022  -7.268  0.00  0.00    +0.040 C 
ATOM     15  C   UNL     1      -1.497 -10.452  -5.849  0.00  0.00    +0.092 C 
ATOM     16  C   UNL     1      -1.502  -8.947  -5.890  0.00  0.00    +0.234 C 
ATOM     17  O   UNL     1      -1.998  -8.364  -6.830  0.00  0.00    -0.274 OA
ATOM     18  N   UNL     1      -0.955  -8.253  -4.873  0.00  0.00    -0.227 N 
ATOM     19  H   UNL     1      -0.922  -7.284  -4.914  0.00  0.00    +0.173 HD
ENDBRANCH   5   7
BRANCH   1  20
ATOM     20  C   UNL     1       0.964  -5.016  -1.151  0.00  0.00    +0.344 C 
ATOM     21  O   UNL     1       1.385  -4.479  -2.157  0.00  0.00    -0.245 OA
BRANCH  20  22
ATOM     22  O   UNL     1       1.062  -4.390   0.038  0.00  0.00    -0.422 OA
BRANCH  22  27
ATOM     23  C   UNL     1       3.023   0.890   0.095  0.00  0.00    +0.044 C 
ATOM     24  C   UNL     1       2.498  -0.523   0.080  0.00  0.00    -0.047 A 
ATOM     25  C   UNL     1       1.232  -0.783  -0.410  0.00  0.00    +0.007 A 
ATOM     26  C   UNL     1       0.749  -2.077  -0.425  0.00  0.00    +0.046 A 
ATOM     27  C   UNL     1       1.536  -3.116   0.051  0.00  0.00    +0.132 A 
ATOM     28  C   UNL     1       2.806  -2.852   0.541  0.00  0.00    +0.050 A 
ATOM     29  C   UNL     1       3.287  -1.557   0.549  0.00  0.00    -0.044 A 
ATOM     30  C   UNL     1       4.669  -1.270   1.076  0.00  0.00    +0.044 C 
ENDBRANCH  22  27
ENDBRANCH  20  22
ENDBRANCH   1  20
TORSDOF 4
