REMARK  Name = ZINC33553175
REMARK  13 active torsions:
REMARK  status: ('A' for Active; 'I' for Inactive)
REMARK    1  A    between atoms: C_4  and  N_32
REMARK    2  A    between atoms: C_5  and  N_7
REMARK    3  A    between atoms: N_7  and  CA_8
REMARK    4  A    between atoms: CA_8  and  CB_10
REMARK    5  A    between atoms: CA_8  and  C_29
REMARK    6  A    between atoms: CB_10  and  SG_11
REMARK    7  A    between atoms: SG_11  and  SG_12
REMARK    8  A    between atoms: SG_12  and  CB_13
REMARK    9  A    between atoms: CB_13  and  CA_14
REMARK   10  A    between atoms: CA_14  and  C_16
REMARK   11  A    between atoms: CA_14  and  N_19
REMARK   12  A    between atoms: N_19  and  C_20
REMARK   13  A    between atoms: C_25  and  N_26
REMARK                            x       y       z     vdW  Elec       q    Type
REMARK                         _______ _______ _______ _____ _____    ______ ____
ROOT
ATOM      1  SG  CYS A   1      -0.761   2.346  -0.405  0.00  0.00    -0.091 S 
ENDROOT
BRANCH   1   2
ATOM      2  CB  CYS A   1       0.940   2.916  -0.678  0.00  0.00    +0.114 C 
BRANCH   2   3
ATOM      3  CA  CYS A   1       1.457   2.360  -2.006  0.00  0.00    +0.195 C 
BRANCH   3   4
ATOM      4  C   CYS A   1       2.908   2.731  -2.175  0.00  0.00    +0.377 C 
ATOM      5  O   CYS A   1       3.255   3.400  -3.119  0.00  0.00    -0.244 OA
ATOM      6  OXT CYS A   1       3.815   2.318  -1.276  0.00  0.00    -0.244 OA
ENDBRANCH   3   4
BRANCH   3   7
ATOM      7  N   CYS A   1       0.677   2.926  -3.109  0.00  0.00    -0.329 N 
ATOM      8  H   CYS A   1       0.172   3.896  -2.985  0.00  0.00    +0.147 HD
BRANCH   7  13
ATOM      9  C   UNK A   0       1.012   0.282  -5.638  0.00  0.00    +0.002 A 
ATOM     10  C   UNK A   0       0.371   0.867  -6.715  0.00  0.00    +0.002 A 
ATOM     11  C   UNK A   0      -0.168   2.135  -6.597  0.00  0.00    +0.034 A 
ATOM     12  C   UNK A   0      -0.073   2.819  -5.401  0.00  0.00    +0.147 A 
ATOM     13  C   UNK A   0       0.574   2.236  -4.319  0.00  0.00    +0.058 A 
ATOM     14  C   UNK A   0       1.115   0.962  -4.441  0.00  0.00    +0.025 A 
BRANCH  12  15
ATOM     15  N   UNK A   0      -0.656   4.173  -5.273  0.00  0.00    +0.058 N 
ATOM     16  O   UNK A   0      -1.123   4.730  -6.250  0.00  0.00    -0.126 OA
ATOM     17  O   UNK A   0      -0.667   4.732  -4.191  0.00  0.00    -0.126 OA
ENDBRANCH  12  15
ENDBRANCH   7  13
ENDBRANCH   3   7
ENDBRANCH   2   3
ENDBRANCH   1   2
BRANCH   1  18
ATOM     18  SG  CYS A   1      -0.558   0.339  -0.036  0.00  0.00    -0.091 S 
BRANCH  18  19
ATOM     19  CB  CYS A   1      -0.199   0.254   1.740  0.00  0.00    +0.114 C 
BRANCH  19  20
ATOM     20  CA  CYS A   1      -1.451   0.637   2.533  0.00  0.00    +0.195 C 
BRANCH  20  21
ATOM     21  C   CYS A   1      -1.120   0.685   4.002  0.00  0.00    +0.377 C 
ATOM     22  O   CYS A   1      -1.701  -0.038   4.776  0.00  0.00    -0.244 OA
ATOM     23  OXT CYS A   1      -0.181   1.533   4.451  0.00  0.00    -0.244 OA
ENDBRANCH  20  21
BRANCH  20  24
ATOM     24  N   CYS A   1      -2.499  -0.360   2.301  0.00  0.00    -0.329 N 
ATOM     25  H   CYS A   1      -2.228  -1.385   2.005  0.00  0.00    +0.147 HD
BRANCH  24  26
ATOM     26  C   UNK A   0      -3.843  -0.010   2.454  0.00  0.00    +0.058 A 
ATOM     27  C   UNK A   0      -4.183   1.244   2.946  0.00  0.00    +0.025 A 
ATOM     28  C   UNK A   0      -5.512   1.587   3.097  0.00  0.00    +0.002 A 
ATOM     29  C   UNK A   0      -6.504   0.684   2.760  0.00  0.00    +0.002 A 
ATOM     30  C   UNK A   0      -6.168  -0.565   2.269  0.00  0.00    +0.034 A 
ATOM     31  C   UNK A   0      -4.841  -0.912   2.111  0.00  0.00    +0.147 A 
BRANCH  31  32
ATOM     32  N   UNK A   0      -4.483  -2.247   1.580  0.00  0.00    +0.058 N 
ATOM     33  O   UNK A   0      -5.355  -2.996   1.177  0.00  0.00    -0.126 OA
ATOM     34  O   UNK A   0      -3.317  -2.596   1.548  0.00  0.00    -0.126 OA
ENDBRANCH  31  32
ENDBRANCH  24  26
ENDBRANCH  20  24
ENDBRANCH  19  20
ENDBRANCH  18  19
ENDBRANCH   1  18
TORSDOF 13
