REMARK  Name = ZINC23039050
REMARK  13 active torsions:
REMARK  status: ('A' for Active; 'I' for Inactive)
REMARK    1  A    between atoms: C_1  and  C_2
REMARK    2  A    between atoms: C_6  and  N_9
REMARK    3  A    between atoms: C_7  and  C_8
REMARK    4  A    between atoms: C_10  and  C_12
REMARK    5  A    between atoms: C_12  and  N_13
REMARK    6  A    between atoms: N_13  and  C_14
REMARK    7  A    between atoms: N_13  and  C_15
REMARK    8  A    between atoms: C_15  and  C_16
REMARK    9  A    between atoms: N_18  and  N_19
REMARK   10  A    between atoms: C_22  and  C_26
REMARK   11  A    between atoms: C_22  and  C_27
REMARK   12  A    between atoms: C_27  and  C_28
REMARK   13  A    between atoms: C_28  and  C_29
REMARK                            x       y       z     vdW  Elec       q    Type
REMARK                         _______ _______ _______ _____ _____    ______ ____
ROOT
ATOM      1  C   UNL     1      -0.011   1.212   0.037  0.00  0.00    +0.213 C 
ATOM      2  O   UNL     1       0.004  -0.000   0.023  0.00  0.00    -0.276 OA
ATOM      3  N   UNL     1      -1.186   1.872   0.056  0.00  0.00    -0.225 N 
ATOM      4  H   UNL     1      -1.199   2.972   0.069  0.00  0.00    +0.173 HD
ENDROOT
BRANCH   3   5
ATOM      5  N   UNL     1      -2.390   1.157   0.059  0.00  0.00    -0.137 N 
ATOM      6  C   UNL     1      -3.179   1.006   1.142  0.00  0.00    +0.263 C 
ATOM      7  O   UNL     1      -2.986   1.445   2.255  0.00  0.00    -0.271 OA
ATOM      8  C   UNL     1      -4.356   0.171   0.678  0.00  0.00    +0.112 C 
ATOM      9  N   UNL     1      -4.068  -0.074  -0.746  0.00  0.00    -0.284 N 
ATOM     10  C   UNL     1      -2.904   0.544  -1.014  0.00  0.00    +0.326 C 
ATOM     11  O   UNL     1      -2.375   0.544  -2.109  0.00  0.00    -0.251 OA
ATOM     12  C   UNL     1      -4.418  -1.149   1.450  0.00  0.00    +0.041 C 
ATOM     13  H   UNL     1      -4.764  -0.670  -1.353  0.00  0.00    +0.151 HD
BRANCH   8  14
ATOM     14  C   UNL     1      -5.664   0.949   0.840  0.00  0.00    +0.040 C 
BRANCH  14  15
ATOM     15  C   UNL     1      -6.833   0.084   0.365  0.00  0.00    +0.038 C 
BRANCH  15  16
ATOM     16  C   UNL     1      -8.121   0.850   0.524  0.00  0.00    -0.047 A 
ATOM     17  C   UNL     1      -8.839   0.757   1.702  0.00  0.00    +0.003 A 
ATOM     18  C   UNL     1     -10.018   1.464   1.849  0.00  0.00    +0.000 A 
ATOM     19  C   UNL     1     -10.485   2.255   0.816  0.00  0.00    +0.000 A 
ATOM     20  C   UNL     1      -9.769   2.342  -0.364  0.00  0.00    +0.000 A 
ATOM     21  C   UNL     1      -8.588   1.640  -0.510  0.00  0.00    +0.003 A 
ENDBRANCH  15  16
ENDBRANCH  14  15
ENDBRANCH   8  14
ENDBRANCH   3   5
BRANCH   1  22
ATOM     22  C   UNL     1       1.285   1.982   0.028  0.00  0.00    +0.020 C 
BRANCH  22  23
ATOM     23  N   UNL     1       2.413   1.041   0.001  0.00  0.00    +0.389 N 
ATOM     24  C   UNL     1       2.478   0.261   1.244  0.00  0.00    -0.095 C 
ATOM     25  H   UNL     1       2.248   0.339  -0.830  0.00  0.00    -0.081 HD
BRANCH  23  26
ATOM     26  C   UNL     1       3.679   1.744  -0.247  0.00  0.00    +0.019 C 
BRANCH  26  28
ATOM     27  N   UNL     1       6.025   1.155  -0.767  0.00  0.00    -0.287 N 
ATOM     28  C   UNL     1       4.769   0.737  -0.512  0.00  0.00    +0.201 C 
ATOM     29  O   UNL     1       4.516  -0.449  -0.496  0.00  0.00    -0.278 OA
ATOM     30  H   UNL     1       6.236   2.229  -0.871  0.00  0.00    +0.155 HD
BRANCH  27  36
ATOM     31  C   UNL     1      10.440  -0.042  -2.567  0.00  0.00    +0.044 C 
ATOM     32  C   UNL     1       9.211  -0.385  -1.765  0.00  0.00    -0.046 A 
ATOM     33  C   UNL     1       9.105  -1.622  -1.157  0.00  0.00    +0.004 A 
ATOM     34  C   UNL     1       7.980  -1.940  -0.420  0.00  0.00    +0.002 A 
ATOM     35  C   UNL     1       6.956  -1.021  -0.289  0.00  0.00    +0.023 A 
ATOM     36  C   UNL     1       7.059   0.222  -0.898  0.00  0.00    +0.036 A 
ATOM     37  C   UNL     1       8.189   0.536  -1.643  0.00  0.00    -0.026 A 
ATOM     38  C   UNL     1       8.302   1.882  -2.311  0.00  0.00    +0.046 C 
ENDBRANCH  27  36
ENDBRANCH  26  28
ENDBRANCH  23  26
ENDBRANCH  22  23
ENDBRANCH   1  22
TORSDOF 9
