REMARK  Name = ZINC16154305
REMARK  4 active torsions:
REMARK  status: ('A' for Active; 'I' for Inactive)
REMARK    1  A    between atoms: C_4  and  S_8
REMARK    2  A    between atoms: S_8  and  N_11
REMARK    3  A    between atoms: N_11  and  N_12
REMARK    4  A    between atoms: C_13  and  C_15
REMARK                            x       y       z     vdW  Elec       q    Type
REMARK                         _______ _______ _______ _____ _____    ______ ____
ROOT
ATOM      1  N   UNL     1       3.548  -1.820   2.389  0.00  0.00    -0.231 N 
ATOM      2  C   UNL     1       4.038  -2.890   3.046  0.00  0.00    +0.234 C 
ATOM      3  O   UNL     1       5.198  -3.212   2.900  0.00  0.00    -0.274 OA
ATOM      4  H   UNL     1       2.620  -1.562   2.506  0.00  0.00    +0.171 HD
ENDROOT
BRANCH   2   5
ATOM      5  C   UNL     1       3.145  -3.685   3.963  0.00  0.00    +0.049 C 
ATOM      6  C   UNL     1       2.618  -2.777   5.076  0.00  0.00    +0.019 C 
ATOM      7  C   UNL     1       1.712  -3.584   6.007  0.00  0.00    -0.009 C 
ATOM      8  C   UNL     1       2.509  -4.736   6.623  0.00  0.00    +0.007 C 
ATOM      9  C   UNL     1       3.036  -5.644   5.510  0.00  0.00    -0.009 C 
ATOM     10  C   UNL     1       3.942  -4.837   4.579  0.00  0.00    +0.019 C 
ATOM     11  C   UNL     1       1.859  -6.208   4.713  0.00  0.00    +0.007 C 
ATOM     12  C   UNL     1       1.061  -5.057   4.097  0.00  0.00    -0.009 C 
ATOM     13  C   UNL     1       0.534  -4.149   5.210  0.00  0.00    +0.007 C 
ATOM     14  C   UNL     1       1.968  -4.249   3.166  0.00  0.00    +0.019 C 
ENDBRANCH   2   5
BRANCH   1  15
ATOM     15  N   UNL     1       4.378  -1.081   1.536  0.00  0.00    -0.108 NA
ATOM     16  H   UNL     1       5.212  -0.714   1.870  0.00  0.00    +0.172 HD
BRANCH  15  17
ATOM     17  S   UNL     1       3.936  -0.833  -0.040  0.00  0.00    +0.074 S 
ATOM     18  O   UNL     1       3.676  -2.115  -0.595  0.00  0.00    -0.152 OA
ATOM     19  O   UNL     1       4.893   0.058  -0.595  0.00  0.00    -0.152 OA
BRANCH  17  23
ATOM     20  C   UNL     1      -0.017   1.380   0.010  0.00  0.00    +0.076 A 
ATOM     21  C   UNL     1       1.173   2.087   0.002  0.00  0.00    +0.128 A 
ATOM     22  C   UNL     1       2.381   1.410  -0.013  0.00  0.00    +0.067 A 
ATOM     23  C   UNL     1       2.398   0.028  -0.021  0.00  0.00    +0.112 A 
ATOM     24  C   UNL     1       1.211  -0.679  -0.014  0.00  0.00    +0.067 A 
ATOM     25  C   UNL     1       0.002  -0.004   0.002  0.00  0.00    +0.128 A 
ATOM     26  F   UNL     1      -1.159  -0.696   0.009  0.00  0.00    -0.205 F 
ATOM     27  F   UNL     1       1.156   3.438   0.009  0.00  0.00    -0.205 F 
ENDBRANCH  17  23
ENDBRANCH  15  17
ENDBRANCH   1  15
TORSDOF 4
