REMARK  Name = ZINC42008065
REMARK  8 active torsions:
REMARK  status: ('A' for Active; 'I' for Inactive)
REMARK    1  A    between atoms: C_1  and  C_2
REMARK    2  A    between atoms: C_2  and  C_3
REMARK    3  A    between atoms: C_3  and  C_4
REMARK    4  A    between atoms: C_3  and  C_11
REMARK    5  A    between atoms: C_3  and  S_14
REMARK    6  A    between atoms: C_7  and  C_10
REMARK    7  A    between atoms: S_14  and  C_15
REMARK    8  A    between atoms: C_20  and  N_21
REMARK                            x       y       z     vdW  Elec       q    Type
REMARK                         _______ _______ _______ _____ _____    ______ ____
ROOT
ATOM      1  C   UNL     1      -1.250  -0.565  -0.221  0.00  0.00    +0.146 C 
ENDROOT
BRANCH   1   2
ATOM      2  C   UNL     1      -1.876  -0.038  -1.486  0.00  0.00    -0.020 A 
ATOM      3  C   UNL     1      -1.111   0.671  -2.393  0.00  0.00    +0.006 A 
ATOM      4  C   UNL     1      -1.686   1.155  -3.553  0.00  0.00    +0.004 A 
ATOM      5  C   UNL     1      -3.026   0.929  -3.807  0.00  0.00    -0.050 A 
ATOM      6  C   UNL     1      -3.791   0.219  -2.900  0.00  0.00    +0.004 A 
ATOM      7  C   UNL     1      -3.215  -0.268  -1.742  0.00  0.00    +0.006 A 
ATOM      8  C   UNL     1      -3.652   1.458  -5.071  0.00  0.00    +0.044 C 
ENDBRANCH   1   2
BRANCH   1   9
ATOM      9  C   UNL     1      -1.512  -2.045  -0.109  0.00  0.00    +0.376 C 
ATOM     10  O   UNL     1      -2.127  -2.484   0.848  0.00  0.00    -0.244 OA
ATOM     11  O   UNL     1      -1.110  -2.803  -0.975  0.00  0.00    -0.244 OA
ENDBRANCH   1   9
BRANCH   1  13
ATOM     12  C   UNL     1       0.885  -1.142  -1.383  0.00  0.00    +0.006 C 
ATOM     13  C   UNL     1       0.260  -0.317  -0.257  0.00  0.00    +0.031 C 
ENDBRANCH   1  13
BRANCH   1  14
ATOM     14  S   UNL     1      -1.968   0.286   1.211  0.00  0.00    -0.100 S 
BRANCH  14  15
ATOM     15  C   UNL     1      -1.260  -0.539   2.597  0.00  0.00    +0.033 A 
ATOM     16  C   UNL     1      -0.319  -1.551   2.423  0.00  0.00    +0.036 A 
ATOM     17  C   UNL     1       0.212  -2.174   3.535  0.00  0.00    +0.112 A 
ATOM     18  N   UNL     1      -0.159  -1.823   4.752  0.00  0.00    -0.261 NA
ATOM     19  C   UNL     1      -1.047  -0.869   4.964  0.00  0.00    +0.134 A 
ATOM     20  C   UNL     1      -1.624  -0.191   3.904  0.00  0.00    +0.057 A 
BRANCH  20  21
ATOM     21  N   UNL     1      -2.561   0.824   4.135  0.00  0.00    -0.356 N 
ATOM     22  H   UNL     1      -2.964   1.292   3.387  0.00  0.00    +0.142 HD
ATOM     23  H   UNL     1      -2.808   1.059   5.043  0.00  0.00    +0.142 HD
ENDBRANCH  20  21
ENDBRANCH  14  15
ENDBRANCH   1  14
TORSDOF 6
