REMARK  Name = ZINC31661809
REMARK  7 active torsions:
REMARK  status: ('A' for Active; 'I' for Inactive)
REMARK    1  A    between atoms: C_1  and  C_2
REMARK    2  A    between atoms: C_2  and  C_24
REMARK    3  A    between atoms: N_5  and  C_9
REMARK    4  A    between atoms: C_9  and  C_10
REMARK    5  A    between atoms: C_13  and  C_16
REMARK    6  A    between atoms: C_21  and  C_22
REMARK    7  A    between atoms: C_28  and  N_30
REMARK                            x       y       z     vdW  Elec       q    Type
REMARK                         _______ _______ _______ _____ _____    ______ ____
ROOT
ATOM      1  C   UNL     1      -0.019   1.526   0.010  0.00  0.00    +0.047 C 
ATOM      2  C   UNL     1       0.002  -0.004   0.002  0.00  0.00    +0.135 C 
ATOM      3  C   UNL     1      -1.403  -0.557   0.139  0.00  0.00    +0.251 C 
ATOM      4  O   UNL     1      -2.332  -0.392  -0.621  0.00  0.00    -0.272 OA
ATOM      5  N   UNL     1      -1.403  -1.272   1.282  0.00  0.00    -0.220 N 
ATOM      6  C   UNL     1      -0.206  -1.247   1.879  0.00  0.00    +0.310 C 
ATOM      7  O   UNL     1       0.040  -1.819   2.924  0.00  0.00    -0.252 OA
ATOM      8  N   UNL     1       0.695  -0.520   1.195  0.00  0.00    -0.281 N 
ATOM      9  H   UNL     1       1.621  -0.365   1.440  0.00  0.00    +0.152 HD
ENDROOT
BRANCH   2  10
ATOM     10  C   UNL     1       0.657  -0.517  -1.255  0.00  0.00    -0.013 A 
ATOM     11  C   UNL     1      -0.108  -0.772  -2.378  0.00  0.00    +0.006 A 
ATOM     12  C   UNL     1       0.493  -1.242  -3.530  0.00  0.00    +0.003 A 
ATOM     13  C   UNL     1       1.859  -1.457  -3.560  0.00  0.00    +0.033 A 
ATOM     14  C   UNL     1       2.623  -1.202  -2.437  0.00  0.00    +0.127 A 
ATOM     15  C   UNL     1       2.023  -0.727  -1.286  0.00  0.00    +0.039 A 
BRANCH  14  16
ATOM     16  N   UNL     1       4.085  -1.432  -2.469  0.00  0.00    +0.056 N 
ATOM     17  O   UNL     1       4.610  -1.845  -3.477  0.00  0.00    -0.126 OA
ATOM     18  O   UNL     1       4.753  -1.208  -1.487  0.00  0.00    -0.126 OA
ENDBRANCH  14  16
ENDBRANCH   2  10
BRANCH   5  19
ATOM     19  C   UNL     1      -2.569  -1.986   1.805  0.00  0.00    +0.153 C 
BRANCH  19  20
ATOM     20  C   UNL     1      -2.585  -3.391   1.260  0.00  0.00    -0.030 A 
ATOM     21  C   UNL     1      -3.235  -3.661   0.069  0.00  0.00    +0.006 A 
ATOM     22  C   UNL     1      -3.253  -4.945  -0.435  0.00  0.00    +0.009 A 
ATOM     23  C   UNL     1      -2.612  -5.972   0.257  0.00  0.00    -0.017 A 
ATOM     24  C   UNL     1      -1.958  -5.694   1.457  0.00  0.00    +0.009 A 
ATOM     25  C   UNL     1      -1.943  -4.405   1.949  0.00  0.00    +0.006 A 
BRANCH  23  26
ATOM     26  C   UNL     1      -2.628  -7.353  -0.279  0.00  0.00    -0.001 A 
ATOM     27  C   UNL     1      -3.827  -7.935  -0.680  0.00  0.00    +0.010 A 
ATOM     28  C   UNL     1      -3.837  -9.222  -1.180  0.00  0.00    +0.001 A 
ATOM     29  C   UNL     1      -2.659  -9.943  -1.285  0.00  0.00    +0.001 A 
ATOM     30  C   UNL     1      -1.460  -9.384  -0.893  0.00  0.00    +0.019 A 
ATOM     31  C   UNL     1      -1.430  -8.082  -0.391  0.00  0.00    +0.059 A 
BRANCH  31  32
ATOM     32  C   UNL     1      -0.188  -7.494   0.013  0.00  0.00    +0.100 C 
ATOM     33  N   UNL     1       0.797  -7.028   0.333  0.00  0.00    -0.191 NA
ENDBRANCH  31  32
ENDBRANCH  23  26
ENDBRANCH  19  20
ENDBRANCH   5  19
TORSDOF 6
