REMARK  Name = ZINC16567593
REMARK  9 active torsions:
REMARK  status: ('A' for Active; 'I' for Inactive)
REMARK    1  A    between atoms: C_4  and  C_7
REMARK    2  A    between atoms: C_7  and  C_8
REMARK    3  A    between atoms: C_8  and  C_10
REMARK    4  A    between atoms: C_8  and  N_52
REMARK    5  A    between atoms: C_13  and  S_24
REMARK    6  A    between atoms: N_14  and  C_15
REMARK    7  A    between atoms: C_18  and  N_21
REMARK    8  A    between atoms: S_24  and  C_25
REMARK    9  A    between atoms: C_25  and  C_26
REMARK                            x       y       z     vdW  Elec       q    Type
REMARK                         _______ _______ _______ _____ _____    ______ ____
ROOT
ATOM      1  C   UNL     1       1.269  -6.684  -1.721  0.00  0.00    +0.124 A 
ATOM      2  N   UNL     1       1.277  -6.397  -0.450  0.00  0.00    -0.135 NA
ATOM      3  N   UNL     1       1.262  -5.123  -0.284  0.00  0.00    -0.122 NA
ATOM      4  C   UNL     1       1.244  -4.520  -1.450  0.00  0.00    +0.196 A 
ATOM      5  N   UNL     1       1.242  -5.498  -2.406  0.00  0.00    -0.276 N 
ENDROOT
BRANCH   5   6
ATOM      6  C   UNL     1       1.221  -5.324  -3.798  0.00  0.00    +0.050 A 
ATOM      7  C   UNL     1       0.129  -5.758  -4.536  0.00  0.00    +0.028 A 
ATOM      8  C   UNL     1       0.108  -5.580  -5.906  0.00  0.00    +0.035 A 
ATOM      9  C   UNL     1       1.178  -4.979  -6.543  0.00  0.00    +0.126 A 
ATOM     10  C   UNL     1       2.270  -4.551  -5.810  0.00  0.00    +0.035 A 
ATOM     11  C   UNL     1       2.294  -4.721  -4.440  0.00  0.00    +0.028 A 
BRANCH   9  12
ATOM     12  N   UNL     1       1.156  -4.796  -8.011  0.00  0.00    +0.056 N 
ATOM     13  O   UNL     1       2.098  -4.267  -8.573  0.00  0.00    -0.126 OA
ATOM     14  O   UNL     1       0.195  -5.173  -8.658  0.00  0.00    -0.126 OA
ENDBRANCH   9  12
ENDBRANCH   5   6
BRANCH   1  15
ATOM     15  C   UNL     1       1.282  -8.065  -2.325  0.00  0.00    -0.001 C 
BRANCH  15  18
ATOM     16  H   UNL     1       2.063  -8.972  -0.650  0.00  0.00    -0.089 HD
ATOM     17  H   UNL     1       2.353  -9.803  -2.061  0.00  0.00    -0.089 HD
ATOM     18  N   UNL     1       2.300  -8.879  -1.637  0.00  0.00    +0.385 N 
ATOM     19  H   UNL     1       3.214  -8.419  -1.720  0.00  0.00    -0.089 HD
ENDBRANCH  15  18
BRANCH  15  20
ATOM     20  C   UNL     1      -0.101  -8.700  -2.176  0.00  0.00    +0.026 C 
BRANCH  20  24
ATOM     21  C   UNL     1      -0.165 -12.466  -4.191  0.00  0.00    +0.000 A 
ATOM     22  C   UNL     1       0.204 -12.400  -2.860  0.00  0.00    +0.000 A 
ATOM     23  C   UNL     1       0.224 -11.181  -2.208  0.00  0.00    +0.003 A 
ATOM     24  C   UNL     1      -0.123 -10.028  -2.887  0.00  0.00    -0.049 A 
ATOM     25  C   UNL     1      -0.497 -10.095  -4.216  0.00  0.00    +0.003 A 
ATOM     26  C   UNL     1      -0.513 -11.313  -4.869  0.00  0.00    +0.000 A 
ENDBRANCH  20  24
ENDBRANCH  15  20
ENDBRANCH   1  15
BRANCH   4  27
ATOM     27  S   UNL     1       1.219  -2.780  -1.731  0.00  0.00    -0.081 S 
BRANCH  27  28
ATOM     28  C   UNL     1       1.227  -2.186  -0.021  0.00  0.00    +0.112 C 
BRANCH  28  29
ATOM     29  C   UNL     1       1.208  -0.679  -0.013  0.00  0.00    -0.037 A 
ATOM     30  C   UNL     1       0.002  -0.004   0.002  0.00  0.00    +0.007 A 
ATOM     31  C   UNL     1      -0.017   1.378   0.010  0.00  0.00    +0.038 A 
ATOM     32  C   UNL     1       1.173   2.086   0.002  0.00  0.00    +0.123 A 
ATOM     33  C   UNL     1       2.381   1.408  -0.013  0.00  0.00    +0.038 A 
ATOM     34  C   UNL     1       2.397   0.026  -0.020  0.00  0.00    +0.007 A 
ATOM     35  F   UNL     1       1.156   3.437   0.009  0.00  0.00    -0.205 F 
ENDBRANCH  28  29
ENDBRANCH  27  28
ENDBRANCH   4  27
TORSDOF 9
