REMARK  Name = ZINC02440894
REMARK  8 active torsions:
REMARK  status: ('A' for Active; 'I' for Inactive)
REMARK    1  A    between atoms: C_1  and  C_2
REMARK    2  A    between atoms: C_5  and  C_39
REMARK    3  A    between atoms: C_5  and  C_40
REMARK    4  A    between atoms: C_10  and  O_30
REMARK    5  A    between atoms: C_25  and  N_29
REMARK    6  A    between atoms: C_26  and  C_27
REMARK    7  A    between atoms: O_30  and  C_31
REMARK    8  A    between atoms: C_31  and  C_33
REMARK                            x       y       z     vdW  Elec       q    Type
REMARK                         _______ _______ _______ _____ _____    ______ ____
ROOT
ATOM      1  C   UNL     1       0.266   1.563  -0.061  0.00  0.00    +0.012 C 
ATOM      2  C   UNL     1       0.180   0.035  -0.052  0.00  0.00    +0.020 C 
ATOM      3  C   UNL     1       0.909  -0.523  -1.278  0.00  0.00    +0.033 C 
ATOM      4  C   UNL     1       0.914  -2.056  -1.289  0.00  0.00    +0.037 C 
ATOM      5  N   UNL     1       1.511  -2.528  -0.027  0.00  0.00    -0.264 N 
ATOM      6  C   UNL     1       1.437  -1.741   1.122  0.00  0.00    +0.045 A 
ATOM      7  C   UNL     1       0.818  -0.493   1.199  0.00  0.00    -0.019 A 
ATOM      8  C   UNL     1       0.849   0.140   2.418  0.00  0.00    +0.052 A 
ATOM      9  C   UNL     1       1.471  -0.456   3.511  0.00  0.00    +0.133 A 
ATOM     10  C   UNL     1       2.088  -1.708   3.430  0.00  0.00    +0.053 A 
ATOM     11  C   UNL     1       2.057  -2.342   2.209  0.00  0.00    +0.004 A 
ATOM     12  C   UNL     1       2.571  -3.645   1.693  0.00  0.00    +0.158 C 
ATOM     13  C   UNL     1       2.165  -3.671   0.230  0.00  0.00    +0.242 C 
ATOM     14  O   UNL     1       2.390  -4.563  -0.562  0.00  0.00    -0.273 OA
ATOM     15  C   UNL     1       1.955  -4.807   2.418  0.00  0.00    +0.104 A 
ATOM     16  C   UNL     1       2.661  -5.605   3.237  0.00  0.00    +0.224 A 
ATOM     17  N   UNL     1       1.803  -6.562   3.735  0.00  0.00    -0.305 N 
ATOM     18  H   UNL     1       2.039  -7.272   4.352  0.00  0.00    +0.171 HD
ATOM     19  C   UNL     1       0.577  -6.339   3.214  0.00  0.00    +0.158 A 
ATOM     20  S   UNL     1      -0.829  -7.263   3.530  0.00  0.00    -0.013 S 
ATOM     21  N   UNL     1       0.650  -5.263   2.401  0.00  0.00    -0.333 N 
ATOM     22  H   UNL     1      -0.083  -4.879   1.895  0.00  0.00    +0.168 HD
ATOM     23  O   UNL     1       3.986  -5.429   3.475  0.00  0.00    -0.423 OA
ATOM     24  C   UNL     1       4.668  -4.590   2.669  0.00  0.00    +0.201 C 
ATOM     25  C   UNL     1       4.068  -3.730   1.811  0.00  0.00    +0.112 C 
ATOM     26  C   UNL     1       1.745  -2.561  -2.471  0.00  0.00    +0.032 C 
ATOM     27  C   UNL     1      -0.520  -2.576  -1.407  0.00  0.00    +0.032 C 
ENDROOT
BRANCH  24  28
ATOM     28  N   UNL     1       6.040  -4.609   2.721  0.00  0.00    -0.328 N 
ATOM     29  H   UNL     1       6.494  -5.215   3.327  0.00  0.00    +0.145 HD
ATOM     30  H   UNL     1       6.555  -4.015   2.152  0.00  0.00    +0.145 HD
ENDBRANCH  24  28
BRANCH  25  31
ATOM     31  C   UNL     1       4.881  -2.880   0.995  0.00  0.00    +0.102 C 
ATOM     32  N   UNL     1       5.526  -2.205   0.347  0.00  0.00    -0.191 NA
ENDBRANCH  25  31
BRANCH   9  33
ATOM     33  O   UNL     1       1.480   0.204   4.700  0.00  0.00    -0.422 OA
BRANCH  33  34
ATOM     34  C   UNL     1       2.657   0.682   5.149  0.00  0.00    +0.344 C 
ATOM     35  O   UNL     1       3.648   0.612   4.449  0.00  0.00    -0.245 OA
BRANCH  34  36
ATOM     36  C   UNL     1       2.742   1.293   6.491  0.00  0.00    +0.059 A 
ATOM     37  C   UNL     1       1.606   1.370   7.300  0.00  0.00    +0.015 A 
ATOM     38  C   UNL     1       1.693   1.941   8.552  0.00  0.00    +0.001 A 
ATOM     39  C   UNL     1       2.902   2.437   9.008  0.00  0.00    +0.000 A 
ATOM     40  C   UNL     1       4.031   2.364   8.212  0.00  0.00    +0.001 A 
ATOM     41  C   UNL     1       3.960   1.790   6.959  0.00  0.00    +0.015 A 
ENDBRANCH  34  36
ENDBRANCH  33  34
ENDBRANCH   9  33
TORSDOF 5
