REMARK  Name = ZINC08432524
REMARK  8 active torsions:
REMARK  status: ('A' for Active; 'I' for Inactive)
REMARK    1  A    between atoms: C_4  and  C_7
REMARK    2  A    between atoms: C_7  and  O_8
REMARK    3  A    between atoms: O_8  and  C_9
REMARK    4  A    between atoms: C_14  and  C_15
REMARK    5  A    between atoms: C_15  and  C_17
REMARK    6  A    between atoms: C_15  and  N_28
REMARK    7  A    between atoms: C_26  and  O_27
REMARK    8  A    between atoms: N_28  and  C_29
REMARK                            x       y       z     vdW  Elec       q    Type
REMARK                         _______ _______ _______ _____ _____    ______ ____
ROOT
ATOM      1  C   UNL     1       4.921  -1.398  -4.060  0.00  0.00    +0.139 C 
ENDROOT
BRANCH   1   2
ATOM      2  C   UNL     1       3.879  -2.401  -4.482  0.00  0.00    +0.021 A 
ATOM      3  C   UNL     1       4.206  -3.376  -5.421  0.00  0.00    +0.010 A 
ATOM      4  C   UNL     1       3.287  -4.297  -5.823  0.00  0.00    +0.010 A 
ATOM      5  C   UNL     1       1.990  -4.267  -5.285  0.00  0.00    +0.004 A 
ATOM      6  C   UNL     1       1.013  -5.202  -5.677  0.00  0.00    +0.011 A 
ATOM      7  C   UNL     1      -0.228  -5.113  -5.112  0.00  0.00    +0.020 A 
ATOM      8  C   UNL     1      -0.496  -4.114  -4.178  0.00  0.00    +0.111 A 
ATOM      9  N   UNL     1       0.417  -3.246  -3.816  0.00  0.00    -0.251 NA
ATOM     10  C   UNL     1       1.650  -3.279  -4.330  0.00  0.00    +0.113 A 
ATOM     11  C   UNL     1       2.629  -2.344  -3.933  0.00  0.00    +0.148 A 
BRANCH  11  12
ATOM     12  O   UNL     1       2.330  -1.389  -3.015  0.00  0.00    -0.504 OA
ATOM     13  H   UNL     1       1.984  -0.571  -3.396  0.00  0.00    +0.292 HD
ENDBRANCH  11  12
ENDBRANCH   1   2
BRANCH   1  19
ATOM     14  C   UNL     1       5.274  -1.717  -1.598  0.00  0.00    +0.126 A 
ATOM     15  C   UNL     1       5.994  -2.229  -0.528  0.00  0.00    +0.046 A 
ATOM     16  C   UNL     1       7.142  -2.963  -0.758  0.00  0.00    +0.004 A 
ATOM     17  C   UNL     1       7.573  -3.186  -2.053  0.00  0.00    +0.001 A 
ATOM     18  C   UNL     1       6.857  -2.677  -3.120  0.00  0.00    +0.009 A 
ATOM     19  C   UNL     1       5.705  -1.948  -2.896  0.00  0.00    +0.019 A 
BRANCH  14  20
ATOM     20  O   UNL     1       4.144  -0.996  -1.374  0.00  0.00    -0.487 OA
BRANCH  20  21
ATOM     21  C   UNL     1       3.757  -0.803  -0.012  0.00  0.00    +0.264 C 
BRANCH  21  25
ATOM     22  C   UNL     1       0.170   1.513   0.133  0.00  0.00    +0.000 A 
ATOM     23  C   UNL     1       1.401   2.143   0.153  0.00  0.00    +0.000 A 
ATOM     24  C   UNL     1       2.561   1.393   0.106  0.00  0.00    +0.007 A 
ATOM     25  C   UNL     1       2.491   0.014   0.039  0.00  0.00    -0.010 A 
ATOM     26  C   UNL     1       1.261  -0.615   0.020  0.00  0.00    +0.007 A 
ATOM     27  C   UNL     1       0.100   0.134   0.067  0.00  0.00    +0.000 A 
ENDBRANCH  21  25
ENDBRANCH  20  21
ENDBRANCH  14  20
ENDBRANCH   1  19
BRANCH   1  28
ATOM     28  N   UNL     1       5.829  -1.137  -5.180  0.00  0.00    -0.319 N 
ATOM     29  H   UNL     1       5.917  -1.786  -5.895  0.00  0.00    +0.148 HD
BRANCH  28  30
ATOM     30  C   UNL     1       6.564   0.042  -5.217  0.00  0.00    +0.097 A 
ATOM     31  C   UNL     1       6.358   1.015  -4.244  0.00  0.00    +0.041 A 
ATOM     32  C   UNL     1       7.097   2.183  -4.294  0.00  0.00    +0.005 A 
ATOM     33  C   UNL     1       8.021   2.340  -5.319  0.00  0.00    +0.018 A 
ATOM     34  C   UNL     1       8.174   1.333  -6.251  0.00  0.00    +0.084 A 
ATOM     35  N   UNL     1       7.470   0.170  -6.230  0.00  0.00    -0.350 N 
ATOM     36  H   UNL     1       7.611  -0.566  -6.932  0.00  0.00    +0.166 HD
ENDBRANCH  28  30
ENDBRANCH   1  28
TORSDOF 8
