REMARK  Name = ZINC41025707
REMARK  7 active torsions:
REMARK  status: ('A' for Active; 'I' for Inactive)
REMARK    1  A    between atoms: C_1  and  O_2
REMARK    2  A    between atoms: O_2  and  C_3
REMARK    3  A    between atoms: C_3  and  C_4
REMARK    4  A    between atoms: C_4  and  C_5
REMARK    5  A    between atoms: C_5  and  N_6
REMARK    6  A    between atoms: C_7  and  C_9
REMARK    7  A    between atoms: C_13  and  N_14
REMARK                            x       y       z     vdW  Elec       q    Type
REMARK                         _______ _______ _______ _____ _____    ______ ____
ROOT
ATOM      1  C   UNL     1      -3.372  -6.464  -0.001  0.00  0.00    +0.069 A 
ATOM      2  C   UNL     1      -3.296  -7.226   1.235  0.00  0.00    -0.023 A 
ATOM      3  C   UNL     1      -3.173  -8.558   1.056  0.00  0.00    -0.004 A 
ATOM      4  S   UNL     1      -3.161  -8.777  -0.699  0.00  0.00    -0.077 S 
ATOM      5  C   UNL     1      -3.317  -7.178  -1.189  0.00  0.00    +0.084 A 
ATOM      6  C   UNL     1      -3.069  -9.603   2.123  0.00  0.00    +0.043 C 
ATOM      7  C   UNL     1      -2.744  -8.905   3.452  0.00  0.00    +0.005 C 
ATOM      8  C   UNL     1      -3.693  -7.717   3.633  0.00  0.00    +0.005 C 
ATOM      9  C   UNL     1      -3.347  -6.616   2.628  0.00  0.00    +0.037 C 
ENDROOT
BRANCH   5  10
ATOM     10  N   UNL     1      -3.375  -6.685  -2.480  0.00  0.00    -0.292 N 
ATOM     11  C   UNL     1      -3.304  -7.554  -3.557  0.00  0.00    +0.154 A 
ATOM     12  C   UNL     1      -3.356  -7.071  -4.876  0.00  0.00    +0.148 A 
ATOM     13  C   UNL     1      -3.279  -8.001  -5.926  0.00  0.00    +0.163 A 
ATOM     14  N   UNL     1      -3.351  -7.270  -7.085  0.00  0.00    -0.329 N 
ATOM     15  H   UNL     1      -3.326  -7.622  -7.989  0.00  0.00    +0.168 HD
ATOM     16  C   UNL     1      -3.466  -5.958  -6.733  0.00  0.00    +0.198 A 
ATOM     17  N   UNL     1      -3.469  -5.843  -5.437  0.00  0.00    -0.231 NA
ATOM     18  N   UNL     1      -3.162  -9.293  -5.638  0.00  0.00    -0.216 NA
ATOM     19  C   UNL     1      -3.118  -9.700  -4.387  0.00  0.00    +0.225 A 
ATOM     20  N   UNL     1      -3.181  -8.864  -3.367  0.00  0.00    -0.218 NA
ATOM     21  H   UNL     1      -3.465  -5.731  -2.632  0.00  0.00    +0.154 HD
ENDBRANCH   5  10
BRANCH   1  23
ATOM     22  N   UNL     1      -2.408  -4.226   0.002  0.00  0.00    -0.311 N 
ATOM     23  C   UNL     1      -3.507  -5.005   0.009  0.00  0.00    +0.247 C 
ATOM     24  O   UNL     1      -4.613  -4.497   0.022  0.00  0.00    -0.270 OA
ATOM     25  H   UNL     1      -1.526  -4.632  -0.008  0.00  0.00    +0.149 HD
BRANCH  22  26
ATOM     26  C   UNL     1      -2.543  -2.768   0.011  0.00  0.00    +0.107 C 
BRANCH  26  27
ATOM     27  C   UNL     1      -1.154  -2.126   0.002  0.00  0.00    +0.047 C 
BRANCH  27  28
ATOM     28  C   UNL     1      -1.295  -0.603   0.011  0.00  0.00    +0.161 C 
BRANCH  28  30
ATOM     29  C   UNL     1      -0.017   1.425   0.010  0.00  0.00    +0.193 C 
ATOM     30  O   UNL     1       0.002  -0.004   0.002  0.00  0.00    -0.383 OA
ENDBRANCH  28  30
ENDBRANCH  27  28
ENDBRANCH  26  27
ENDBRANCH  22  26
ENDBRANCH   1  23
TORSDOF 6
