REMARK  Name = ZINC63861985
REMARK  10 active torsions:
REMARK  status: ('A' for Active; 'I' for Inactive)
REMARK    1  A    between atoms: C_7  and  C_10
REMARK    2  A    between atoms: C_10  and  C_11
REMARK    3  A    between atoms: C_11  and  C_13
REMARK    4  A    between atoms: C_11  and  N_29
REMARK    5  A    between atoms: C_13  and  O_15
REMARK    6  A    between atoms: O_15  and  C_16
REMARK    7  A    between atoms: C_16  and  C_17
REMARK    8  A    between atoms: N_19  and  C_20
REMARK    9  A    between atoms: C_23  and  N_26
REMARK   10  A    between atoms: C_30  and  C_32
REMARK                            x       y       z     vdW  Elec       q    Type
REMARK                         _______ _______ _______ _____ _____    ______ ____
ROOT
ATOM      1  C   UNL     1       0.455  -3.652  -1.456  0.00  0.00    +0.186 C 
ENDROOT
BRANCH   1   2
ATOM      2  N   UNL     1      -0.245  -2.600  -2.197  0.00  0.00    -0.298 N 
ATOM      3  C   UNL     1      -1.454  -2.174  -1.782  0.00  0.00    +0.251 C 
ATOM      4  O   UNL     1      -1.965  -2.663  -0.792  0.00  0.00    -0.270 OA
ATOM      5  H   UNL     1       0.163  -2.210  -2.986  0.00  0.00    +0.150 HD
BRANCH   3   6
ATOM      6  C   UNL     1      -2.154  -1.121  -2.524  0.00  0.00    +0.074 A 
ATOM      7  C   UNL     1      -3.388  -0.543  -2.266  0.00  0.00    +0.021 A 
ATOM      8  C   UNL     1      -3.786   0.432  -3.149  0.00  0.00    +0.008 A 
ATOM      9  C   UNL     1      -2.972   0.757  -4.184  0.00  0.00    +0.046 A 
ATOM     10  S   UNL     1      -1.638  -0.245  -3.988  0.00  0.00    -0.092 S 
ENDBRANCH   3   6
ENDBRANCH   1   2
BRANCH   1  11
ATOM     11  C   UNL     1      -0.387  -4.902  -1.443  0.00  0.00    +0.328 C 
ATOM     12  O   UNL     1      -1.574  -4.834  -1.660  0.00  0.00    -0.249 OA
BRANCH  11  13
ATOM     13  O   UNL     1       0.182  -6.092  -1.191  0.00  0.00    -0.454 OA
BRANCH  13  14
ATOM     14  C   UNL     1      -0.676  -7.235  -1.195  0.00  0.00    +0.328 C 
BRANCH  14  15
ATOM     15  C   UNL     1       0.132  -8.471  -0.894  0.00  0.00    +0.255 C 
ATOM     16  O   UNL     1       1.325  -8.381  -0.696  0.00  0.00    -0.272 OA
ATOM     17  N   UNL     1      -0.471  -9.675  -0.846  0.00  0.00    -0.283 N 
ATOM     18  H   UNL     1      -1.434  -9.739  -0.937  0.00  0.00    +0.155 HD
BRANCH  17  19
ATOM     19  C   UNL     1       0.293 -10.833  -0.663  0.00  0.00    +0.034 A 
ATOM     20  C   UNL     1      -0.072 -12.015  -1.294  0.00  0.00    +0.025 A 
ATOM     21  C   UNL     1       0.684 -13.156  -1.112  0.00  0.00    +0.034 A 
ATOM     22  C   UNL     1       1.804 -13.123  -0.302  0.00  0.00    +0.126 A 
ATOM     23  C   UNL     1       2.170 -11.948   0.329  0.00  0.00    +0.034 A 
ATOM     24  C   UNL     1       1.422 -10.802   0.145  0.00  0.00    +0.025 A 
BRANCH  22  25
ATOM     25  N   UNL     1       2.612 -14.348  -0.109  0.00  0.00    +0.056 N 
ATOM     26  O   UNL     1       2.292 -15.376  -0.659  0.00  0.00    -0.126 OA
ATOM     27  O   UNL     1       3.591 -14.320   0.600  0.00  0.00    -0.126 OA
ENDBRANCH  22  25
ENDBRANCH  17  19
ENDBRANCH  14  15
ENDBRANCH  13  14
ENDBRANCH  11  13
ENDBRANCH   1  11
BRANCH   1  28
ATOM     28  C   UNL     1       0.699  -3.188  -0.018  0.00  0.00    +0.067 C 
BRANCH  28  35
ATOM     29  C   UNL     1      -0.005   1.346   0.029  0.00  0.00    +0.001 A 
ATOM     30  C   UNL     1       1.177   2.099   0.015  0.00  0.00    +0.002 A 
ATOM     31  C   UNL     1       2.402   1.532  -0.009  0.00  0.00    +0.026 A 
ATOM     32  C   UNL     1       2.539   0.117  -0.022  0.00  0.00    +0.043 A 
ATOM     33  N   UNL     1       3.596  -0.658  -0.047  0.00  0.00    -0.380 N 
ATOM     34  C   UNL     1       3.152  -2.056  -0.051  0.00  0.00    +0.144 C 
ATOM     35  C   UNL     1       1.641  -2.011  -0.024  0.00  0.00    -0.039 C 
ATOM     36  C   UNL     1       1.305  -0.701  -0.008  0.00  0.00    -0.001 A 
ATOM     37  C   UNL     1       0.012  -0.006   0.019  0.00  0.00    +0.010 A 
ATOM     38  H   UNL     1       4.518  -0.357  -0.060  0.00  0.00    +0.160 HD
ENDBRANCH  28  35
ENDBRANCH   1  28
TORSDOF 10
