REMARK  Name = ZINC16905864
REMARK  7 active torsions:
REMARK  status: ('A' for Active; 'I' for Inactive)
REMARK    1  A    between atoms: C_4  and  C_7
REMARK    2  A    between atoms: C_7  and  O_8
REMARK    3  A    between atoms: O_8  and  C_9
REMARK    4  A    between atoms: C_12  and  C_15
REMARK    5  A    between atoms: N_17  and  N_18
REMARK    6  A    between atoms: C_22  and  C_23
REMARK    7  A    between atoms: C_28  and  C_29
REMARK                            x       y       z     vdW  Elec       q    Type
REMARK                         _______ _______ _______ _____ _____    ______ ____
ROOT
ATOM      1  C   UNL     1       8.112  -0.936  -0.039  0.00  0.00    +0.261 C 
ATOM      2  O   UNL     1       7.787  -1.361  -1.131  0.00  0.00    -0.269 OA
ATOM      3  N   UNL     1       7.203  -0.862   0.954  0.00  0.00    -0.222 N 
ATOM      4  H   UNL     1       7.462  -0.523   1.824  0.00  0.00    +0.174 HD
ENDROOT
BRANCH   3   5
ATOM      5  N   UNL     1       5.884  -1.276   0.728  0.00  0.00    -0.169 N 
ATOM      6  C   UNL     1       4.937  -0.365   0.577  0.00  0.00    +0.275 C 
ATOM      7  O   UNL     1       5.182   0.826   0.629  0.00  0.00    -0.267 OA
ATOM      8  C   UNL     1       3.564  -0.869   0.347  0.00  0.00    +0.079 C 
ATOM      9  C   UNL     1       2.409  -0.181   0.164  0.00  0.00    +0.029 C 
ATOM     10  S   UNL     1       3.849  -2.634   0.368  0.00  0.00    -0.059 S 
ATOM     11  C   UNL     1       5.609  -2.595   0.662  0.00  0.00    +0.138 C 
ATOM     12  S   UNL     1       6.689  -3.914   0.823  0.00  0.00    -0.026 S 
BRANCH   9  13
ATOM     13  C   UNL     1       2.385   1.275   0.348  0.00  0.00    -0.010 A 
ATOM     14  C   UNL     1       3.063   1.860   1.421  0.00  0.00    +0.009 A 
ATOM     15  C   UNL     1       3.037   3.229   1.588  0.00  0.00    +0.001 A 
ATOM     16  C   UNL     1       2.341   4.033   0.698  0.00  0.00    +0.001 A 
ATOM     17  C   UNL     1       1.670   3.477  -0.372  0.00  0.00    +0.016 A 
ATOM     18  C   UNL     1       1.677   2.095  -0.558  0.00  0.00    +0.070 A 
BRANCH  18  19
ATOM     19  C   UNL     1       0.956   1.495  -1.696  0.00  0.00    +0.387 C 
ATOM     20  O   UNL     1       1.049   0.303  -1.913  0.00  0.00    -0.241 OA
ATOM     21  O   UNL     1       0.199   2.269  -2.498  0.00  0.00    -0.241 OA
ENDBRANCH  18  19
ENDBRANCH   9  13
ENDBRANCH   3   5
BRANCH   1  25
ATOM     22  C   UNL     1      12.110   0.319   0.646  0.00  0.00    +0.121 A 
ATOM     23  C   UNL     1      11.741  -0.167  -0.602  0.00  0.00    +0.046 A 
ATOM     24  C   UNL     1      10.445  -0.575  -0.829  0.00  0.00    +0.016 A 
ATOM     25  C   UNL     1       9.502  -0.500   0.199  0.00  0.00    +0.038 A 
ATOM     26  C   UNL     1       9.876  -0.005   1.451  0.00  0.00    +0.016 A 
ATOM     27  C   UNL     1      11.175   0.396   1.671  0.00  0.00    +0.046 A 
BRANCH  22  28
ATOM     28  O   UNL     1      13.388   0.720   0.865  0.00  0.00    -0.487 OA
BRANCH  28  29
ATOM     29  C   UNL     1      13.700   1.209   2.171  0.00  0.00    +0.264 C 
BRANCH  29  33
ATOM     30  C   UNL     1      17.819   2.329   2.327  0.00  0.00    +0.000 A 
ATOM     31  C   UNL     1      16.864   3.257   1.955  0.00  0.00    +0.000 A 
ATOM     32  C   UNL     1      15.531   2.894   1.905  0.00  0.00    +0.007 A 
ATOM     33  C   UNL     1      15.153   1.604   2.226  0.00  0.00    -0.010 A 
ATOM     34  C   UNL     1      16.108   0.678   2.603  0.00  0.00    +0.007 A 
ATOM     35  C   UNL     1      17.441   1.039   2.648  0.00  0.00    +0.000 A 
ENDBRANCH  29  33
ENDBRANCH  28  29
ENDBRANCH  22  28
ENDBRANCH   1  25
TORSDOF 7
