REMARK  Name = ZINC63281562
REMARK  8 active torsions:
REMARK  status: ('A' for Active; 'I' for Inactive)
REMARK    1  A    between atoms: C_1  and  C_2
REMARK    2  A    between atoms: C_2  and  C_4
REMARK    3  A    between atoms: C_2  and  N_14
REMARK    4  A    between atoms: C_4  and  C_5
REMARK    5  A    between atoms: C_15  and  C_17
REMARK    6  A    between atoms: C_24  and  N_27
REMARK    7  A    between atoms: N_27  and  S_28
REMARK    8  A    between atoms: S_28  and  C_31
REMARK                            x       y       z     vdW  Elec       q    Type
REMARK                         _______ _______ _______ _____ _____    ______ ____
ROOT
ATOM      1  N   UNL     1       0.711  -0.489   1.189  0.00  0.00    -0.308 N 
ATOM      2  C   UNL     1       2.054  -0.600   1.174  0.00  0.00    +0.244 C 
ATOM      3  O   UNL     1       2.678  -0.297   0.175  0.00  0.00    -0.270 OA
ATOM      4  H   UNL     1       0.213  -0.731   1.986  0.00  0.00    +0.149 HD
ENDROOT
BRANCH   2   5
ATOM      5  C   UNL     1       2.767  -1.089   2.369  0.00  0.00    +0.038 A 
ATOM      6  C   UNL     1       2.064  -1.446   3.522  0.00  0.00    +0.015 A 
ATOM      7  C   UNL     1       2.720  -1.901   4.635  0.00  0.00    +0.025 A 
ATOM      8  C   UNL     1       4.125  -2.025   4.661  0.00  0.00    +0.043 A 
ATOM      9  C   UNL     1       4.807  -1.661   3.492  0.00  0.00    +0.033 A 
ATOM     10  C   UNL     1       4.162  -1.209   2.368  0.00  0.00    +0.029 A 
ATOM     11  S   UNL     1       6.527  -1.933   3.856  0.00  0.00    -0.084 S 
ATOM     12  C   UNL     1       6.332  -2.538   5.581  0.00  0.00    +0.224 C 
ATOM     13  N   UNL     1       4.873  -2.475   5.739  0.00  0.00    -0.318 N 
ATOM     14  H   UNL     1       4.447  -2.740   6.570  0.00  0.00    +0.148 HD
BRANCH  12  15
ATOM     15  N   UNL     1       6.819  -3.913   5.715  0.00  0.00    -0.165 NA
ATOM     16  H   UNL     1       6.220  -4.658   5.551  0.00  0.00    +0.151 HD
BRANCH  15  17
ATOM     17  S   UNL     1       8.392  -4.195   6.148  0.00  0.00    +0.029 S 
ATOM     18  O   UNL     1       8.518  -5.610   6.158  0.00  0.00    -0.158 OA
ATOM     19  O   UNL     1       9.162  -3.406   5.252  0.00  0.00    -0.158 OA
ATOM     20  C   UNL     1       8.536  -3.543   7.835  0.00  0.00    +0.214 C 
ENDBRANCH  15  17
ENDBRANCH  12  15
ENDBRANCH   2   5
BRANCH   1  22
ATOM     21  C   UNL     1      -0.019   1.526   0.010  0.00  0.00    +0.028 C 
ATOM     22  C   UNL     1       0.002  -0.004   0.002  0.00  0.00    +0.074 C 
BRANCH  22  23
ATOM     23  C   UNL     1      -1.433  -0.534   0.013  0.00  0.00    +0.055 C 
BRANCH  23  24
ATOM     24  C   UNL     1      -1.416  -2.035  -0.119  0.00  0.00    -0.040 C 
ATOM     25  C   UNL     1      -1.463  -2.940   0.885  0.00  0.00    -0.001 A 
ATOM     26  C   UNL     1      -1.541  -2.803   2.344  0.00  0.00    +0.010 A 
ATOM     27  C   UNL     1      -1.574  -3.920   3.107  0.00  0.00    +0.001 A 
ATOM     28  C   UNL     1      -1.535  -5.201   2.540  0.00  0.00    +0.002 A 
ATOM     29  C   UNL     1      -1.463  -5.407   1.208  0.00  0.00    +0.026 A 
ATOM     30  C   UNL     1      -1.424  -4.304   0.311  0.00  0.00    +0.043 A 
ATOM     31  N   UNL     1      -1.355  -4.244  -0.997  0.00  0.00    -0.380 N 
ATOM     32  C   UNL     1      -1.349  -2.834  -1.401  0.00  0.00    +0.144 C 
ATOM     33  H   UNL     1      -1.318  -5.005  -1.597  0.00  0.00    +0.160 HD
ENDBRANCH  23  24
ENDBRANCH  22  23
ENDBRANCH   1  22
TORSDOF 6
