REMARK  Name = ZINC43287266
REMARK  12 active torsions:
REMARK  status: ('A' for Active; 'I' for Inactive)
REMARK    1  A    between atoms: C_1  and  C_2
REMARK    2  A    between atoms: C_2  and  C_4
REMARK    3  A    between atoms: C_2  and  N_22
REMARK    4  A    between atoms: C_4  and  C_6
REMARK    5  A    between atoms: C_4  and  N_12
REMARK    6  A    between atoms: N_12  and  C_13
REMARK    7  A    between atoms: N_12  and  C_14
REMARK    8  A    between atoms: C_14  and  C_15
REMARK    9  A    between atoms: N_17  and  C_18
REMARK   10  A    between atoms: C_18  and  C_19
REMARK   11  A    between atoms: C_19  and  O_20
REMARK   12  A    between atoms: O_20  and  C_21
REMARK                            x       y       z     vdW  Elec       q    Type
REMARK                         _______ _______ _______ _____ _____    ______ ____
ROOT
ATOM      1  C   UNL     1       0.778  -0.629   0.936  0.00  0.00    +0.079 C 
ENDROOT
BRANCH   1   2
ATOM      2  C   UNL     1       0.952  -2.125   0.889  0.00  0.00    +0.006 A 
ATOM      3  C   UNL     1       0.861  -2.962  -0.174  0.00  0.00    +0.028 A 
ATOM      4  C   UNL     1       1.061  -4.316   0.020  0.00  0.00    +0.025 A 
ATOM      5  C   UNL     1       1.344  -4.766   1.268  0.00  0.00    +0.060 A 
ATOM      6  S   UNL     1       1.340  -3.254   2.216  0.00  0.00    -0.099 S 
ATOM      7 BR   UNL     1       0.943  -5.521  -1.432  0.00  0.00    -0.050 Br
ENDBRANCH   1   2
BRANCH   1   9
ATOM      8  C   UNL     1       2.894  -0.332   2.232  0.00  0.00    -0.012 C 
ATOM      9  C   UNL     1       2.152   0.044   0.948  0.00  0.00    -0.056 C 
BRANCH   9  10
ATOM     10  N   UNL     1       2.928  -0.406  -0.216  0.00  0.00    +0.381 N 
ATOM     11  H   UNL     1       2.439  -0.158  -1.063  0.00  0.00    -0.090 HD
ATOM     12  H   UNL     1       3.834   0.038  -0.208  0.00  0.00    -0.090 HD
ATOM     13  H   UNL     1       3.044  -1.407  -0.175  0.00  0.00    -0.090 HD
ENDBRANCH   9  10
ENDBRANCH   1   9
BRANCH   1  14
ATOM     14  N   UNL     1       0.042  -0.260   2.152  0.00  0.00    -0.291 NA
ATOM     15  C   UNL     1      -0.134   1.196   2.240  0.00  0.00    +0.106 C 
BRANCH  14  16
ATOM     16  C   UNL     1      -1.253  -0.951   2.214  0.00  0.00    +0.180 C 
BRANCH  16  17
ATOM     17  C   UNL     1      -1.868  -0.745   3.574  0.00  0.00    +0.227 C 
ATOM     18  O   UNL     1      -1.285  -0.087   4.410  0.00  0.00    -0.274 OA
ATOM     19  N   UNL     1      -3.065  -1.292   3.862  0.00  0.00    -0.312 N 
ATOM     20  H   UNL     1      -3.531  -1.819   3.194  0.00  0.00    +0.149 HD
BRANCH  19  21
ATOM     21  C   UNL     1      -3.663  -1.092   5.185  0.00  0.00    +0.132 C 
BRANCH  21  22
ATOM     22  C   UNL     1      -5.011  -1.813   5.249  0.00  0.00    +0.178 C 
BRANCH  22  23
ATOM     23  O   UNL     1      -4.804  -3.222   5.137  0.00  0.00    -0.381 OA
ATOM     24  C   UNL     1      -6.007  -3.992   5.186  0.00  0.00    +0.194 C 
ENDBRANCH  22  23
ENDBRANCH  21  22
ENDBRANCH  19  21
ENDBRANCH  16  17
ENDBRANCH  14  16
ENDBRANCH   1  14
TORSDOF 9
