REMARK  Name = ZINC09210247
REMARK  5 active torsions:
REMARK  status: ('A' for Active; 'I' for Inactive)
REMARK    1  A    between atoms: C_4  and  C_7
REMARK    2  A    between atoms: C_7  and  C_9
REMARK    3  A    between atoms: C_11  and  C_30
REMARK    4  A    between atoms: C_13  and  C_25
REMARK    5  A    between atoms: C_13  and  C_27
REMARK                            x       y       z     vdW  Elec       q    Type
REMARK                         _______ _______ _______ _____ _____    ______ ____
ROOT
ATOM      1  C   UNL     1       1.234   2.966   1.508  0.00  0.00    +0.155 C 
ATOM      2  C   UNL     1       1.330   2.219   0.150  0.00  0.00    +0.078 C 
ATOM      3  C   UNL     1      -0.020   1.468   0.011  0.00  0.00    +0.163 C 
ATOM      4  C   UNL     1      -0.753   1.776   1.319  0.00  0.00    +0.127 C 
ATOM      5  N   UNL     1      -0.211   3.101   1.721  0.00  0.00    -0.310 N 
ATOM      6  C   UNL     1      -0.669   3.424   2.976  0.00  0.00    +0.038 A 
ATOM      7  C   UNL     1       0.127   3.972   3.964  0.00  0.00    +0.024 A 
ATOM      8  C   UNL     1      -0.415   4.261   5.203  0.00  0.00    +0.002 A 
ATOM      9  C   UNL     1      -1.750   4.005   5.464  0.00  0.00    +0.001 A 
ATOM     10  C   UNL     1      -2.561   3.459   4.489  0.00  0.00    +0.010 A 
ATOM     11  C   UNL     1      -2.033   3.166   3.239  0.00  0.00    -0.004 A 
ATOM     12  C   UNL     1      -2.867   2.594   2.156  0.00  0.00    +0.007 C 
ATOM     13  C   UNL     1      -2.241   1.896   1.191  0.00  0.00    -0.002 C 
ENDROOT
BRANCH   2  14
ATOM     14  C   UNL     1       2.475   1.241   0.169  0.00  0.00    -0.040 A 
ATOM     15  C   UNL     1       2.546   0.279   1.160  0.00  0.00    +0.007 A 
ATOM     16  C   UNL     1       3.593  -0.623   1.175  0.00  0.00    +0.038 A 
ATOM     17  C   UNL     1       4.578  -0.555   0.204  0.00  0.00    +0.123 A 
ATOM     18  C   UNL     1       4.510   0.412  -0.784  0.00  0.00    +0.038 A 
ATOM     19  C   UNL     1       3.458   1.309  -0.801  0.00  0.00    +0.007 A 
ATOM     20  F   UNL     1       5.606  -1.432   0.222  0.00  0.00    -0.205 F 
ENDBRANCH   2  14
BRANCH   3  21
ATOM     21  C   UNL     1      -0.797   1.990  -1.169  0.00  0.00    +0.233 C 
ATOM     22  O   UNL     1      -1.219   1.221  -2.006  0.00  0.00    -0.274 OA
ATOM     23  N   UNL     1      -1.023   3.313  -1.295  0.00  0.00    -0.328 N 
ATOM     24  H   UNL     1      -0.624   3.935  -0.667  0.00  0.00    +0.145 HD
ATOM     25  H   UNL     1      -1.585   3.643  -2.013  0.00  0.00    +0.145 HD
ENDBRANCH   3  21
BRANCH   1  26
ATOM     26  C   UNL     1       1.886   4.321   1.417  0.00  0.00    +0.184 C 
ATOM     27  O   UNL     1       1.202   5.321   1.355  0.00  0.00    -0.290 OA
BRANCH  26  31
ATOM     28  C   UNL     1       6.116   4.641   1.377  0.00  0.00    +0.000 A 
ATOM     29  C   UNL     1       5.338   5.784   1.305  0.00  0.00    +0.001 A 
ATOM     30  C   UNL     1       3.963   5.688   1.317  0.00  0.00    +0.011 A 
ATOM     31  C   UNL     1       3.354   4.432   1.402  0.00  0.00    +0.019 A 
ATOM     32  C   UNL     1       4.146   3.283   1.480  0.00  0.00    +0.011 A 
ATOM     33  C   UNL     1       5.521   3.395   1.461  0.00  0.00    +0.001 A 
ENDBRANCH  26  31
ENDBRANCH   1  26
BRANCH   3  34
ATOM     34  C   UNL     1       0.208   0.019  -0.123  0.00  0.00    +0.082 C 
ATOM     35  N   UNL     1       0.384  -1.098  -0.227  0.00  0.00    -0.195 NA
ENDBRANCH   3  34
TORSDOF 5
