REMARK  Name = ZINC01825554
REMARK  4 active torsions:
REMARK  status: ('A' for Active; 'I' for Inactive)
REMARK    1  A    between atoms: C_1  and  S_2
REMARK    2  A    between atoms: S_2  and  C_3
REMARK    3  A    between atoms: C_12  and  C_24
REMARK    4  A    between atoms: C_15  and  C_18
REMARK                            x       y       z     vdW  Elec       q    Type
REMARK                         _______ _______ _______ _____ _____    ______ ____
ROOT
ATOM      1  C   UNL     1       3.878  -1.490  -0.125  0.00  0.00    +0.191 A 
ATOM      2  N   UNL     1       2.883  -2.366  -0.113  0.00  0.00    -0.207 NA
ATOM      3  C   UNL     1       1.600  -2.029  -0.007  0.00  0.00    +0.129 A 
ATOM      4  C   UNL     1       1.331  -0.633   0.098  0.00  0.00    +0.051 A 
ATOM      5  C   UNL     1       0.010  -0.011   0.223  0.00  0.00    -0.022 A 
ATOM      6  C   UNL     1      -0.004   1.331   0.315  0.00  0.00    +0.013 A 
ATOM      7  S   UNL     1       1.704   1.833   0.233  0.00  0.00    -0.072 S 
ATOM      8  C   UNL     1       2.441   0.240   0.080  0.00  0.00    +0.115 A 
ATOM      9  N   UNL     1       3.689  -0.172  -0.030  0.00  0.00    -0.215 NA
ATOM     10  C   UNL     1      -1.160   2.282   0.469  0.00  0.00    +0.114 C 
ATOM     11  S   UNL     1      -2.695   1.393   0.060  0.00  0.00    -0.139 S 
ATOM     12  C   UNL     1      -2.422  -0.210   0.879  0.00  0.00    +0.082 C 
ATOM     13  C   UNL     1      -1.231  -0.895   0.225  0.00  0.00    +0.055 C 
ATOM     14  N   UNL     1       0.591  -2.975   0.002  0.00  0.00    -0.343 N 
ATOM     15  H   UNL     1      -0.286  -2.751  -0.347  0.00  0.00    +0.144 HD
ATOM     16  H   UNL     1       0.760  -3.862   0.356  0.00  0.00    +0.144 HD
ENDROOT
BRANCH  12  17
ATOM     17  C   UNL     1      -3.649  -1.071   0.724  0.00  0.00    -0.034 A 
ATOM     18  C   UNL     1      -4.110  -1.397  -0.538  0.00  0.00    +0.005 A 
ATOM     19  C   UNL     1      -5.232  -2.191  -0.681  0.00  0.00    +0.000 A 
ATOM     20  C   UNL     1      -5.900  -2.651   0.439  0.00  0.00    +0.000 A 
ATOM     21  C   UNL     1      -5.442  -2.322   1.701  0.00  0.00    +0.000 A 
ATOM     22  C   UNL     1      -4.316  -1.532   1.843  0.00  0.00    +0.005 A 
ENDBRANCH  12  17
BRANCH  10  23
ATOM     23  C   UNL     1      -0.984   3.448  -0.470  0.00  0.00    -0.030 A 
ATOM     24  C   UNL     1      -0.905   3.232  -1.833  0.00  0.00    +0.005 A 
ATOM     25  C   UNL     1      -0.749   4.303  -2.694  0.00  0.00    +0.000 A 
ATOM     26  C   UNL     1      -0.661   5.587  -2.191  0.00  0.00    +0.000 A 
ATOM     27  C   UNL     1      -0.735   5.802  -0.827  0.00  0.00    +0.000 A 
ATOM     28  C   UNL     1      -0.897   4.732   0.033  0.00  0.00    +0.005 A 
ENDBRANCH  10  23
BRANCH   1  30
ATOM     29  C   UNL     1       5.203  -3.873  -0.362  0.00  0.00    +0.093 C 
ATOM     30  S   UNL     1       5.527  -2.094  -0.273  0.00  0.00    -0.089 S 
ENDBRANCH   1  30
TORSDOF 3
