REMARK  Name = ZINC12038203
REMARK  10 active torsions:
REMARK  status: ('A' for Active; 'I' for Inactive)
REMARK    1  A    between atoms: C_1  and  N_2
REMARK    2  A    between atoms: C_6  and  S_7
REMARK    3  A    between atoms: S_7  and  C_8
REMARK    4  A    between atoms: C_11  and  C_13
REMARK    5  A    between atoms: C_13  and  N_65
REMARK    6  A    between atoms: C_20  and  C_24
REMARK    7  A    between atoms: C_24  and  N_67
REMARK    8  A    between atoms: C_29  and  C_31
REMARK    9  A    between atoms: C_31  and  O_33
REMARK   10  A    between atoms: O_33  and  C_34
REMARK                            x       y       z     vdW  Elec       q    Type
REMARK                         _______ _______ _______ _____ _____    ______ ____
ROOT
ATOM      1  C   UNL     1      -7.573   3.755   4.761  0.00  0.00    -0.036 C 
ATOM      2  C   UNL     1      -7.108   2.355   5.103  0.00  0.00    +0.210 C 
ATOM      3  O   UNL     1      -7.603   1.409   4.148  0.00  0.00    -0.494 OA
ATOM      4  C   UNL     1      -6.845   1.262   3.027  0.00  0.00    +0.122 A 
ATOM      5  C   UNL     1      -6.139   0.086   2.813  0.00  0.00    +0.046 A 
ATOM      6  C   UNL     1      -5.346  -0.041   1.688  0.00  0.00    +0.005 A 
ATOM      7  C   UNL     1      -5.251   1.000   0.783  0.00  0.00    -0.064 A 
ATOM      8  C   UNL     1      -5.965   2.167   0.990  0.00  0.00    +0.007 A 
ATOM      9  C   UNL     1      -6.761   2.291   2.109  0.00  0.00    -0.022 A 
ATOM     10  C   UNL     1      -7.571   3.553   2.334  0.00  0.00    -0.039 C 
ATOM     11  N   UNL     1      -6.992   4.263   3.500  0.00  0.00    +0.389 N 
ATOM     12  H   UNL     1      -5.979   4.100   3.515  0.00  0.00    -0.081 HD
ENDROOT
BRANCH  11  13
ATOM     13  C   UNL     1      -7.240   5.708   3.382  0.00  0.00    -0.003 C 
BRANCH  13  17
ATOM     14  C   UNL     1      -5.968   7.348   6.390  0.00  0.00    +0.169 A 
ATOM     15  C   UNL     1      -4.873   7.457   5.602  0.00  0.00    +0.057 A 
ATOM     16  C   UNL     1      -5.198   6.851   4.366  0.00  0.00    +0.044 A 
ATOM     17  C   UNL     1      -6.467   6.417   4.464  0.00  0.00    +0.090 A 
ATOM     18  O   UNL     1      -6.929   6.717   5.693  0.00  0.00    -0.455 OA
BRANCH  14  19
ATOM     19  S   UNL     1      -6.111   7.934   8.046  0.00  0.00    -0.012 S 
BRANCH  19  25
ATOM     20  C   UNL     1      -7.928   8.291  10.786  0.00  0.00    +0.152 C 
ATOM     21  N   UNL     1      -8.435   7.641   9.576  0.00  0.00    -0.311 N 
ATOM     22  C   UNL     1      -9.679   7.105   9.387  0.00  0.00    +0.225 A 
ATOM     23  N   UNL     1      -9.714   6.624   8.176  0.00  0.00    -0.137 NA
ATOM     24  N   UNL     1      -8.588   6.822   7.590  0.00  0.00    -0.122 NA
ATOM     25  C   UNL     1      -7.766   7.446   8.402  0.00  0.00    +0.199 A 
ENDBRANCH  19  25
ENDBRANCH  14  19
ENDBRANCH  13  17
ENDBRANCH  11  13
BRANCH   7  26
ATOM     26  C   UNL     1      -4.372   0.861  -0.434  0.00  0.00    -0.042 C 
BRANCH  26  32
ATOM     27  C   UNL     1      -2.506   0.707   1.099  0.00  0.00    -0.077 C 
ATOM     28  C   UNL     1      -1.161   1.336   1.477  0.00  0.00    -0.019 C 
ATOM     29  C   UNL     1      -0.174   1.146   0.322  0.00  0.00    -0.003 C 
ATOM     30  C   UNL     1      -0.756   1.775  -0.947  0.00  0.00    -0.004 C 
ATOM     31  C   UNL     1      -2.111   1.133  -1.253  0.00  0.00    +0.043 C 
ATOM     32  N   UNL     1      -3.023   1.372  -0.115  0.00  0.00    +0.391 N 
ATOM     33  H   UNL     1      -3.082   2.382   0.058  0.00  0.00    -0.080 HD
BRANCH  31  34
ATOM     34  C   UNL     1      -2.696   1.763  -2.491  0.00  0.00    +0.293 C 
ATOM     35  O   UNL     1      -3.421   2.725  -2.394  0.00  0.00    -0.253 OA
BRANCH  34  36
ATOM     36  O   UNL     1      -2.413   1.255  -3.700  0.00  0.00    -0.469 OA
ATOM     37  C   UNL     1      -3.012   1.913  -4.848  0.00  0.00    +0.280 C 
ENDBRANCH  34  36
ENDBRANCH  31  34
ENDBRANCH  26  32
ENDBRANCH   7  26
TORSDOF 8
