REMARK  Name = ZINC65424237
REMARK  5 active torsions:
REMARK  status: ('A' for Active; 'I' for Inactive)
REMARK    1  A    between atoms: C_1  and  C_2
REMARK    2  A    between atoms: C_2  and  C_3
REMARK    3  A    between atoms: C_2  and  N_12
REMARK    4  A    between atoms: C_7  and  N_9
REMARK    5  A    between atoms: N_15  and  C_16
REMARK                            x       y       z     vdW  Elec       q    Type
REMARK                         _______ _______ _______ _____ _____    ______ ____
ROOT
ATOM      1  N   UNL     1       0.705  -0.506   1.185  0.00  0.00    -0.293 N 
ATOM      2  C   UNL     1       0.049  -0.640   2.354  0.00  0.00    +0.304 C 
ATOM      3  O   UNL     1      -1.133  -0.364   2.423  0.00  0.00    -0.252 OA
ATOM      4  N   UNL     1       0.703  -1.080   3.447  0.00  0.00    -0.267 N 
ATOM      5  H   UNL     1       1.649  -0.726   1.130  0.00  0.00    +0.151 HD
ATOM      6  H   UNL     1       1.629  -1.361   3.378  0.00  0.00    +0.156 HD
ENDROOT
BRANCH   4   7
ATOM      7  C   UNL     1       0.046  -1.131   4.683  0.00  0.00    +0.073 A 
ATOM      8  C   UNL     1      -1.306  -1.442   4.740  0.00  0.00    +0.026 A 
ATOM      9  C   UNL     1      -1.952  -1.491   5.960  0.00  0.00    +0.005 A 
ATOM     10  C   UNL     1      -1.256  -1.231   7.126  0.00  0.00    +0.041 A 
ATOM     11  C   UNL     1       0.092  -0.919   7.075  0.00  0.00    +0.160 A 
ATOM     12  C   UNL     1       0.747  -0.875   5.856  0.00  0.00    +0.179 A 
ATOM     13  F   UNL     1       2.064  -0.577   5.805  0.00  0.00    -0.201 F 
ATOM     14  F   UNL     1       0.770  -0.665   8.216  0.00  0.00    -0.202 F 
ENDBRANCH   4   7
BRANCH   1  16
ATOM     15  C   UNL     1      -0.023   1.502  -0.007  0.00  0.00    +0.033 C 
ATOM     16  C   UNL     1      -0.005  -0.028  -0.004  0.00  0.00    +0.102 C 
BRANCH  16  17
ATOM     17  C   UNL     1       0.695  -0.525  -1.242  0.00  0.00    -0.025 A 
ATOM     18  C   UNL     1       2.077  -0.549  -1.292  0.00  0.00    +0.005 A 
ATOM     19  C   UNL     1       2.719  -1.005  -2.428  0.00  0.00    +0.003 A 
ATOM     20  C   UNL     1       1.981  -1.437  -3.514  0.00  0.00    +0.033 A 
ATOM     21  C   UNL     1       0.600  -1.413  -3.463  0.00  0.00    +0.127 A 
ATOM     22  C   UNL     1      -0.043  -0.962  -2.326  0.00  0.00    +0.038 A 
BRANCH  21  23
ATOM     23  N   UNL     1      -0.191  -1.875  -4.626  0.00  0.00    +0.056 N 
ATOM     24  O   UNL     1       0.371  -2.273  -5.620  0.00  0.00    -0.126 OA
ATOM     25  O   UNL     1      -1.399  -1.855  -4.582  0.00  0.00    -0.126 OA
ENDBRANCH  21  23
ENDBRANCH  16  17
ENDBRANCH   1  16
TORSDOF 4
