REMARK  Name = ZINC20855161
REMARK  6 active torsions:
REMARK  status: ('A' for Active; 'I' for Inactive)
REMARK    1  A    between atoms: C_10  and  C_12
REMARK    2  A    between atoms: C_18  and  C_20
REMARK    3  A    between atoms: C_20  and  O_22
REMARK    4  A    between atoms: O_22  and  C_23
REMARK    5  A    between atoms: C_23  and  C_24
REMARK    6  A    between atoms: N_26  and  C_27
REMARK                            x       y       z     vdW  Elec       q    Type
REMARK                         _______ _______ _______ _____ _____    ______ ____
ROOT
ATOM      1  C   UNL     1      -3.959   1.762  -0.297  0.00  0.00    +0.089 C 
ATOM      2  C   UNL     1      -3.431   0.890   0.844  0.00  0.00    +0.013 C 
ATOM      3  C   UNL     1      -4.074   1.330   2.161  0.00  0.00    +0.001 C 
ATOM      4  C   UNL     1      -5.593   1.176   2.063  0.00  0.00    +0.001 C 
ATOM      5  C   UNL     1      -6.121   2.048   0.922  0.00  0.00    +0.015 C 
ATOM      6  C   UNL     1      -5.479   1.609  -0.395  0.00  0.00    +0.110 C 
ENDROOT
BRANCH   1  16
ATOM      7  C   UNL     1      -0.718   7.459   0.097  0.00  0.00    +0.000 A 
ATOM      8  C   UNL     1      -2.079   7.339   0.308  0.00  0.00    +0.002 A 
ATOM      9  C   UNL     1      -2.686   6.104   0.238  0.00  0.00    +0.024 A 
ATOM     10  C   UNL     1      -1.933   4.965  -0.056  0.00  0.00    +0.039 A 
ATOM     11  C   UNL     1      -0.570   5.096  -0.265  0.00  0.00    -0.024 A 
ATOM     12  C   UNL     1       0.035   6.336  -0.189  0.00  0.00    +0.005 A 
ATOM     13  C   UNL     1       0.005   3.728  -0.557  0.00  0.00    +0.056 C 
ATOM     14  C   UNL     1      -1.202   2.778  -0.492  0.00  0.00    +0.118 C 
ATOM     15  N   UNL     1      -2.348   3.635  -0.178  0.00  0.00    -0.271 N 
ATOM     16  C   UNL     1      -3.616   3.205  -0.027  0.00  0.00    +0.224 C 
ATOM     17  O   UNL     1      -4.482   3.978   0.325  0.00  0.00    -0.275 OA
ENDBRANCH   1  16
BRANCH   6  18
ATOM     18  C   UNL     1      -5.999   2.468  -1.518  0.00  0.00    +0.311 C 
ATOM     19  O   UNL     1      -5.234   3.134  -2.174  0.00  0.00    -0.251 OA
BRANCH  18  20
ATOM     20  O   UNL     1      -7.313   2.493  -1.791  0.00  0.00    -0.455 OA
BRANCH  20  21
ATOM     21  C   UNL     1      -7.743   3.342  -2.887  0.00  0.00    +0.328 C 
BRANCH  21  22
ATOM     22  C   UNL     1      -9.239   3.242  -3.044  0.00  0.00    +0.255 C 
ATOM     23  O   UNL     1      -9.879   2.525  -2.304  0.00  0.00    -0.272 OA
ATOM     24  N   UNL     1      -9.864   3.949  -4.005  0.00  0.00    -0.283 N 
ATOM     25  H   UNL     1      -9.277   4.539  -4.724  0.00  0.00    +0.155 HD
BRANCH  24  26
ATOM     26  C   UNL     1     -11.263   3.932  -4.089  0.00  0.00    +0.037 A 
ATOM     27  C   UNL     1     -11.886   4.067  -5.323  0.00  0.00    +0.027 A 
ATOM     28  C   UNL     1     -13.265   4.046  -5.408  0.00  0.00    +0.051 A 
ATOM     29  C   UNL     1     -14.030   3.900  -4.262  0.00  0.00    +0.166 A 
ATOM     30  C   UNL     1     -13.408   3.770  -3.023  0.00  0.00    +0.168 A 
ATOM     31  C   UNL     1     -12.026   3.786  -2.939  0.00  0.00    +0.072 A 
ATOM     32  O   UNL     1     -14.370   3.642  -2.063  0.00  0.00    -0.453 OA
ATOM     33  C   UNL     1     -15.573   3.285  -2.769  0.00  0.00    +0.466 C 
ATOM     34  O   UNL     1     -15.383   3.854  -4.078  0.00  0.00    -0.453 OA
ENDBRANCH  24  26
ENDBRANCH  21  22
ENDBRANCH  20  21
ENDBRANCH  18  20
ENDBRANCH   6  18
TORSDOF 6
