REMARK  Name = ZINC09409567
REMARK  8 active torsions:
REMARK  status: ('A' for Active; 'I' for Inactive)
REMARK    1  A    between atoms: C_1  and  O_2
REMARK    2  A    between atoms: O_2  and  C_3
REMARK    3  A    between atoms: C_6  and  C_9
REMARK    4  A    between atoms: C_9  and  C_11
REMARK    5  A    between atoms: C_13  and  C_26
REMARK    6  A    between atoms: C_31  and  O_32
REMARK    7  A    between atoms: O_32  and  C_33
REMARK    8  A    between atoms: C_33  and  C_34
REMARK                            x       y       z     vdW  Elec       q    Type
REMARK                         _______ _______ _______ _____ _____    ______ ____
ROOT
ATOM      1  C   UNL     1      -1.744  -1.265  -1.158  0.00  0.00    +0.173 C 
ATOM      2  C   UNL     1      -2.776  -2.244  -0.624  0.00  0.00    +0.106 C 
ATOM      3  N   UNL     1      -2.692  -2.257   0.666  0.00  0.00    -0.086 NA
ATOM      4  O   UNL     1      -1.690  -1.385   1.162  0.00  0.00    -0.371 OA
ATOM      5  C   UNL     1      -1.347  -0.487   0.105  0.00  0.00    +0.255 C 
ATOM      6  C   UNL     1       0.109  -0.129   0.105  0.00  0.00    +0.030 A 
ATOM      7  C   UNL     1       1.270  -0.867   0.040  0.00  0.00    +0.010 A 
ATOM      8  C   UNL     1       2.498  -0.229   0.059  0.00  0.00    +0.001 A 
ATOM      9  C   UNL     1       2.556   1.150   0.144  0.00  0.00    +0.002 A 
ATOM     10  C   UNL     1       1.396   1.893   0.212  0.00  0.00    +0.024 A 
ATOM     11  C   UNL     1       0.156   1.260   0.193  0.00  0.00    +0.041 A 
ATOM     12  N   UNL     1      -1.137   1.784   0.256  0.00  0.00    -0.281 N 
ATOM     13  C   UNL     1      -2.079   0.820   0.205  0.00  0.00    +0.270 C 
ATOM     14  O   UNL     1      -3.281   0.978   0.238  0.00  0.00    -0.271 OA
ATOM     15  H   UNL     1      -1.335   2.731   0.322  0.00  0.00    +0.155 HD
ENDROOT
BRANCH   2  16
ATOM     16  C   UNL     1      -3.712  -3.043  -1.437  0.00  0.00    +0.042 A 
ATOM     17  C   UNL     1      -3.631  -3.014  -2.831  0.00  0.00    +0.013 A 
ATOM     18  C   UNL     1      -4.505  -3.768  -3.585  0.00  0.00    +0.001 A 
ATOM     19  C   UNL     1      -5.471  -4.545  -2.967  0.00  0.00    +0.004 A 
ATOM     20  C   UNL     1      -5.564  -4.578  -1.589  0.00  0.00    +0.046 A 
ATOM     21  C   UNL     1      -4.689  -3.831  -0.816  0.00  0.00    +0.131 A 
BRANCH  21  22
ATOM     22  O   UNL     1      -4.780  -3.862   0.539  0.00  0.00    -0.477 OA
BRANCH  22  23
ATOM     23  C   UNL     1      -5.802  -4.688   1.101  0.00  0.00    +0.346 C 
BRANCH  23  24
ATOM     24  C   UNL     1      -5.752  -4.598   2.570  0.00  0.00    +0.104 C 
ATOM     25  N   UNL     1      -5.713  -4.529   3.703  0.00  0.00    -0.193 NA
ENDBRANCH  23  24
ENDBRANCH  22  23
ENDBRANCH  21  22
ENDBRANCH   2  16
BRANCH   1  26
ATOM     26  C   UNL     1      -0.556  -1.992  -1.735  0.00  0.00    +0.177 C 
ATOM     27  O   UNL     1      -0.288  -3.113  -1.355  0.00  0.00    -0.291 OA
BRANCH  26  31
ATOM     28  C   UNL     1       1.844  -0.125  -4.683  0.00  0.00    +0.120 A 
ATOM     29  C   UNL     1       2.130  -1.424  -4.278  0.00  0.00    +0.046 A 
ATOM     30  C   UNL     1       1.356  -2.033  -3.324  0.00  0.00    +0.015 A 
ATOM     31  C   UNL     1       0.276  -1.345  -2.757  0.00  0.00    +0.018 A 
ATOM     32  C   UNL     1      -0.011  -0.039  -3.173  0.00  0.00    +0.015 A 
ATOM     33  C   UNL     1       0.772   0.564  -4.123  0.00  0.00    +0.046 A 
BRANCH  28  35
ATOM     34  C   UNL     1       2.264   1.809  -5.997  0.00  0.00    +0.277 C 
ATOM     35  O   UNL     1       2.612   0.474  -5.627  0.00  0.00    -0.495 OA
ENDBRANCH  28  35
ENDBRANCH  26  31
ENDBRANCH   1  26
TORSDOF 7
