REMARK  Name = ZINC08950367
REMARK  10 active torsions:
REMARK  status: ('A' for Active; 'I' for Inactive)
REMARK    1  A    between atoms: C_1  and  C_2
REMARK    2  A    between atoms: C_2  and  C_3
REMARK    3  A    between atoms: C_3  and  O_4
REMARK    4  A    between atoms: O_4  and  C_5
REMARK    5  A    between atoms: C_5  and  C_7
REMARK    6  A    between atoms: C_11  and  N_13
REMARK    7  A    between atoms: C_14  and  C_16
REMARK    8  A    between atoms: C_16  and  S_17
REMARK    9  A    between atoms: S_17  and  C_18
REMARK   10  A    between atoms: C_30  and  C_34
REMARK                            x       y       z     vdW  Elec       q    Type
REMARK                         _______ _______ _______ _____ _____    ______ ____
ROOT
ATOM      1  C   UNL     1      -3.703  -1.075  -0.203  0.00  0.00    +0.173 C 
ENDROOT
BRANCH   1   3
ATOM      2  N   UNL     1      -2.428   1.033   0.019  0.00  0.00    -0.285 N 
ATOM      3  C   UNL     1      -2.409  -0.310  -0.091  0.00  0.00    +0.227 C 
ATOM      4  O   UNL     1      -1.351  -0.904  -0.099  0.00  0.00    -0.275 OA
ATOM      5  H   UNL     1      -3.273   1.501   0.102  0.00  0.00    +0.155 HD
BRANCH   2  10
ATOM      6  C   UNL     1       1.040   2.023  -0.747  0.00  0.00    +0.061 A 
ATOM      7  C   UNL     1       1.150   3.189   0.016  0.00  0.00    +0.015 A 
ATOM      8  C   UNL     1       0.076   3.627   0.764  0.00  0.00    +0.003 A 
ATOM      9  C   UNL     1      -1.110   2.916   0.762  0.00  0.00    +0.023 A 
ATOM     10  C   UNL     1      -1.227   1.752   0.012  0.00  0.00    +0.034 A 
ATOM     11  C   UNL     1      -0.157   1.306  -0.748  0.00  0.00    +0.038 A 
BRANCH   6  12
ATOM     12  C   UNL     1       2.188   1.552  -1.549  0.00  0.00    +0.339 C 
ATOM     13  O   UNL     1       2.090   0.538  -2.211  0.00  0.00    -0.245 OA
BRANCH  12  14
ATOM     14  O   UNL     1       3.342   2.246  -1.546  0.00  0.00    -0.461 OA
BRANCH  14  15
ATOM     15  C   UNL     1       4.427   1.724  -2.357  0.00  0.00    +0.232 C 
BRANCH  15  17
ATOM     16  C   UNL     1       6.790   2.090  -3.083  0.00  0.00    +0.007 C 
ATOM     17  C   UNL     1       5.647   2.640  -2.228  0.00  0.00    +0.038 C 
ENDBRANCH  15  17
ENDBRANCH  14  15
ENDBRANCH  12  14
ENDBRANCH   6  12
ENDBRANCH   2  10
ENDBRANCH   1   3
BRANCH   1  18
ATOM     18  S   UNL     1      -3.348  -2.845  -0.335  0.00  0.00    -0.078 S 
BRANCH  18  19
ATOM     19  C   UNL     1      -4.989  -3.478  -0.449  0.00  0.00    +0.170 A 
ATOM     20  N   UNL     1      -5.184  -4.823  -0.573  0.00  0.00    -0.301 N 
ATOM     21  H   UNL     1      -4.416  -5.415  -0.596  0.00  0.00    +0.171 HD
ATOM     22  C   UNL     1      -6.422  -5.344  -0.657  0.00  0.00    +0.261 A 
ATOM     23  O   UNL     1      -6.580  -6.548  -0.762  0.00  0.00    -0.267 OA
ATOM     24  C   UNL     1      -7.550  -4.464  -0.627  0.00  0.00    +0.075 A 
ATOM     25  C   UNL     1      -8.971  -4.808  -0.707  0.00  0.00    -0.023 A 
ATOM     26  C   UNL     1      -9.851  -3.788  -0.656  0.00  0.00    -0.004 A 
ATOM     27  S   UNL     1      -8.857  -2.329  -0.501  0.00  0.00    -0.073 S 
ATOM     28  C   UNL     1      -7.256  -3.096  -0.504  0.00  0.00    +0.117 A 
ATOM     29  N   UNL     1      -6.010  -2.646  -0.420  0.00  0.00    -0.216 NA
ATOM     30  C   UNL     1     -11.346  -3.875  -0.718  0.00  0.00    +0.046 C 
ATOM     31  C   UNL     1     -11.757  -5.334  -0.474  0.00  0.00    -0.009 C 
ATOM     32  C   UNL     1     -10.895  -6.241  -1.357  0.00  0.00    +0.008 C 
ATOM     33  C   UNL     1      -9.455  -6.250  -0.843  0.00  0.00    +0.037 C 
ATOM     34  C   UNL     1     -13.232  -5.519  -0.835  0.00  0.00    +0.008 C 
ENDBRANCH  18  19
ENDBRANCH   1  18
TORSDOF 8
