REMARK  Name = ZINC36000033
REMARK  9 active torsions:
REMARK  status: ('A' for Active; 'I' for Inactive)
REMARK    1  A    between atoms: C_1  and  C_2
REMARK    2  A    between atoms: C_2  and  O_3
REMARK    3  A    between atoms: O_3  and  C_4
REMARK    4  A    between atoms: C_4  and  C_6
REMARK    5  A    between atoms: C_7  and  C_22
REMARK    6  A    between atoms: N_8  and  C_21
REMARK    7  A    between atoms: C_12  and  C_14
REMARK    8  A    between atoms: C_22  and  N_23
REMARK    9  A    between atoms: C_30  and  C_32
REMARK                            x       y       z     vdW  Elec       q    Type
REMARK                         _______ _______ _______ _____ _____    ______ ____
ROOT
ATOM      1  C   UNL     1       0.476  -2.736  -2.418  0.00  0.00    +0.080 C 
ATOM      2  C   UNL     1       1.189  -3.856  -2.670  0.00  0.00    +0.041 C 
ATOM      3  N   UNL     1       2.023  -3.932  -3.748  0.00  0.00    -0.260 N 
ATOM      4  C   UNL     1       2.201  -2.933  -4.621  0.00  0.00    +0.307 C 
ATOM      5  O   UNL     1       2.967  -3.096  -5.552  0.00  0.00    -0.252 OA
ATOM      6  N   UNL     1       1.560  -1.754  -4.503  0.00  0.00    -0.288 N 
ATOM      7  C   UNL     1       0.631  -1.572  -3.375  0.00  0.00    +0.144 C 
ATOM      8  C   UNL     1       2.765  -5.177  -3.960  0.00  0.00    +0.139 C 
ATOM      9  H   UNL     1       1.704  -1.044  -5.147  0.00  0.00    +0.151 HD
ENDROOT
BRANCH   7  10
ATOM     10  C   UNL     1      -0.730  -1.248  -3.936  0.00  0.00    -0.022 A 
ATOM     11  C   UNL     1      -1.254  -2.010  -4.963  0.00  0.00    +0.007 A 
ATOM     12  C   UNL     1      -2.502  -1.714  -5.478  0.00  0.00    +0.020 A 
ATOM     13  C   UNL     1      -3.227  -0.654  -4.965  0.00  0.00    +0.041 A 
ATOM     14  C   UNL     1      -2.703   0.109  -3.937  0.00  0.00    +0.020 A 
ATOM     15  C   UNL     1      -1.457  -0.192  -3.419  0.00  0.00    +0.007 A 
ATOM     16 CL   UNL     1      -4.794  -0.280  -5.611  0.00  0.00    -0.084 Cl
ENDBRANCH   7  10
BRANCH   1  17
ATOM     17  C   UNL     1      -0.389  -2.655  -1.302  0.00  0.00    +0.339 C 
ATOM     18  O   UNL     1      -0.593  -3.641  -0.618  0.00  0.00    -0.245 OA
BRANCH  17  19
ATOM     19  O   UNL     1      -0.987  -1.485  -0.995  0.00  0.00    -0.462 OA
BRANCH  19  21
ATOM     20  C   UNL     1      -2.431  -0.074   0.334  0.00  0.00    +0.048 C 
ATOM     21  C   UNL     1      -1.848  -1.476   0.145  0.00  0.00    +0.229 C 
ENDBRANCH  19  21
ENDBRANCH  17  19
ENDBRANCH   1  17
BRANCH   2  22
ATOM     22  C   UNL     1       1.061  -5.039  -1.745  0.00  0.00    +0.136 C 
BRANCH  22  23
ATOM     23  N   UNL     1      -0.104  -5.843  -2.137  0.00  0.00    -0.295 NA
ATOM     24  C   UNL     1      -0.497  -6.755  -1.064  0.00  0.00    +0.086 C 
ATOM     25  C   UNL     1      -2.003  -6.891  -1.056  0.00  0.00    +0.034 C 
ATOM     26  C   UNL     1      -2.418  -8.093  -1.921  0.00  0.00    +0.109 C 
ATOM     27  N   UNL     1      -1.602  -8.178  -3.148  0.00  0.00    -0.296 N 
ATOM     28  C   UNL     1      -1.249  -7.011  -3.931  0.00  0.00    +0.123 C 
ATOM     29  C   UNL     1       0.085  -6.420  -3.415  0.00  0.00    +0.103 C 
ATOM     30  C   UNL     1      -1.169  -9.387  -3.556  0.00  0.00    +0.253 C 
ATOM     31  O   UNL     1      -1.548 -10.394  -2.987  0.00  0.00    -0.269 OA
BRANCH  30  32
ATOM     32  C   UNL     1      -0.240  -9.490  -4.686  0.00  0.00    +0.074 A 
ATOM     33  C   UNL     1       0.223 -10.624  -5.336  0.00  0.00    +0.021 A 
ATOM     34  C   UNL     1       1.097 -10.402  -6.373  0.00  0.00    +0.008 A 
ATOM     35  C   UNL     1       1.439  -9.128  -6.686  0.00  0.00    +0.046 A 
ATOM     36  S   UNL     1       0.580  -8.190  -5.588  0.00  0.00    -0.092 S 
ENDBRANCH  30  32
ENDBRANCH  22  23
ENDBRANCH   2  22
TORSDOF 7
