REMARK  Name = ZINC39560938
REMARK  9 active torsions:
REMARK  status: ('A' for Active; 'I' for Inactive)
REMARK    1  A    between atoms: C_1  and  C_2
REMARK    2  A    between atoms: N_4  and  C_5
REMARK    3  A    between atoms: C_5  and  C_6
REMARK    4  A    between atoms: C_6  and  N_7
REMARK    5  A    between atoms: N_7  and  C_8
REMARK    6  A    between atoms: C_11  and  C_33
REMARK    7  A    between atoms: C_27  and  C_29
REMARK    8  A    between atoms: C_29  and  O_31
REMARK    9  A    between atoms: O_31  and  C_32
REMARK                            x       y       z     vdW  Elec       q    Type
REMARK                         _______ _______ _______ _____ _____    ______ ____
ROOT
ATOM      1  C   UNL     1       0.281  -5.014  -4.033  0.00  0.00    -0.068 C 
ATOM      2  C   UNL     1      -0.987  -4.468  -4.695  0.00  0.00    +0.008 C 
ATOM      3  C   UNL     1      -2.217  -5.005  -3.960  0.00  0.00    +0.090 C 
ATOM      4  N   UNL     1      -2.208  -6.472  -4.005  0.00  0.00    -0.274 NA
ATOM      5  C   UNL     1      -1.027  -7.012  -3.315  0.00  0.00    +0.106 C 
ATOM      6  C   UNL     1       0.238  -6.545  -4.039  0.00  0.00    +0.009 C 
ATOM      7  C   UNL     1      -1.107  -8.518  -3.346  0.00  0.00    +0.063 C 
ATOM      8  N   UNL     1      -0.156  -9.389  -3.123  0.00  0.00    -0.250 NA
ATOM      9  C   UNL     1      -0.650 -10.628  -3.253  0.00  0.00    +0.068 C 
ATOM     10  C   UNL     1      -0.034 -11.870  -3.112  0.00  0.00    +0.028 C 
ATOM     11  C   UNL     1      -0.828 -13.019  -3.315  0.00  0.00    -0.002 C 
ATOM     12  C   UNL     1      -2.118 -12.975  -3.630  0.00  0.00    -0.022 C 
ATOM     13  C   UNL     1      -2.915 -11.715  -3.816  0.00  0.00    +0.064 C 
ATOM     14  C   UNL     1      -2.034 -10.519  -3.590  0.00  0.00    -0.013 C 
ATOM     15  C   UNL     1      -2.305  -9.206  -3.643  0.00  0.00    -0.017 C 
ATOM     16  C   UNL     1      -3.601  -8.496  -3.946  0.00  0.00    +0.067 C 
ATOM     17  C   UNL     1      -3.457  -7.038  -3.486  0.00  0.00    +0.172 C 
ENDROOT
BRANCH   3  18
ATOM     18  C   UNL     1      -3.466  -4.489  -4.627  0.00  0.00    +0.005 A 
ATOM     19  C   UNL     1      -4.214  -3.497  -4.020  0.00  0.00    +0.008 A 
ATOM     20  C   UNL     1      -5.360  -3.023  -4.632  0.00  0.00    +0.000 A 
ATOM     21  C   UNL     1      -5.759  -3.541  -5.850  0.00  0.00    +0.003 A 
ATOM     22  C   UNL     1      -5.013  -4.532  -6.458  0.00  0.00    +0.038 A 
ATOM     23  C   UNL     1      -3.862  -5.004  -5.849  0.00  0.00    +0.128 A 
ATOM     24  F   UNL     1      -3.129  -5.970  -6.445  0.00  0.00    -0.205 F 
ENDBRANCH   3  18
BRANCH   1  25
ATOM     25  N   UNL     1       0.357  -4.531  -2.647  0.00  0.00    +0.382 N 
ATOM     26  H   UNL     1       1.147  -4.957  -2.186  0.00  0.00    -0.085 HD
ATOM     27  H   UNL     1      -0.491  -4.777  -2.159  0.00  0.00    -0.085 HD
BRANCH  25  28
ATOM     28  C   UNL     1       0.517  -3.071  -2.645  0.00  0.00    -0.063 C 
BRANCH  28  29
ATOM     29  C   UNL     1       0.597  -2.569  -1.202  0.00  0.00    +0.085 C 
BRANCH  29  33
ATOM     30  C   UNL     1       1.014   1.052  -0.030  0.00  0.00    +0.109 C 
ATOM     31  C   UNL     1       0.850  -0.447  -0.032  0.00  0.00    +0.210 C 
ATOM     32  O   UNL     1       0.800  -1.053   1.017  0.00  0.00    -0.276 OA
ATOM     33  N   UNL     1       0.757  -1.113  -1.200  0.00  0.00    -0.317 N 
ATOM     34  H   UNL     1       0.796  -0.628  -2.039  0.00  0.00    +0.149 HD
ENDBRANCH  29  33
ENDBRANCH  28  29
ENDBRANCH  25  28
ENDBRANCH   1  25
BRANCH  17  35
ATOM     35  C   UNL     1      -3.441  -6.988  -1.980  0.00  0.00    +0.325 C 
ATOM     36  O   UNL     1      -2.479  -7.394  -1.372  0.00  0.00    -0.249 OA
BRANCH  35  37
ATOM     37  O   UNL     1      -4.496  -6.493  -1.313  0.00  0.00    -0.467 OA
ATOM     38  C   UNL     1      -4.412  -6.476   0.113  0.00  0.00    +0.280 C 
ENDBRANCH  35  37
ENDBRANCH  17  35
TORSDOF 7
