REMARK  Name = ZINC20757706
REMARK  7 active torsions:
REMARK  status: ('A' for Active; 'I' for Inactive)
REMARK    1  A    between atoms: C_4  and  C_7
REMARK    2  A    between atoms: C_7  and  N_8
REMARK    3  A    between atoms: N_8  and  C_9
REMARK    4  A    between atoms: C_11  and  N_18
REMARK    5  A    between atoms: C_14  and  N_15
REMARK    6  A    between atoms: N_21  and  S_24
REMARK    7  A    between atoms: S_24  and  C_27
REMARK                            x       y       z     vdW  Elec       q    Type
REMARK                         _______ _______ _______ _____ _____    ______ ____
ROOT
ATOM      1  C   UNL     1       5.311  -1.622  -1.696  0.00  0.00    +0.060 A 
ATOM      2  C   UNL     1       6.160  -1.977  -0.656  0.00  0.00    +0.048 A 
ATOM      3  C   UNL     1       7.355  -2.626  -0.932  0.00  0.00    +0.032 A 
ATOM      4  C   UNL     1       7.698  -2.918  -2.247  0.00  0.00    +0.025 A 
ATOM      5  C   UNL     1       6.851  -2.563  -3.279  0.00  0.00    +0.036 A 
ATOM      6  C   UNL     1       5.657  -1.923  -3.007  0.00  0.00    +0.147 A 
ENDROOT
BRANCH   3   7
ATOM      7  N   UNL     1       8.212  -2.985   0.111  0.00  0.00    -0.327 N 
ATOM      8  C   UNL     1       8.563  -1.817   0.930  0.00  0.00    +0.122 C 
ATOM      9  C   UNL     1       9.351  -2.278   2.160  0.00  0.00    +0.128 C 
ATOM     10  N   UNL     1      10.493  -3.087   1.707  0.00  0.00    -0.173 NA
ATOM     11  C   UNL     1      10.236  -4.194   0.774  0.00  0.00    +0.128 C 
ATOM     12  C   UNL     1       9.413  -3.657  -0.402  0.00  0.00    +0.122 C 
BRANCH  10  13
ATOM     13  S   UNL     1      12.029  -2.760   2.235  0.00  0.00    +0.067 S 
ATOM     14  O   UNL     1      11.895  -2.077   3.474  0.00  0.00    -0.152 OA
ATOM     15  O   UNL     1      12.768  -3.967   2.107  0.00  0.00    -0.152 OA
BRANCH  13  16
ATOM     16  C   UNL     1      12.736  -1.613   1.101  0.00  0.00    +0.144 A 
ATOM     17  C   UNL     1      12.710  -0.258   1.130  0.00  0.00    +0.038 A 
ATOM     18  C   UNL     1      13.342   0.447   0.121  0.00  0.00    +0.030 A 
ATOM     19  C   UNL     1      13.969  -0.240  -0.867  0.00  0.00    +0.080 A 
ATOM     20  S   UNL     1      13.681  -1.933  -0.380  0.00  0.00    -0.057 S 
ATOM     21 CL   UNL     1      14.833   0.370  -2.243  0.00  0.00    -0.076 Cl
ENDBRANCH  13  16
ENDBRANCH  10  13
ENDBRANCH   3   7
BRANCH   6  22
ATOM     22  N   UNL     1       4.750  -1.550  -4.116  0.00  0.00    +0.058 N 
ATOM     23  O   UNL     1       5.000  -1.906  -5.253  0.00  0.00    -0.126 OA
ATOM     24  O   UNL     1       3.753  -0.888  -3.890  0.00  0.00    -0.126 OA
ENDBRANCH   6  22
BRANCH   1  25
ATOM     25  N   UNL     1       4.107  -0.969  -1.423  0.00  0.00    -0.338 N 
ATOM     26  H   UNL     1       3.479  -0.605  -2.250  0.00  0.00    +0.146 HD
BRANCH  25  27
ATOM     27  C   UNL     1       3.679  -0.770  -0.036  0.00  0.00    +0.137 C 
BRANCH  27  31
ATOM     28  C   UNL     1      -0.067   1.282   0.018  0.00  0.00    +0.000 A 
ATOM     29  C   UNL     1       1.114   2.000   0.036  0.00  0.00    +0.000 A 
ATOM     30  C   UNL     1       2.327   1.335   0.018  0.00  0.00    +0.005 A 
ATOM     31  C   UNL     1       2.357  -0.046  -0.017  0.00  0.00    -0.030 A 
ATOM     32  C   UNL     1       1.176  -0.764  -0.034  0.00  0.00    +0.005 A 
ATOM     33  C   UNL     1      -0.036  -0.100  -0.017  0.00  0.00    +0.000 A 
ENDBRANCH  27  31
ENDBRANCH  25  27
ENDBRANCH   1  25
TORSDOF 7
