REMARK  Name = ZINC32087756
REMARK  3 active torsions:
REMARK  status: ('A' for Active; 'I' for Inactive)
REMARK    1  A    between atoms: C_6  and  N_7
REMARK    2  A    between atoms: N_7  and  S_8
REMARK    3  A    between atoms: S_8  and  C_11
REMARK                            x       y       z     vdW  Elec       q    Type
REMARK                         _______ _______ _______ _____ _____    ______ ____
ROOT
ATOM      1  C   UNL     1      -1.710   3.618   0.011  0.00  0.00    +0.026 A 
ATOM      2  C   UNL     1      -2.110   4.940   0.004  0.00  0.00    +0.025 A 
ATOM      3  C   UNL     1      -2.184   5.636  -1.194  0.00  0.00    +0.037 A 
ATOM      4  C   UNL     1      -1.848   5.005  -2.385  0.00  0.00    -0.024 A 
ATOM      5  C   UNL     1      -1.442   3.686  -2.378  0.00  0.00    +0.030 A 
ATOM      6  C   UNL     1      -1.369   2.989  -1.179  0.00  0.00    +0.048 A 
ATOM      7  C   UNL     1      -1.929   5.765  -3.684  0.00  0.00    +0.046 C 
ATOM      8  C   UNL     1      -3.091   6.757  -3.625  0.00  0.00    +0.101 C 
ATOM      9  C   UNL     1      -3.026   7.546  -2.345  0.00  0.00    +0.218 C 
ATOM     10  O   UNL     1      -3.366   8.710  -2.341  0.00  0.00    -0.275 OA
ATOM     11  N   UNL     1      -2.596   6.975  -1.206  0.00  0.00    -0.285 N 
ATOM     12  H   UNL     1      -2.569   7.567  -0.279  0.00  0.00    +0.155 HD
ENDROOT
BRANCH   6  13
ATOM     13  N   UNL     1      -0.958   1.652  -1.171  0.00  0.00    -0.216 N 
ATOM     14  H   UNL     1      -1.698   0.850  -1.030  0.00  0.00    +0.174 HD
BRANCH  13  15
ATOM     15  S   UNL     1       0.642   1.277  -1.373  0.00  0.00    +0.079 S 
ATOM     16  O   UNL     1       0.745  -0.136  -1.260  0.00  0.00    -0.149 OA
ATOM     17  O   UNL     1       1.082   1.983  -2.525  0.00  0.00    -0.149 OA
BRANCH  15  18
ATOM     18  C   UNL     1       1.514   1.956  -0.002  0.00  0.00    +0.147 A 
ATOM     19  C   UNL     1       1.715   1.427   1.230  0.00  0.00    +0.038 A 
ATOM     20  C   UNL     1       2.440   2.148   2.160  0.00  0.00    +0.025 A 
ATOM     21  C   UNL     1       2.928   3.365   1.813  0.00  0.00    +0.057 A 
ATOM     22  S   UNL     1       2.369   3.519   0.124  0.00  0.00    -0.061 S 
ATOM     23 BR   UNL     1       3.944   4.579   2.846  0.00  0.00    -0.043 Br
ENDBRANCH  15  18
ENDBRANCH  13  15
ENDBRANCH   6  13
TORSDOF 3
