REMARK  Name = ZINC65329916
REMARK  7 active torsions:
REMARK  status: ('A' for Active; 'I' for Inactive)
REMARK    1  A    between atoms: C_1  and  C_2
REMARK    2  A    between atoms: C_5  and  N_8
REMARK    3  A    between atoms: N_10  and  C_11
REMARK    4  A    between atoms: C_11  and  C_12
REMARK    5  A    between atoms: C_12  and  C_13
REMARK    6  A    between atoms: N_22  and  C_23
REMARK    7  A    between atoms: C_23  and  C_25
REMARK                            x       y       z     vdW  Elec       q    Type
REMARK                         _______ _______ _______ _____ _____    ______ ____
ROOT
ATOM      1  N   UNL     1       0.031  -4.043   0.481  0.00  0.00    -0.328 N 
ATOM      2  C   UNL     1       0.061  -5.000   1.454  0.00  0.00    +0.194 C 
ATOM      3  N   UNL     1      -0.049  -6.317   1.119  0.00  0.00    -0.357 N 
ATOM      4  N   UNL     1       0.197  -4.649   2.724  0.00  0.00    -0.143 NA
ATOM      5  H   UNL     1      -0.361  -6.960   1.775  0.00  0.00    +0.162 HD
ATOM      6  H   UNL     1       0.675  -3.317   0.495  0.00  0.00    +0.169 HD
ENDROOT
BRANCH   1  11
ATOM      7  C   UNL     1      -3.853  -4.312  -3.644  0.00  0.00    +0.044 C 
ATOM      8  C   UNL     1      -2.821  -4.241  -2.548  0.00  0.00    -0.050 A 
ATOM      9  C   UNL     1      -1.606  -3.626  -2.784  0.00  0.00    +0.005 A 
ATOM     10  C   UNL     1      -0.658  -3.558  -1.782  0.00  0.00    +0.026 A 
ATOM     11  C   UNL     1      -0.927  -4.109  -0.536  0.00  0.00    +0.042 A 
ATOM     12  C   UNL     1      -2.149  -4.726  -0.302  0.00  0.00    +0.026 A 
ATOM     13  C   UNL     1      -3.094  -4.786  -1.306  0.00  0.00    +0.005 A 
ENDBRANCH   1  11
BRANCH   4  14
ATOM     14  C   UNL     1       0.353  -3.359   3.050  0.00  0.00    +0.270 C 
ATOM     15  O   UNL     1       0.278  -2.500   2.189  0.00  0.00    -0.268 OA
BRANCH  14  16
ATOM     16  C   UNL     1       0.616  -2.976   4.456  0.00  0.00    +0.039 A 
ATOM     17  C   UNL     1       0.812  -3.961   5.424  0.00  0.00    +0.014 A 
ATOM     18  C   UNL     1       1.057  -3.599   6.732  0.00  0.00    +0.021 A 
ATOM     19  C   UNL     1       1.108  -2.261   7.085  0.00  0.00    +0.041 A 
ATOM     20  C   UNL     1       0.913  -1.279   6.128  0.00  0.00    +0.021 A 
ATOM     21  C   UNL     1       0.674  -1.630   4.816  0.00  0.00    +0.014 A 
ATOM     22 CL   UNL     1       1.416  -1.813   8.734  0.00  0.00    -0.084 Cl
ENDBRANCH  14  16
ENDBRANCH   4  14
BRANCH   3  23
ATOM     23  C   UNL     1       0.303  -6.761  -0.232  0.00  0.00    +0.120 C 
BRANCH  23  24
ATOM     24  C   UNL     1      -0.018  -8.250  -0.379  0.00  0.00    +0.054 C 
BRANCH  24  25
ATOM     25  C   UNL     1       0.456  -8.735  -1.725  0.00  0.00    -0.040 C 
ATOM     26  C   UNL     1       1.659  -9.281  -2.015  0.00  0.00    -0.001 A 
ATOM     27  C   UNL     1       2.841  -9.575  -1.196  0.00  0.00    +0.010 A 
ATOM     28  C   UNL     1       3.922 -10.137  -1.783  0.00  0.00    +0.001 A 
ATOM     29  C   UNL     1       3.942 -10.445  -3.150  0.00  0.00    +0.002 A 
ATOM     30  C   UNL     1       2.895 -10.204  -3.967  0.00  0.00    +0.026 A 
ATOM     31  C   UNL     1       1.705  -9.616  -3.456  0.00  0.00    +0.043 A 
ATOM     32  N   UNL     1       0.575  -9.290  -4.035  0.00  0.00    -0.380 N 
ATOM     33  C   UNL     1      -0.319  -8.716  -3.023  0.00  0.00    +0.144 C 
ATOM     34  H   UNL     1       0.364  -9.411  -4.974  0.00  0.00    +0.160 HD
ENDBRANCH  24  25
ENDBRANCH  23  24
ENDBRANCH   3  23
TORSDOF 6
