REMARK  Name = ZINC58733849
REMARK  8 active torsions:
REMARK  status: ('A' for Active; 'I' for Inactive)
REMARK    1  A    between atoms: C_4  and  C_7
REMARK    2  A    between atoms: C_7  and  C_9
REMARK    3  A    between atoms: C_7  and  S_26
REMARK    4  A    between atoms: N_11  and  C_12
REMARK    5  A    between atoms: C_15  and  N_18
REMARK    6  A    between atoms: C_19  and  N_25
REMARK    7  A    between atoms: C_20  and  C_23
REMARK    8  A    between atoms: S_26  and  C_27
REMARK                            x       y       z     vdW  Elec       q    Type
REMARK                         _______ _______ _______ _____ _____    ______ ____
ROOT
ATOM      1  C   UNL     1       3.792  -1.567  -1.273  0.00  0.00    +0.235 C 
ATOM      2  O   UNL     1       3.478  -2.737  -1.218  0.00  0.00    -0.274 OA
ATOM      3  N   UNL     1       4.218  -1.036  -2.436  0.00  0.00    -0.284 N 
ATOM      4  H   UNL     1       4.405  -0.087  -2.497  0.00  0.00    +0.155 HD
ENDROOT
BRANCH   3   5
ATOM      5  C   UNL     1       4.391  -1.857  -3.558  0.00  0.00    +0.034 A 
ATOM      6  C   UNL     1       5.425  -1.605  -4.450  0.00  0.00    +0.025 A 
ATOM      7  C   UNL     1       5.596  -2.413  -5.555  0.00  0.00    +0.029 A 
ATOM      8  C   UNL     1       4.733  -3.479  -5.775  0.00  0.00    +0.068 A 
ATOM      9  C   UNL     1       3.699  -3.731  -4.884  0.00  0.00    +0.029 A 
ATOM     10  C   UNL     1       3.532  -2.926  -3.775  0.00  0.00    +0.025 A 
BRANCH   8  11
ATOM     11  N   UNL     1       4.907  -4.301  -6.898  0.00  0.00    -0.218 N 
ATOM     12  C   UNL     1       4.670  -5.631  -6.949  0.00  0.00    +0.137 A 
ATOM     13  C   UNL     1       4.969  -6.051  -8.242  0.00  0.00    +0.111 A 
ATOM     14  C   UNL     1       5.395  -4.909  -8.960  0.00  0.00    +0.155 A 
ATOM     15  N   UNL     1       5.348  -3.882  -8.158  0.00  0.00    -0.172 NA
BRANCH  12  16
ATOM     16  N   UNL     1       4.217  -6.424  -5.912  0.00  0.00    -0.342 N 
ATOM     17  H   UNL     1       4.037  -6.032  -5.043  0.00  0.00    +0.144 HD
ATOM     18  H   UNL     1       4.079  -7.374  -6.053  0.00  0.00    +0.144 HD
ENDBRANCH  12  16
BRANCH  13  19
ATOM     19  C   UNL     1       4.865  -7.386  -8.749  0.00  0.00    +0.104 C 
ATOM     20  N   UNL     1       4.783  -8.445  -9.152  0.00  0.00    -0.191 NA
ENDBRANCH  13  19
ENDBRANCH   8  11
ENDBRANCH   3   5
BRANCH   1  21
ATOM     21  C   UNL     1       3.705  -0.705  -0.039  0.00  0.00    +0.167 C 
BRANCH  21  25
ATOM     22  C   UNL     1      -0.038   1.354  -0.003  0.00  0.00    +0.000 A 
ATOM     23  C   UNL     1       1.145   2.069  -0.010  0.00  0.00    +0.000 A 
ATOM     24  C   UNL     1       2.356   1.403  -0.022  0.00  0.00    +0.005 A 
ATOM     25  C   UNL     1       2.385   0.021  -0.026  0.00  0.00    -0.025 A 
ATOM     26  C   UNL     1       1.202  -0.695  -0.017  0.00  0.00    +0.005 A 
ATOM     27  C   UNL     1      -0.009  -0.029  -0.007  0.00  0.00    +0.000 A 
ENDBRANCH  21  25
BRANCH  21  28
ATOM     28  S   UNL     1       3.836  -1.750   1.438  0.00  0.00    -0.108 S 
BRANCH  28  29
ATOM     29  C   UNL     1       3.867  -0.599   2.772  0.00  0.00    +0.009 A 
ATOM     30  C   UNL     1       3.790   0.765   2.518  0.00  0.00    +0.015 A 
ATOM     31  C   UNL     1       3.814   1.664   3.566  0.00  0.00    +0.001 A 
ATOM     32  C   UNL     1       3.916   1.208   4.867  0.00  0.00    +0.000 A 
ATOM     33  C   UNL     1       3.994  -0.149   5.125  0.00  0.00    +0.001 A 
ATOM     34  C   UNL     1       3.963  -1.054   4.082  0.00  0.00    +0.015 A 
ENDBRANCH  28  29
ENDBRANCH  21  28
ENDBRANCH   1  21
TORSDOF 8
