REMARK  Name = ZINC08748661
REMARK  7 active torsions:
REMARK  status: ('A' for Active; 'I' for Inactive)
REMARK    1  A    between atoms: C_1  and  O_2
REMARK    2  A    between atoms: O_2  and  C_3
REMARK    3  A    between atoms: C_5  and  C_15
REMARK    4  A    between atoms: C_8  and  O_9
REMARK    5  A    between atoms: O_9  and  C_10
REMARK    6  A    between atoms: C_29  and  N_33
REMARK    7  A    between atoms: C_30  and  C_31
REMARK                            x       y       z     vdW  Elec       q    Type
REMARK                         _______ _______ _______ _____ _____    ______ ____
ROOT
ATOM      1  C   UNL     1       0.824   3.799   0.023  0.00  0.00    +0.102 C 
ATOM      2  C   UNL     1       1.310   2.363   0.035  0.00  0.00    +0.062 A 
ATOM      3  C   UNL     1       0.430   1.339  -0.013  0.00  0.00    +0.147 A 
ATOM      4  C   UNL     1       0.709  -0.104   0.002  0.00  0.00    +0.032 A 
ATOM      5  C   UNL     1      -0.371  -1.006  -0.052  0.00  0.00    +0.012 A 
ATOM      6  C   UNL     1      -0.139  -2.349  -0.041  0.00  0.00    +0.001 A 
ATOM      7  C   UNL     1       1.149  -2.863   0.022  0.00  0.00    +0.001 A 
ATOM      8  C   UNL     1       2.232  -2.004   0.076  0.00  0.00    +0.016 A 
ATOM      9  C   UNL     1       2.004  -0.645   0.066  0.00  0.00    +0.026 A 
ATOM     10  S   UNL     1       3.322   0.541   0.132  0.00  0.00    -0.047 S 
ATOM     11  C   UNL     1       2.724   2.220   0.105  0.00  0.00    +0.225 A 
ATOM     12  O   UNL     1       3.475   3.180   0.142  0.00  0.00    -0.280 OA
ATOM     13  O   UNL     1      -0.907   1.627  -0.093  0.00  0.00    -0.440 OA
ATOM     14  C   UNL     1      -1.392   2.773   0.400  0.00  0.00    +0.199 C 
ATOM     15  C   UNL     1      -0.603   3.875   0.481  0.00  0.00    +0.098 C 
ENDROOT
BRANCH   1  18
ATOM     16  C   UNL     1       1.807   5.955  -2.920  0.00  0.00    +0.162 A 
ATOM     17  C   UNL     1       1.711   5.453  -1.632  0.00  0.00    +0.054 A 
ATOM     18  C   UNL     1       0.923   4.346  -1.378  0.00  0.00    -0.031 A 
ATOM     19  C   UNL     1       0.221   3.743  -2.405  0.00  0.00    +0.008 A 
ATOM     20  C   UNL     1       0.308   4.241  -3.692  0.00  0.00    +0.050 A 
ATOM     21  C   UNL     1       1.100   5.347  -3.954  0.00  0.00    +0.162 A 
BRANCH  16  23
ATOM     22  C   UNL     1       3.282   7.612  -2.063  0.00  0.00    +0.277 C 
ATOM     23  O   UNL     1       2.586   7.040  -3.173  0.00  0.00    -0.491 OA
ENDBRANCH  16  23
BRANCH  21  24
ATOM     24  O   UNL     1       1.187   5.839  -5.219  0.00  0.00    -0.485 OA
BRANCH  24  25
ATOM     25  C   UNL     1       0.340   5.245  -6.205  0.00  0.00    +0.174 C 
ATOM     26  C   UNL     1       1.028   4.009  -6.819  0.00  0.00    +0.044 C 
ATOM     27  C   UNL     1       0.621   4.050  -8.313  0.00  0.00    +0.004 C 
ATOM     28  C   UNL     1       0.653   5.565  -8.635  0.00  0.00    +0.004 C 
ATOM     29  C   UNL     1       0.101   6.234  -7.359  0.00  0.00    +0.044 C 
ENDBRANCH  24  25
ENDBRANCH  21  24
ENDBRANCH   1  18
BRANCH  14  30
ATOM     30  N   UNL     1      -2.695   2.836   0.826  0.00  0.00    -0.328 N 
ATOM     31  H   UNL     1      -3.050   3.665   1.183  0.00  0.00    +0.145 HD
ATOM     32  H   UNL     1      -3.262   2.050   0.770  0.00  0.00    +0.145 HD
ENDBRANCH  14  30
BRANCH  15  33
ATOM     33  C   UNL     1      -1.129   5.101   1.001  0.00  0.00    +0.101 C 
ATOM     34  N   UNL     1      -1.546   6.074   1.413  0.00  0.00    -0.191 NA
ENDBRANCH  15  33
TORSDOF 6
