REMARK  Name = ZINC46704590
REMARK  6 active torsions:
REMARK  status: ('A' for Active; 'I' for Inactive)
REMARK    1  A    between atoms: C_1  and  C_2
REMARK    2  A    between atoms: C_2  and  C_4
REMARK    3  A    between atoms: C_2  and  N_14
REMARK    4  A    between atoms: C_7  and  S_10
REMARK    5  A    between atoms: S_10  and  N_13
REMARK    6  A    between atoms: N_17  and  C_18
REMARK                            x       y       z     vdW  Elec       q    Type
REMARK                         _______ _______ _______ _____ _____    ______ ____
ROOT
ATOM      1  C   UNL     1      -0.013   1.505   0.026  0.00  0.00    +0.033 C 
ATOM      2  C   UNL     1      -0.002  -0.025   0.007  0.00  0.00    +0.102 C 
ENDROOT
BRANCH   2   3
ATOM      3  C   UNL     1       0.720  -0.537   1.227  0.00  0.00    -0.027 A 
ATOM      4  C   UNL     1       2.102  -0.556   1.254  0.00  0.00    +0.007 A 
ATOM      5  C   UNL     1       2.765  -1.026   2.373  0.00  0.00    +0.029 A 
ATOM      6  C   UNL     1       2.045  -1.476   3.464  0.00  0.00    +0.105 A 
ATOM      7  C   UNL     1       0.663  -1.456   3.437  0.00  0.00    +0.029 A 
ATOM      8  C   UNL     1       0.001  -0.982   2.320  0.00  0.00    +0.007 A 
BRANCH   6   9
ATOM      9  S   UNL     1       2.890  -2.076   4.890  0.00  0.00    +0.056 S 
ATOM     10  O   UNL     1       1.988  -2.946   5.559  0.00  0.00    -0.153 OA
ATOM     11  O   UNL     1       4.174  -2.499   4.453  0.00  0.00    -0.153 OA
BRANCH   9  12
ATOM     12  N   UNL     1       3.134  -0.782   5.894  0.00  0.00    -0.204 NA
ATOM     13  H   UNL     1       3.169  -0.914   6.855  0.00  0.00    +0.144 HD
ATOM     14  H   UNL     1       3.242   0.107   5.523  0.00  0.00    +0.144 HD
ENDBRANCH   9  12
ENDBRANCH   6   9
ENDBRANCH   2   3
BRANCH   2  15
ATOM     15  N   UNL     1       0.684  -0.493  -1.199  0.00  0.00    -0.293 N 
ATOM     16  C   UNL     1       0.006  -0.612  -2.357  0.00  0.00    +0.304 C 
ATOM     17  O   UNL     1      -1.177  -0.331  -2.401  0.00  0.00    -0.252 OA
ATOM     18  N   UNL     1       0.637  -1.043  -3.467  0.00  0.00    -0.268 N 
ATOM     19  H   UNL     1       1.628  -0.717  -1.165  0.00  0.00    +0.151 HD
ATOM     20  H   UNL     1       1.596  -1.189  -3.454  0.00  0.00    +0.156 HD
BRANCH  18  21
ATOM     21  C   UNL     1      -0.091  -1.280  -4.640  0.00  0.00    +0.053 A 
ATOM     22  C   UNL     1      -1.445  -1.579  -4.569  0.00  0.00    +0.026 A 
ATOM     23  C   UNL     1      -2.161  -1.812  -5.727  0.00  0.00    +0.022 A 
ATOM     24  C   UNL     1      -1.531  -1.748  -6.957  0.00  0.00    +0.042 A 
ATOM     25  C   UNL     1      -0.182  -1.451  -7.032  0.00  0.00    +0.041 A 
ATOM     26  C   UNL     1       0.539  -1.210  -5.877  0.00  0.00    +0.064 A 
ATOM     27 CL   UNL     1       2.230  -0.829  -5.970  0.00  0.00    -0.082 Cl
ATOM     28 CL   UNL     1      -2.434  -2.042  -8.410  0.00  0.00    -0.083 Cl
ENDBRANCH  18  21
ENDBRANCH   2  15
TORSDOF 5
