REMARK  Name = ZINC34873203
REMARK  7 active torsions:
REMARK  status: ('A' for Active; 'I' for Inactive)
REMARK    1  A    between atoms: C_10  and  C_11
REMARK    2  A    between atoms: C_11  and  C_12
REMARK    3  A    between atoms: N_14  and  C_15
REMARK    4  A    between atoms: C_15  and  C_16
REMARK    5  A    between atoms: N_18  and  C_19
REMARK    6  A    between atoms: C_23  and  S_25
REMARK    7  A    between atoms: S_25  and  N_28
REMARK                            x       y       z     vdW  Elec       q    Type
REMARK                         _______ _______ _______ _____ _____    ______ ____
ROOT
ATOM      1  C   UNL     1       8.133   2.339   2.970  0.00  0.00    +0.234 C 
ATOM      2  O   UNL     1       8.694   2.570   1.920  0.00  0.00    -0.274 OA
ATOM      3  N   UNL     1       8.669   2.769   4.129  0.00  0.00    -0.284 N 
ATOM      4  H   UNL     1       8.188   2.643   4.962  0.00  0.00    +0.155 HD
ENDROOT
BRANCH   3   5
ATOM      5  C   UNL     1       9.919   3.397   4.131  0.00  0.00    +0.035 A 
ATOM      6  C   UNL     1      10.796   3.199   5.191  0.00  0.00    +0.023 A 
ATOM      7  C   UNL     1      12.029   3.820   5.190  0.00  0.00    +0.004 A 
ATOM      8  C   UNL     1      12.392   4.638   4.136  0.00  0.00    +0.029 A 
ATOM      9  C   UNL     1      11.522   4.838   3.080  0.00  0.00    +0.114 A 
ATOM     10  C   UNL     1      10.290   4.214   3.071  0.00  0.00    +0.052 A 
BRANCH   9  11
ATOM     11  S   UNL     1      11.989   5.881   1.739  0.00  0.00    +0.100 S 
ATOM     12  O   UNL     1      10.784   6.337   1.140  0.00  0.00    -0.146 OA
ATOM     13  O   UNL     1      12.974   6.773   2.243  0.00  0.00    -0.146 OA
BRANCH  11  14
ATOM     14  N   UNL     1      12.745   4.928   0.616  0.00  0.00    -0.118 NA
ATOM     15  C   UNL     1      13.193   5.449  -0.479  0.00  0.00    +0.117 C 
ATOM     16  N   UNL     1      13.106   6.774  -0.817  0.00  0.00    -0.331 N 
ATOM     17  C   UNL     1      14.113   7.078  -1.846  0.00  0.00    +0.103 C 
ATOM     18  C   UNL     1      14.272   5.758  -2.634  0.00  0.00    +0.026 C 
ATOM     19  C   UNL     1      13.900   4.692  -1.582  0.00  0.00    +0.074 C 
ATOM     20  H   UNL     1      12.480   7.410  -0.437  0.00  0.00    +0.147 HD
ENDBRANCH  11  14
ENDBRANCH   9  11
ENDBRANCH   3   5
BRANCH   1  21
ATOM     21  C   UNL     1       6.836   1.571   2.979  0.00  0.00    +0.200 C 
BRANCH  21  24
ATOM     22  C   UNL     1       5.336   0.526   1.367  0.00  0.00    +0.218 C 
ATOM     23  O   UNL     1       4.624   0.193   2.290  0.00  0.00    -0.275 OA
ATOM     24  N   UNL     1       6.467   1.220   1.605  0.00  0.00    -0.306 N 
ATOM     25  H   UNL     1       7.037   1.486   0.867  0.00  0.00    +0.149 HD
BRANCH  22  26
ATOM     26  C   UNL     1       4.957   0.165  -0.046  0.00  0.00    +0.131 C 
BRANCH  26  36
ATOM     27  C   UNL     1      -0.013   1.389  -0.009  0.00  0.00    +0.001 A 
ATOM     28  C   UNL     1       1.176   2.117  -0.016  0.00  0.00    +0.001 A 
ATOM     29  C   UNL     1       2.383   1.487  -0.026  0.00  0.00    +0.009 A 
ATOM     30  C   UNL     1       2.434   0.082  -0.028  0.00  0.00    -0.014 A 
ATOM     31  C   UNL     1       1.225  -0.657  -0.020  0.00  0.00    -0.018 A 
ATOM     32  C   UNL     1      -0.002   0.029  -0.011  0.00  0.00    +0.008 A 
ATOM     33  C   UNL     1       1.276  -2.061  -0.022  0.00  0.00    +0.008 A 
ATOM     34  C   UNL     1       2.483  -2.691  -0.031  0.00  0.00    +0.001 A 
ATOM     35  C   UNL     1       3.671  -1.964  -0.038  0.00  0.00    +0.005 A 
ATOM     36  C   UNL     1       3.660  -0.603  -0.037  0.00  0.00    -0.031 A 
ENDBRANCH  26  36
ENDBRANCH  22  26
ENDBRANCH  21  24
ENDBRANCH   1  21
TORSDOF 7
