REMARK  Name = ZINC13202453
REMARK  9 active torsions:
REMARK  status: ('A' for Active; 'I' for Inactive)
REMARK    1  A    between atoms: C_1  and  C_2
REMARK    2  A    between atoms: C_2  and  N_3
REMARK    3  A    between atoms: C_9  and  C_29
REMARK    4  A    between atoms: C_13  and  S_14
REMARK    5  A    between atoms: S_14  and  C_15
REMARK    6  A    between atoms: C_15  and  C_16
REMARK    7  A    between atoms: N_18  and  C_19
REMARK    8  A    between atoms: C_19  and  C_21
REMARK    9  A    between atoms: C_19  and  C_22
REMARK                            x       y       z     vdW  Elec       q    Type
REMARK                         _______ _______ _______ _____ _____    ______ ____
ROOT
ATOM      1  N   UNL     1       9.196   3.129  -3.725  0.00  0.00    -0.288 N 
ATOM      2  C   UNL     1      10.077   2.231  -4.222  0.00  0.00    +0.262 A 
ATOM      3  O   UNL     1      11.100   2.591  -4.775  0.00  0.00    -0.267 OA
ATOM      4  C   UNL     1       9.751   0.803  -4.076  0.00  0.00    +0.065 A 
ATOM      5  C   UNL     1      10.595  -0.194  -4.563  0.00  0.00    +0.016 A 
ATOM      6  C   UNL     1      10.256  -1.508  -4.408  0.00  0.00    +0.016 A 
ATOM      7  C   UNL     1       9.065  -1.865  -3.762  0.00  0.00    +0.065 A 
ATOM      8  C   UNL     1       8.210  -0.888  -3.270  0.00  0.00    +0.043 A 
ATOM      9  C   UNL     1       8.546   0.460  -3.423  0.00  0.00    +0.080 A 
ATOM     10  N   UNL     1       7.742   1.446  -2.959  0.00  0.00    -0.223 NA
ATOM     11  C   UNL     1       8.055   2.710  -3.102  0.00  0.00    +0.173 A 
ENDROOT
BRANCH   7  12
ATOM     12  C   UNL     1       8.716  -3.295  -3.604  0.00  0.00    +0.387 C 
ATOM     13  O   UNL     1       7.685  -3.610  -3.045  0.00  0.00    -0.241 OA
ATOM     14  O   UNL     1       9.543  -4.246  -4.079  0.00  0.00    -0.241 OA
ENDBRANCH   7  12
BRANCH   1  16
ATOM     15  C   UNL     1      10.264   5.038  -2.630  0.00  0.00    +0.027 C 
ATOM     16  C   UNL     1       9.471   4.563  -3.849  0.00  0.00    +0.124 C 
ENDBRANCH   1  16
BRANCH  11  17
ATOM     17  S   UNL     1       6.949   3.926  -2.468  0.00  0.00    -0.078 S 
BRANCH  17  18
ATOM     18  C   UNL     1       5.660   2.853  -1.785  0.00  0.00    +0.173 C 
BRANCH  18  19
ATOM     19  C   UNL     1       4.576   3.700  -1.171  0.00  0.00    +0.224 C 
ATOM     20  O   UNL     1       4.665   4.909  -1.192  0.00  0.00    -0.275 OA
ATOM     21  N   UNL     1       3.506   3.113  -0.598  0.00  0.00    -0.308 N 
ATOM     22  H   UNL     1       3.435   2.146  -0.581  0.00  0.00    +0.149 HD
BRANCH  21  23
ATOM     23  C   UNL     1       2.452   3.936  -0.000  0.00  0.00    +0.101 C 
ATOM     24  C   UNL     1       2.838   4.298   1.435  0.00  0.00    +0.033 C 
BRANCH  23  25
ATOM     25  C   UNL     1       1.157   3.165   0.008  0.00  0.00    -0.014 A 
ATOM     26  C   UNL     1       1.175   1.783   0.000  0.00  0.00    +0.006 A 
ATOM     27  C   UNL     1      -0.013   1.076   0.008  0.00  0.00    +0.000 A 
ATOM     28  C   UNL     1      -1.219   1.751   0.017  0.00  0.00    +0.001 A 
ATOM     29  C   UNL     1      -1.238   3.132   0.030  0.00  0.00    +0.015 A 
ATOM     30  C   UNL     1      -0.050   3.841   0.022  0.00  0.00    +0.023 A 
ATOM     31 BR   UNL     1      -0.076   5.731   0.031  0.00  0.00    -0.050 Br
ENDBRANCH  23  25
ENDBRANCH  21  23
ENDBRANCH  18  19
ENDBRANCH  17  18
ENDBRANCH  11  17
TORSDOF 7
