REMARK  Name = ZINC08874881
REMARK  6 active torsions:
REMARK  status: ('A' for Active; 'I' for Inactive)
REMARK    1  A    between atoms: C_1  and  C_2
REMARK    2  A    between atoms: C_2  and  O_3
REMARK    3  A    between atoms: O_3  and  C_4
REMARK    4  A    between atoms: C_17  and  C_20
REMARK    5  A    between atoms: C_23  and  C_25
REMARK    6  A    between atoms: C_29  and  C_31
REMARK                            x       y       z     vdW  Elec       q    Type
REMARK                         _______ _______ _______ _____ _____    ______ ____
ROOT
ATOM      1  C   UNL     1       0.776  -1.798  -1.335  0.00  0.00    +0.403 C 
ATOM      2  O   UNL     1       0.312  -2.549  -0.500  0.00  0.00    -0.226 OA
ATOM      3  N   UNL     1       1.395  -2.298  -2.422  0.00  0.00    -0.262 N 
ATOM      4  C   UNL     1       1.520  -3.749  -2.628  0.00  0.00    +0.116 C 
ATOM      5  C   UNL     1       0.737  -4.159  -3.877  0.00  0.00    +0.056 C 
ATOM      6  C   UNL     1       1.084  -3.212  -5.017  0.00  0.00    -0.020 A 
ATOM      7  C   UNL     1       1.630  -1.998  -4.785  0.00  0.00    +0.013 A 
ATOM      8  S   UNL     1       1.846  -1.279  -6.389  0.00  0.00    -0.076 S 
ATOM      9  C   UNL     1       1.256  -2.514  -7.326  0.00  0.00    +0.080 A 
ATOM     10  C   UNL     1       0.867  -3.514  -6.423  0.00  0.00    +0.068 A 
ATOM     11  C   UNL     1       0.279  -4.754  -6.980  0.00  0.00    +0.248 C 
ATOM     12  O   UNL     1      -0.242  -5.587  -6.261  0.00  0.00    -0.270 OA
ATOM     13  N   UNL     1       0.346  -4.923  -8.318  0.00  0.00    -0.287 N 
ATOM     14  C   UNL     1       1.095  -4.039  -9.204  0.00  0.00    +0.227 C 
ATOM     15  N   UNL     1       1.125  -2.659  -8.686  0.00  0.00    -0.314 N 
ATOM     16  C   UNL     1       1.968  -1.411  -3.453  0.00  0.00    +0.153 C 
ATOM     17  H   UNL     1      -0.130  -5.671  -8.710  0.00  0.00    +0.151 HD
ATOM     18  H   UNL     1       1.056  -1.892  -9.275  0.00  0.00    +0.149 HD
ENDROOT
BRANCH  14  19
ATOM     19  C   UNL     1       2.508  -4.548  -9.329  0.00  0.00    +0.144 A 
ATOM     20  C   UNL     1       2.888  -5.838  -9.247  0.00  0.00    +0.049 A 
ATOM     21  C   UNL     1       4.286  -5.868  -9.419  0.00  0.00    +0.050 A 
ATOM     22  C   UNL     1       4.687  -4.581  -9.598  0.00  0.00    +0.135 A 
ATOM     23  O   UNL     1       3.596  -3.792  -9.547  0.00  0.00    -0.456 OA
BRANCH  22  24
ATOM     24  C   UNL     1       6.076  -4.128  -9.817  0.00  0.00    +0.018 A 
ATOM     25  C   UNL     1       7.118  -5.056  -9.860  0.00  0.00    +0.011 A 
ATOM     26  C   UNL     1       8.412  -4.626 -10.065  0.00  0.00    +0.001 A 
ATOM     27  C   UNL     1       8.679  -3.278 -10.228  0.00  0.00    +0.012 A 
ATOM     28  C   UNL     1       7.652  -2.353 -10.186  0.00  0.00    +0.055 A 
ATOM     29  C   UNL     1       6.351  -2.770  -9.987  0.00  0.00    +0.024 A 
BRANCH  28  30
ATOM     30  C   UNL     1       7.952  -0.887 -10.364  0.00  0.00    +0.417 C 
ATOM     31  F   UNL     1       9.327  -0.712 -10.555  0.00  0.00    -0.166 F 
ATOM     32  F   UNL     1       7.261  -0.401 -11.479  0.00  0.00    -0.166 F 
ATOM     33  F   UNL     1       7.547  -0.186  -9.223  0.00  0.00    -0.166 F 
ENDBRANCH  28  30
ENDBRANCH  22  24
ENDBRANCH  14  19
BRANCH   1  34
ATOM     34  O   UNL     1       0.671  -0.465  -1.174  0.00  0.00    -0.451 OA
BRANCH  34  36
ATOM     35  C   UNL     1      -0.019   1.526   0.010  0.00  0.00    +0.048 C 
ATOM     36  C   UNL     1       0.002  -0.004   0.002  0.00  0.00    +0.230 C 
ENDBRANCH  34  36
ENDBRANCH   1  34
TORSDOF 5
