REMARK  Name = ZINC16534129
REMARK  10 active torsions:
REMARK  status: ('A' for Active; 'I' for Inactive)
REMARK    1  A    between atoms: C_1  and  C_2
REMARK    2  A    between atoms: C_5  and  C_8
REMARK    3  A    between atoms: C_8  and  N_9
REMARK    4  A    between atoms: C_13  and  C_14
REMARK    5  A    between atoms: C_15  and  C_27
REMARK    6  A    between atoms: N_17  and  C_20
REMARK    7  A    between atoms: C_18  and  O_19
REMARK    8  A    between atoms: C_25  and  C_26
REMARK    9  A    between atoms: C_27  and  C_28
REMARK   10  A    between atoms: C_33  and  C_34
REMARK                            x       y       z     vdW  Elec       q    Type
REMARK                         _______ _______ _______ _____ _____    ______ ____
ROOT
ATOM      1  C   UNL     1      -2.586   4.572   5.014  0.00  0.00    +0.062 A 
ATOM      2  C   UNL     1      -2.317   4.648   6.403  0.00  0.00    +0.079 A 
ATOM      3  N   UNL     1      -3.381   4.257   7.046  0.00  0.00    -0.167 NA
ATOM      4  N   UNL     1      -4.373   3.905   6.125  0.00  0.00    -0.200 N 
ATOM      5  C   UNL     1      -3.889   4.097   4.879  0.00  0.00    +0.223 A 
ENDROOT
BRANCH   1  10
ATOM      6  N   UNL     1      -0.711   3.121   1.026  0.00  0.00    -0.216 N 
ATOM      7  C   UNL     1      -0.606   4.228   1.786  0.00  0.00    +0.269 C 
ATOM      8  O   UNL     1       0.089   5.201   1.556  0.00  0.00    -0.268 OA
ATOM      9  C   UNL     1      -1.462   4.048   2.906  0.00  0.00    +0.099 C 
ATOM     10  C   UNL     1      -1.669   4.921   3.928  0.00  0.00    +0.043 C 
ATOM     11  N   UNL     1      -2.047   2.781   2.743  0.00  0.00    -0.265 N 
ATOM     12  C   UNL     1      -1.567   2.259   1.599  0.00  0.00    +0.313 C 
ATOM     13  O   UNL     1      -1.865   1.168   1.151  0.00  0.00    -0.252 OA
ATOM     14  H   UNL     1      -2.681   2.361   3.345  0.00  0.00    +0.157 HD
BRANCH   6  15
ATOM     15  C   UNL     1       0.005   2.889  -0.231  0.00  0.00    +0.153 C 
BRANCH  15  20
ATOM     16  C   UNL     1      -3.171   4.842  -4.646  0.00  0.00    +0.044 C 
ATOM     17  C   UNL     1      -2.343   4.333  -3.494  0.00  0.00    -0.050 A 
ATOM     18  C   UNL     1      -1.442   5.172  -2.866  0.00  0.00    +0.003 A 
ATOM     19  C   UNL     1      -0.682   4.705  -1.810  0.00  0.00    +0.005 A 
ATOM     20  C   UNL     1      -0.823   3.399  -1.382  0.00  0.00    -0.030 A 
ATOM     21  C   UNL     1      -1.721   2.558  -2.013  0.00  0.00    +0.005 A 
ATOM     22  C   UNL     1      -2.485   3.026  -3.065  0.00  0.00    +0.003 A 
ENDBRANCH  15  20
ENDBRANCH   6  15
ENDBRANCH   1  10
BRANCH   4  23
ATOM     23  C   UNL     1      -5.654   3.433   6.442  0.00  0.00    +0.072 A 
ATOM     24  C   UNL     1      -6.597   3.254   5.438  0.00  0.00    +0.028 A 
ATOM     25  C   UNL     1      -7.857   2.784   5.753  0.00  0.00    +0.002 A 
ATOM     26  C   UNL     1      -8.183   2.501   7.067  0.00  0.00    +0.000 A 
ATOM     27  C   UNL     1      -7.247   2.682   8.069  0.00  0.00    +0.005 A 
ATOM     28  C   UNL     1      -5.984   3.148   7.760  0.00  0.00    -0.025 A 
ATOM     29  C   UNL     1      -4.965   3.346   8.852  0.00  0.00    +0.046 C 
ENDBRANCH   4  23
BRANCH   5  30
ATOM     30  O   UNL     1      -4.545   3.871   3.716  0.00  0.00    -0.492 OA
ATOM     31  H   UNL     1      -4.433   2.976   3.369  0.00  0.00    +0.294 HD
ENDBRANCH   5  30
BRANCH   2  32
ATOM     32  C   UNL     1      -1.024   5.105   7.028  0.00  0.00    +0.093 C 
BRANCH  32  33
ATOM     33  C   UNL     1      -1.075   6.594   7.257  0.00  0.00    -0.039 A 
ATOM     34  C   UNL     1      -0.537   7.456   6.320  0.00  0.00    +0.004 A 
ATOM     35  C   UNL     1      -0.588   8.822   6.529  0.00  0.00    +0.000 A 
ATOM     36  C   UNL     1      -1.169   9.325   7.678  0.00  0.00    +0.000 A 
ATOM     37  C   UNL     1      -1.703   8.462   8.617  0.00  0.00    +0.003 A 
ATOM     38  C   UNL     1      -1.655   7.096   8.407  0.00  0.00    -0.047 A 
ATOM     39  C   UNL     1      -2.237   6.156   9.431  0.00  0.00    +0.044 C 
ENDBRANCH  32  33
ENDBRANCH   2  32
TORSDOF 7
