REMARK  Name = ZINC39668735
REMARK  7 active torsions:
REMARK  status: ('A' for Active; 'I' for Inactive)
REMARK    1  A    between atoms: C_1  and  C_2
REMARK    2  A    between atoms: C_2  and  C_4
REMARK    3  A    between atoms: C_2  and  O_30
REMARK    4  A    between atoms: C_4  and  N_5
REMARK    5  A    between atoms: C_6  and  C_8
REMARK    6  A    between atoms: C_19  and  C_21
REMARK    7  A    between atoms: O_30  and  C_31
REMARK                            x       y       z     vdW  Elec       q    Type
REMARK                         _______ _______ _______ _____ _____    ______ ____
ROOT
ATOM      1  C   UNL     1      -2.772  -4.114  -0.179  0.00  0.00    +0.100 C 
ATOM      2  C   UNL     1      -2.374  -4.635   1.220  0.00  0.00    +0.121 C 
ATOM      3  N   UNL     1      -3.663  -4.905   1.899  0.00  0.00    -0.296 N 
ATOM      4  C   UNL     1      -4.521  -5.489   0.841  0.00  0.00    +0.115 C 
ATOM      5  C   UNL     1      -4.180  -4.680  -0.425  0.00  0.00    -0.004 C 
ATOM      6  C   UNL     1      -5.182  -3.543  -0.610  0.00  0.00    -0.010 C 
ATOM      7  C   UNL     1      -6.564  -4.131  -0.909  0.00  0.00    -0.082 C 
ATOM      8  N   UNL     1      -6.495  -4.952  -2.124  0.00  0.00    +0.379 N 
ATOM      9  C   UNL     1      -5.601  -6.095  -1.907  0.00  0.00    -0.082 C 
ATOM     10  C   UNL     1      -4.178  -5.590  -1.649  0.00  0.00    -0.010 C 
ATOM     11  C   UNL     1      -3.982  -4.673   3.188  0.00  0.00    +0.248 C 
ATOM     12  O   UNL     1      -3.200  -4.087   3.912  0.00  0.00    -0.270 OA
ATOM     13  H   UNL     1      -7.418  -5.288  -2.354  0.00  0.00    -0.086 HD
ATOM     14  H   UNL     1      -6.145  -4.392  -2.887  0.00  0.00    -0.086 HD
ENDROOT
BRANCH  11  15
ATOM     15  C   UNL     1      -5.274  -5.127   3.717  0.00  0.00    +0.052 A 
ATOM     16  C   UNL     1      -5.930  -6.177   3.158  0.00  0.00    +0.059 A 
ATOM     17  S   UNL     1      -7.336  -6.353   4.056  0.00  0.00    -0.096 S 
ATOM     18  C   UNL     1      -7.129  -5.038   5.225  0.00  0.00    +0.020 A 
ATOM     19  C   UNL     1      -5.894  -4.465   4.868  0.00  0.00    +0.001 A 
ATOM     20  C   UNL     1      -5.443  -3.374   5.636  0.00  0.00    +0.010 A 
ATOM     21  C   UNL     1      -6.192  -2.909   6.687  0.00  0.00    +0.001 A 
ATOM     22  C   UNL     1      -7.404  -3.494   7.021  0.00  0.00    +0.001 A 
ATOM     23  C   UNL     1      -7.876  -4.560   6.279  0.00  0.00    +0.015 A 
ENDBRANCH  11  15
BRANCH   1  25
ATOM     24  N   UNL     1      -2.712  -1.939  -1.356  0.00  0.00    -0.312 N 
ATOM     25  C   UNL     1      -2.803  -2.607  -0.189  0.00  0.00    +0.218 C 
ATOM     26  O   UNL     1      -2.909  -1.996   0.853  0.00  0.00    -0.275 OA
ATOM     27  H   UNL     1      -2.627  -2.428  -2.190  0.00  0.00    +0.149 HD
BRANCH  24  28
ATOM     28  C   UNL     1      -2.742  -0.474  -1.366  0.00  0.00    +0.148 C 
BRANCH  28  30
ATOM     29  C   UNL     1      -2.654   1.558  -2.816  0.00  0.00    +0.053 C 
ATOM     30  C   UNL     1      -2.623   0.029  -2.806  0.00  0.00    +0.187 C 
BRANCH  30  31
ATOM     31  O   UNL     1      -1.391  -0.426  -3.369  0.00  0.00    -0.486 OA
BRANCH  31  32
ATOM     32  C   UNL     1      -1.394  -0.731  -4.694  0.00  0.00    +0.139 A 
ATOM     33  C   UNL     1      -2.521  -0.487  -5.472  0.00  0.00    +0.049 A 
ATOM     34  C   UNL     1      -2.476  -0.815  -6.817  0.00  0.00    +0.023 A 
ATOM     35  C   UNL     1      -1.322  -1.369  -7.339  0.00  0.00    +0.111 A 
ATOM     36  N   UNL     1      -0.271  -1.587  -6.574  0.00  0.00    -0.260 NA
ATOM     37  C   UNL     1      -0.271  -1.285  -5.290  0.00  0.00    +0.156 A 
ENDBRANCH  31  32
ENDBRANCH  30  31
ENDBRANCH  28  30
ENDBRANCH  24  28
ENDBRANCH   1  25
TORSDOF 6
