REMARK  Name = ZINC12217354
REMARK  5 active torsions:
REMARK  status: ('A' for Active; 'I' for Inactive)
REMARK    1  A    between atoms: C_10  and  N_12
REMARK    2  A    between atoms: C_13  and  C_15
REMARK    3  A    between atoms: C_18  and  C_23
REMARK    4  A    between atoms: C_23  and  N_62
REMARK    5  A    between atoms: C_26  and  C_29
REMARK                            x       y       z     vdW  Elec       q    Type
REMARK                         _______ _______ _______ _____ _____    ______ ____
ROOT
ATOM      1  C   UNL     1      -2.024   2.472   3.496  0.00  0.00    +0.101 A 
ATOM      2  C   UNL     1      -1.958   1.106   3.228  0.00  0.00    +0.020 A 
ATOM      3  C   UNL     1      -1.322   0.677   2.063  0.00  0.00    +0.020 A 
ATOM      4  C   UNL     1      -0.779   1.583   1.210  0.00  0.00    +0.003 A 
ATOM      5  N   UNL     1      -0.835   2.911   1.467  0.00  0.00    -0.327 N 
ATOM      6  H   UNL     1      -0.435   3.536   0.842  0.00  0.00    +0.169 HD
ATOM      7  C   UNL     1      -1.442   3.379   2.575  0.00  0.00    +0.261 A 
ATOM      8  O   UNL     1      -1.486   4.579   2.787  0.00  0.00    -0.267 OA
ENDROOT
BRANCH   1  10
ATOM      9  N   UNL     1      -2.640   4.274   5.024  0.00  0.00    -0.304 N 
ATOM     10  C   UNL     1      -2.686   2.963   4.714  0.00  0.00    +0.250 C 
ATOM     11  O   UNL     1      -3.275   2.187   5.442  0.00  0.00    -0.270 OA
ATOM     12  H   UNL     1      -2.220   4.902   4.415  0.00  0.00    +0.150 HD
BRANCH   9  22
ATOM     13  C   UNL     1      -7.430   5.254   5.672  0.00  0.00    +0.000 A 
ATOM     14  C   UNL     1      -6.766   4.155   5.157  0.00  0.00    +0.000 A 
ATOM     15  C   UNL     1      -5.410   4.016   5.365  0.00  0.00    +0.006 A 
ATOM     16  C   UNL     1      -4.704   4.970   6.086  0.00  0.00    -0.024 A 
ATOM     17  C   UNL     1      -5.364   6.066   6.595  0.00  0.00    -0.042 A 
ATOM     18  C   UNL     1      -6.730   6.203   6.387  0.00  0.00    +0.004 A 
ATOM     19  C   UNL     1      -4.662   7.143   7.380  0.00  0.00    +0.035 C 
ATOM     20  C   UNL     1      -3.306   6.646   7.880  0.00  0.00    +0.007 C 
ATOM     21  C   UNL     1      -2.540   6.053   6.692  0.00  0.00    +0.027 C 
ATOM     22  C   UNL     1      -3.226   4.752   6.279  0.00  0.00    +0.104 C 
ENDBRANCH   9  22
ENDBRANCH   1  10
BRANCH   4  23
ATOM     23  C   UNL     1      -0.095   1.101  -0.044  0.00  0.00    -0.024 C 
BRANCH  23  29
ATOM     24  C   UNL     1      -0.086   1.322  -2.458  0.00  0.00    -0.073 C 
ATOM     25  C   UNL     1      -1.024   1.525  -3.650  0.00  0.00    +0.017 C 
ATOM     26  C   UNL     1      -1.754   2.830  -3.504  0.00  0.00    -0.048 C 
ATOM     27  C   UNL     1      -1.824   3.481  -2.364  0.00  0.00    -0.041 C 
ATOM     28  C   UNL     1      -1.177   2.992  -1.100  0.00  0.00    -0.050 C 
ATOM     29  N   UNL     1      -0.864   1.556  -1.224  0.00  0.00    +0.386 N 
ATOM     30  H   UNL     1      -1.742   1.025  -1.276  0.00  0.00    -0.081 HD
BRANCH  26  31
ATOM     31  C   UNL     1      -2.422   3.406  -4.691  0.00  0.00    -0.022 A 
ATOM     32  C   UNL     1      -3.494   2.738  -5.283  0.00  0.00    +0.011 A 
ATOM     33  C   UNL     1      -4.117   3.282  -6.387  0.00  0.00    +0.039 A 
ATOM     34  C   UNL     1      -3.672   4.484  -6.915  0.00  0.00    +0.123 A 
ATOM     35  C   UNL     1      -2.604   5.148  -6.333  0.00  0.00    +0.039 A 
ATOM     36  C   UNL     1      -1.978   4.616  -5.226  0.00  0.00    +0.011 A 
ATOM     37  F   UNL     1      -4.282   5.010  -7.999  0.00  0.00    -0.205 F 
ENDBRANCH  26  31
ENDBRANCH  23  29
ENDBRANCH   4  23
TORSDOF 5
