REMARK  Name = ZINC04079223
REMARK  3 active torsions:
REMARK  status: ('A' for Active; 'I' for Inactive)
REMARK    1  A    between atoms: C_8  and  C_12
REMARK    2  A    between atoms: N_14  and  C_15
REMARK    3  A    between atoms: C_17  and  C_26
REMARK                            x       y       z     vdW  Elec       q    Type
REMARK                         _______ _______ _______ _____ _____    ______ ____
ROOT
ATOM      1  C   UNL     1      -2.568   1.185   0.020  0.00  0.00    +0.252 C 
ATOM      2  O   UNL     1      -2.562  -0.031   0.013  0.00  0.00    -0.270 OA
ATOM      3  N   UNL     1      -3.738   1.854   0.029  0.00  0.00    -0.298 N 
ATOM      4  H   UNL     1      -3.743   2.824   0.035  0.00  0.00    +0.150 HD
ENDROOT
BRANCH   1  12
ATOM      5  C   UNL     1       1.209   6.029   0.024  0.00  0.00    +0.001 A 
ATOM      6  C   UNL     1       2.393   5.304   0.008  0.00  0.00    +0.004 A 
ATOM      7  C   UNL     1       2.373   3.926   0.001  0.00  0.00    +0.047 A 
ATOM      8  C   UNL     1       1.158   3.248   0.009  0.00  0.00    +0.139 A 
ATOM      9  C   UNL     1      -0.040   3.985   0.024  0.00  0.00    +0.018 A 
ATOM     10  C   UNL     1       0.005   5.387   0.032  0.00  0.00    +0.011 A 
ATOM     11  C   UNL     1      -1.288   3.311   0.033  0.00  0.00    +0.031 A 
ATOM     12  C   UNL     1      -1.296   1.927   0.019  0.00  0.00    +0.122 A 
ATOM     13  C   UNL     1      -0.014   1.213   0.009  0.00  0.00    +0.350 A 
ATOM     14  O   UNL     1       0.002  -0.004   0.002  0.00  0.00    -0.244 OA
ATOM     15  O   UNL     1       1.141   1.899   0.001  0.00  0.00    -0.422 OA
ENDBRANCH   1  12
BRANCH   3  16
ATOM     16  C   UNL     1      -5.003   1.115   0.031  0.00  0.00    +0.157 C 
ATOM     17  C   UNL     1      -6.003   1.702   1.057  0.00  0.00    +0.149 C 
ATOM     18  C   UNL     1      -5.891   1.014   2.394  0.00  0.00    -0.041 C 
ATOM     19  C   UNL     1      -5.322  -0.185   2.422  0.00  0.00    -0.012 C 
ATOM     20  S   UNL     1      -4.806  -0.563   0.763  0.00  0.00    -0.106 S 
ATOM     21  C   UNL     1      -5.125  -1.065   3.625  0.00  0.00    +0.042 C 
ATOM     22  C   UNL     1      -5.318  -0.221   4.891  0.00  0.00    +0.005 C 
ATOM     23  C   UNL     1      -6.607   0.593   4.741  0.00  0.00    +0.005 C 
ATOM     24  C   UNL     1      -6.411   1.668   3.672  0.00  0.00    +0.033 C 
BRANCH  17  25
ATOM     25  C   UNL     1      -7.372   1.536   0.544  0.00  0.00    +0.073 C 
ATOM     26  N   UNL     1      -8.430   1.409   0.148  0.00  0.00    -0.196 NA
ENDBRANCH  17  25
ENDBRANCH   3  16
TORSDOF 3
