REMARK  Name = ZINC36531057
REMARK  13 active torsions:
REMARK  status: ('A' for Active; 'I' for Inactive)
REMARK    1  A    between atoms: C_1  and  C_2
REMARK    2  A    between atoms: C_2  and  C_3
REMARK    3  A    between atoms: C_3  and  C_4
REMARK    4  A    between atoms: C_4  and  N_5
REMARK    5  A    between atoms: C_6  and  C_8
REMARK    6  A    between atoms: C_8  and  C_10
REMARK    7  A    between atoms: C_8  and  N_22
REMARK    8  A    between atoms: C_19  and  O_20
REMARK    9  A    between atoms: O_20  and  C_21
REMARK   10  A    between atoms: N_22  and  C_23
REMARK   11  A    between atoms: C_24  and  C_26
REMARK   12  A    between atoms: C_27  and  O_33
REMARK   13  A    between atoms: C_31  and  O_32
REMARK                            x       y       z     vdW  Elec       q    Type
REMARK                         _______ _______ _______ _____ _____    ______ ____
ROOT
ATOM      1  C   UNL     1       2.834  -4.259   4.551  0.00  0.00    +0.196 C 
ENDROOT
BRANCH   1   2
ATOM      2  C   UNL     1       3.769  -4.177   5.731  0.00  0.00    +0.031 A 
ATOM      3  C   UNL     1       3.455  -3.354   6.825  0.00  0.00    -0.009 A 
ATOM      4  C   UNL     1       2.273  -2.593   6.849  0.00  0.00    +0.009 A 
ATOM      5  C   UNL     1       2.001  -1.806   7.925  0.00  0.00    +0.001 A 
ATOM      6  C   UNL     1       2.877  -1.742   9.007  0.00  0.00    +0.001 A 
ATOM      7  C   UNL     1       4.030  -2.465   9.019  0.00  0.00    +0.008 A 
ATOM      8  C   UNL     1       4.346  -3.290   7.926  0.00  0.00    -0.017 A 
ATOM      9  C   UNL     1       5.527  -4.051   7.904  0.00  0.00    +0.012 A 
ATOM     10  C   UNL     1       5.803  -4.838   6.830  0.00  0.00    +0.046 A 
ATOM     11  C   UNL     1       4.923  -4.907   5.745  0.00  0.00    +0.126 A 
BRANCH  11  12
ATOM     12  O   UNL     1       5.223  -5.707   4.688  0.00  0.00    -0.495 OA
ATOM     13  C   UNL     1       6.444  -6.447   4.760  0.00  0.00    +0.277 C 
ENDBRANCH  11  12
ENDBRANCH   1   2
BRANCH   1  15
ATOM     14  N   UNL     1       4.287  -2.901   3.080  0.00  0.00    -0.313 N 
ATOM     15  C   UNL     1       3.613  -4.051   3.278  0.00  0.00    +0.238 C 
ATOM     16  O   UNL     1       3.634  -4.919   2.431  0.00  0.00    -0.273 OA
ATOM     17  H   UNL     1       4.271  -2.207   3.758  0.00  0.00    +0.149 HD
BRANCH  14  18
ATOM     18  C   UNL     1       5.044  -2.699   1.843  0.00  0.00    +0.104 C 
BRANCH  18  19
ATOM     19  C   UNL     1       5.710  -1.322   1.871  0.00  0.00    +0.018 C 
BRANCH  19  21
ATOM     20  C   UNL     1       7.166   0.266   0.607  0.00  0.00    +0.004 C 
ATOM     21  C   UNL     1       6.501  -1.111   0.578  0.00  0.00    -0.002 C 
ENDBRANCH  19  21
ENDBRANCH  18  19
ENDBRANCH  14  18
ENDBRANCH   1  15
BRANCH   1  22
ATOM     22  N   UNL     1       2.197  -5.578   4.524  0.00  0.00    -0.285 N 
ATOM     23  C   UNL     1       3.005  -6.777   4.291  0.00  0.00    +0.133 C 
ATOM     24  C   UNL     1       0.867  -5.688   4.714  0.00  0.00    +0.254 C 
ATOM     25  O   UNL     1       0.196  -4.692   4.908  0.00  0.00    -0.270 OA
BRANCH  24  26
ATOM     26  C   UNL     1       0.226  -7.013   4.687  0.00  0.00    +0.119 A 
ATOM     27  C   UNL     1       0.093  -7.758   5.868  0.00  0.00    +0.133 A 
ATOM     28  C   UNL     1      -0.512  -9.003   5.831  0.00  0.00    +0.046 A 
ATOM     29  C   UNL     1      -0.983  -9.513   4.635  0.00  0.00    +0.007 A 
ATOM     30  C   UNL     1      -0.857  -8.788   3.465  0.00  0.00    +0.046 A 
ATOM     31  C   UNL     1      -0.260  -7.537   3.481  0.00  0.00    +0.133 A 
BRANCH  31  32
ATOM     32  O   UNL     1      -0.143  -6.825   2.332  0.00  0.00    -0.506 OA
ATOM     33  H   UNL     1       0.675  -6.995   1.846  0.00  0.00    +0.292 HD
ENDBRANCH  31  32
BRANCH  27  34
ATOM     34  O   UNL     1       0.556  -7.260   7.042  0.00  0.00    -0.506 OA
ATOM     35  H   UNL     1      -0.095  -6.739   7.532  0.00  0.00    +0.292 HD
ENDBRANCH  27  34
ENDBRANCH  24  26
ENDBRANCH   1  22
TORSDOF 10
