REMARK  Name = ZINC06505465
REMARK  3 active torsions:
REMARK  status: ('A' for Active; 'I' for Inactive)
REMARK    1  A    between atoms: C_3  and  N_9
REMARK    2  A    between atoms: N_10  and  C_11
REMARK    3  A    between atoms: C_16  and  O_17
REMARK                            x       y       z     vdW  Elec       q    Type
REMARK                         _______ _______ _______ _____ _____    ______ ____
ROOT
ATOM      1  N   UNL     1       3.561   2.106  -0.021  0.00  0.00    -0.148 NA
ATOM      2  N   UNL     1       3.546   3.396  -0.014  0.00  0.00    -0.146 NA
ENDROOT
BRANCH   1   5
ATOM      3  C   UNL     1      -0.017   1.381   0.010  0.00  0.00    +0.022 A 
ATOM      4  C   UNL     1       1.166   2.090   0.002  0.00  0.00    +0.032 A 
ATOM      5  C   UNL     1       2.386   1.409  -0.013  0.00  0.00    +0.104 A 
ATOM      6  C   UNL     1       2.398   0.010  -0.021  0.00  0.00    +0.069 A 
ATOM      7  C   UNL     1       1.207  -0.687  -0.013  0.00  0.00    +0.042 A 
ATOM      8  C   UNL     1       0.002  -0.004   0.002  0.00  0.00    +0.042 A 
ATOM      9 CL   UNL     1      -1.492  -0.888   0.012  0.00  0.00    -0.083 Cl
ATOM     10 CL   UNL     1       3.908  -0.847  -0.040  0.00  0.00    -0.081 Cl
ENDBRANCH   1   5
BRANCH   2  11
ATOM     11  C   UNL     1       4.720   4.092  -0.022  0.00  0.00    +0.128 A 
ATOM     12  C   UNL     1       5.941   3.411  -0.043  0.00  0.00    +0.048 A 
ATOM     13  C   UNL     1       7.123   4.121  -0.051  0.00  0.00    +0.020 A 
ATOM     14  C   UNL     1       7.106   5.507  -0.038  0.00  0.00    +0.019 A 
ATOM     15  C   UNL     1       5.906   6.191  -0.017  0.00  0.00    +0.049 A 
ATOM     16  C   UNL     1       4.708   5.495  -0.015  0.00  0.00    +0.144 A 
ATOM     17 BR   UNL     1       8.774   3.200  -0.080  0.00  0.00    -0.050 Br
BRANCH  16  18
ATOM     18  O   UNL     1       3.529   6.167  -0.001  0.00  0.00    -0.505 OA
ATOM     19  H   UNL     1       3.196   6.357   0.887  0.00  0.00    +0.292 HD
ENDBRANCH  16  18
ENDBRANCH   2  11
TORSDOF 3
