REMARK  Name = ZINC59263983
REMARK  11 active torsions:
REMARK  status: ('A' for Active; 'I' for Inactive)
REMARK    1  A    between atoms: C_1  and  C_2
REMARK    2  A    between atoms: C_2  and  C_3
REMARK    3  A    between atoms: C_3  and  C_5
REMARK    4  A    between atoms: C_3  and  S_6
REMARK    5  A    between atoms: S_6  and  C_7
REMARK    6  A    between atoms: C_13  and  C_15
REMARK    7  A    between atoms: C_15  and  S_16
REMARK    8  A    between atoms: S_16  and  C_17
REMARK    9  A    between atoms: C_20  and  C_23
REMARK   10  A    between atoms: N_21  and  N_22
REMARK   11  A    between atoms: C_28  and  O_29
REMARK                            x       y       z     vdW  Elec       q    Type
REMARK                         _______ _______ _______ _____ _____    ______ ____
ROOT
ATOM      1  S   UNL     1       5.979  -2.889  -9.005  0.00  0.00    -0.075 S 
ENDROOT
BRANCH   1   2
ATOM      2  C   UNL     1       6.435  -3.236 -10.672  0.00  0.00    +0.209 A 
ATOM      3  N   UNL     1       5.699  -3.027 -11.740  0.00  0.00    -0.121 NA
ATOM      4  N   UNL     1       6.337  -3.394 -12.794  0.00  0.00    -0.127 NA
ATOM      5  C   UNL     1       7.519  -3.859 -12.463  0.00  0.00    +0.185 A 
ATOM      6  N   UNL     1       7.621  -3.767 -11.094  0.00  0.00    -0.224 N 
BRANCH   5   7
ATOM      7  C   UNL     1       8.549  -4.378 -13.387  0.00  0.00    +0.062 A 
ATOM      8  C   UNL     1       9.196  -5.583 -13.110  0.00  0.00    +0.015 A 
ATOM      9  C   UNL     1      10.157  -6.063 -13.977  0.00  0.00    +0.001 A 
ATOM     10  C   UNL     1      10.482  -5.353 -15.120  0.00  0.00    +0.004 A 
ATOM     11  C   UNL     1       9.848  -4.158 -15.404  0.00  0.00    +0.046 A 
ATOM     12  C   UNL     1       8.877  -3.667 -14.548  0.00  0.00    +0.128 A 
BRANCH  12  13
ATOM     13  O   UNL     1       8.248  -2.495 -14.829  0.00  0.00    -0.506 OA
ATOM     14  H   UNL     1       8.689  -1.716 -14.465  0.00  0.00    +0.292 HD
ENDBRANCH  12  13
ENDBRANCH   5   7
BRANCH   6  15
ATOM     15  N   UNL     1       8.684  -4.133 -10.318  0.00  0.00    -0.295 N 
ATOM     16  H   UNL     1       8.650  -5.118 -10.101  0.00  0.00    +0.163 HD
ATOM     17  H   UNL     1       9.556  -3.891 -10.763  0.00  0.00    +0.163 HD
ENDBRANCH   6  15
ENDBRANCH   1   2
BRANCH   1  18
ATOM     18  C   UNL     1       4.303  -2.208  -9.141  0.00  0.00    +0.173 C 
BRANCH  18  25
ATOM     19  C   UNL     1       0.858  -0.300  -4.099  0.00  0.00    +0.160 A 
ATOM     20  N   UNL     1       2.082  -0.806  -4.102  0.00  0.00    -0.133 NA
ATOM     21  N   UNL     1       2.659  -1.148  -5.170  0.00  0.00    -0.125 NA
ATOM     22  C   UNL     1       2.079  -1.021  -6.353  0.00  0.00    +0.189 A 
ATOM     23  S   UNL     1       0.504  -0.330  -5.854  0.00  0.00    -0.024 S 
ATOM     24  N   UNL     1       2.555  -1.339  -7.622  0.00  0.00    -0.263 N 
ATOM     25  C   UNL     1       3.788  -1.863  -7.768  0.00  0.00    +0.229 C 
ATOM     26  O   UNL     1       4.483  -2.058  -6.793  0.00  0.00    -0.275 OA
ATOM     27  H   UNL     1       1.999  -1.184  -8.402  0.00  0.00    +0.157 HD
BRANCH  19  28
ATOM     28  S   UNL     1      -0.140   0.242  -2.752  0.00  0.00    -0.094 S 
BRANCH  28  29
ATOM     29  C   UNL     1       0.901  -0.038  -1.293  0.00  0.00    +0.050 C 
ATOM     30  C   UNL     1       1.145  -1.538  -1.121  0.00  0.00    +0.019 C 
BRANCH  29  32
ATOM     31  C   UNL     1       0.065   2.030  -0.168  0.00  0.00    +0.005 C 
ATOM     32  C   UNL     1       0.197   0.510  -0.051  0.00  0.00    +0.011 C 
ENDBRANCH  29  32
ENDBRANCH  28  29
ENDBRANCH  19  28
ENDBRANCH  18  25
ENDBRANCH   1  18
TORSDOF 9
