REMARK  Name = ZINC65713361
REMARK  11 active torsions:
REMARK  status: ('A' for Active; 'I' for Inactive)
REMARK    1  A    between atoms: C_1  and  C_2
REMARK    2  A    between atoms: C_4  and  O_27
REMARK    3  A    between atoms: C_7  and  N_8
REMARK    4  A    between atoms: C_9  and  C_11
REMARK    5  A    between atoms: N_13  and  C_14
REMARK    6  A    between atoms: C_14  and  C_15
REMARK    7  A    between atoms: C_21  and  C_26
REMARK    8  A    between atoms: C_22  and  C_25
REMARK    9  A    between atoms: O_27  and  C_28
REMARK   10  A    between atoms: C_28  and  C_29
REMARK   11  A    between atoms: C_28  and  C_30
REMARK                            x       y       z     vdW  Elec       q    Type
REMARK                         _______ _______ _______ _____ _____    ______ ____
ROOT
ATOM      1  C   UNL     1       0.037   0.079   4.871  0.00  0.00    +0.300 C 
ATOM      2  O   UNL     1      -0.161   1.276   4.850  0.00  0.00    -0.265 OA
ATOM      3  N   UNL     1       0.155  -0.565   6.050  0.00  0.00    -0.303 N 
ATOM      4  H   UNL     1       0.314  -1.522   6.066  0.00  0.00    +0.149 HD
ENDROOT
BRANCH   1   6
ATOM      5  N   UNL     1       0.033  -0.039   2.413  0.00  0.00    -0.278 N 
ATOM      6  C   UNL     1       0.150  -0.682   3.591  0.00  0.00    +0.303 C 
ATOM      7  O   UNL     1       0.348  -1.879   3.612  0.00  0.00    -0.265 OA
ATOM      8  H   UNL     1      -0.068   0.926   2.394  0.00  0.00    +0.155 HD
BRANCH   5  15
ATOM      9  C   UNL     1      -1.282   1.072   0.149  0.00  0.00    +0.046 C 
ATOM     10  C   UNL     1      -0.574  -0.257   0.086  0.00  0.00    -0.026 A 
ATOM     11  C   UNL     1      -0.547  -0.969  -1.097  0.00  0.00    +0.050 A 
ATOM     12  C   UNL     1       0.106  -2.192  -1.155  0.00  0.00    +0.121 A 
ATOM     13  C   UNL     1       0.730  -2.701  -0.025  0.00  0.00    +0.047 A 
ATOM     14  C   UNL     1       0.703  -1.990   1.158  0.00  0.00    +0.027 A 
ATOM     15  C   UNL     1       0.056  -0.762   1.216  0.00  0.00    +0.037 A 
BRANCH  12  16
ATOM     16  O   UNL     1       0.132  -2.893  -2.320  0.00  0.00    -0.489 OA
BRANCH  16  17
ATOM     17  C   UNL     1       0.917  -4.087  -2.341  0.00  0.00    +0.167 C 
ATOM     18  C   UNL     1       0.087  -5.252  -1.797  0.00  0.00    +0.051 C 
ATOM     19  C   UNL     1       1.345  -4.391  -3.778  0.00  0.00    +0.051 C 
ENDBRANCH  16  17
ENDBRANCH  12  16
ENDBRANCH   5  15
ENDBRANCH   1   6
BRANCH   3  20
ATOM     20  C   UNL     1       0.044   0.181   7.306  0.00  0.00    +0.140 C 
BRANCH  20  21
ATOM     21  C   UNL     1       0.212  -0.763   8.468  0.00  0.00    -0.030 A 
ATOM     22  C   UNL     1      -0.900  -1.396   9.007  0.00  0.00    +0.007 A 
ATOM     23  C   UNL     1      -0.769  -2.263  10.069  0.00  0.00    +0.026 A 
ATOM     24  C   UNL     1       0.489  -2.509  10.609  0.00  0.00    +0.047 A 
ATOM     25  C   UNL     1       1.613  -1.866  10.059  0.00  0.00    +0.003 A 
ATOM     26  C   UNL     1       1.458  -0.995   8.979  0.00  0.00    +0.015 A 
ATOM     27  C   UNL     1       2.765  -2.328  10.837  0.00  0.00    -0.022 A 
ATOM     28  C   UNL     1       2.297  -3.179  11.763  0.00  0.00    +0.017 A 
ATOM     29  N   UNL     1       0.939  -3.300  11.643  0.00  0.00    -0.358 N 
ATOM     30  H   UNL     1       0.378  -3.859  12.202  0.00  0.00    +0.166 HD
ATOM     31  C   UNL     1       3.142  -3.896  12.785  0.00  0.00    +0.063 C 
ATOM     32  C   UNL     1       4.203  -1.925  10.634  0.00  0.00    +0.046 C 
ENDBRANCH  20  21
ENDBRANCH   3  20
TORSDOF 6
