REMARK  Name = ZINC05818266
REMARK  5 active torsions:
REMARK  status: ('A' for Active; 'I' for Inactive)
REMARK    1  A    between atoms: C_1  and  C_2
REMARK    2  A    between atoms: C_5  and  N_8
REMARK    3  A    between atoms: C_9  and  C_20
REMARK    4  A    between atoms: C_12  and  C_19
REMARK    5  A    between atoms: C_23  and  O_26
REMARK                            x       y       z     vdW  Elec       q    Type
REMARK                         _______ _______ _______ _____ _____    ______ ____
ROOT
ATOM      1  N   UNL     1       0.059  -4.169  -0.021  0.00  0.00    -0.254 N 
ATOM      2  C   UNL     1       0.071  -5.027   1.169  0.00  0.00    +0.146 C 
ATOM      3  C   UNL     1       0.090  -6.446   0.669  0.00  0.00    +0.030 A 
ATOM      4  C   UNL     1       0.108  -7.757   0.967  0.00  0.00    +0.039 A 
ATOM      5  N   UNL     1       0.117  -8.432  -0.205  0.00  0.00    -0.281 N 
ATOM      6  H   UNL     1       0.130  -9.398  -0.289  0.00  0.00    +0.189 HD
ATOM      7  N   UNL     1       0.106  -7.607  -1.192  0.00  0.00    -0.169 NA
ATOM      8  C   UNL     1       0.089  -6.367  -0.746  0.00  0.00    +0.153 A 
ATOM      9  C   UNL     1       0.064  -4.943  -1.120  0.00  0.00    +0.272 C 
ATOM     10  O   UNL     1       0.052  -4.526  -2.262  0.00  0.00    -0.268 OA
ATOM     11  C   UNL     1       0.117  -8.361   2.348  0.00  0.00    +0.065 C 
ENDROOT
BRANCH   1  16
ATOM     12  C   UNL     1      -0.018   1.503   0.010  0.00  0.00    +0.044 C 
ATOM     13  C   UNL     1       0.002  -0.004   0.002  0.00  0.00    -0.050 A 
ATOM     14  C   UNL     1       0.006  -0.687  -1.200  0.00  0.00    +0.005 A 
ATOM     15  C   UNL     1       0.025  -2.068  -1.211  0.00  0.00    +0.024 A 
ATOM     16  C   UNL     1       0.041  -2.771  -0.013  0.00  0.00    +0.038 A 
ATOM     17  C   UNL     1       0.037  -2.081   1.192  0.00  0.00    +0.024 A 
ATOM     18  C   UNL     1       0.023  -0.700   1.197  0.00  0.00    +0.005 A 
ENDBRANCH   1  16
BRANCH   2  19
ATOM     19  C   UNL     1       1.302  -4.752   1.994  0.00  0.00    -0.022 A 
ATOM     20  C   UNL     1       2.509  -4.497   1.368  0.00  0.00    +0.009 A 
ATOM     21  C   UNL     1       3.639  -4.245   2.122  0.00  0.00    +0.046 A 
ATOM     22  C   UNL     1       3.562  -4.246   3.507  0.00  0.00    +0.117 A 
ATOM     23  C   UNL     1       2.350  -4.502   4.132  0.00  0.00    +0.046 A 
ATOM     24  C   UNL     1       1.222  -4.748   3.374  0.00  0.00    +0.009 A 
BRANCH  22  25
ATOM     25  O   UNL     1       4.673  -3.998   4.250  0.00  0.00    -0.507 OA
ATOM     26  H   UNL     1       4.808  -3.063   4.456  0.00  0.00    +0.292 HD
ENDBRANCH  22  25
ENDBRANCH   2  19
TORSDOF 3
