REMARK  Name = ZINC39439808
REMARK  6 active torsions:
REMARK  status: ('A' for Active; 'I' for Inactive)
REMARK    1  A    between atoms: C_4  and  C_7
REMARK    2  A    between atoms: C_7  and  C_8
REMARK    3  A    between atoms: C_8  and  N_9
REMARK    4  A    between atoms: C_13  and  S_15
REMARK    5  A    between atoms: S_15  and  C_16
REMARK    6  A    between atoms: C_18  and  C_29
REMARK                            x       y       z     vdW  Elec       q    Type
REMARK                         _______ _______ _______ _____ _____    ______ ____
ROOT
ATOM      1  C   UNL     1       8.126  -3.294   7.294  0.00  0.00    +0.170 C 
ATOM      2  C   UNL     1       9.093  -3.458   8.450  0.00  0.00    -0.009 C 
ATOM      3  C   UNL     1       8.665  -4.236   9.530  0.00  0.00    +0.003 A 
ATOM      4  C   UNL     1       9.502  -4.440  10.647  0.00  0.00    +0.030 A 
ATOM      5  C   UNL     1       9.060  -5.200  11.686  0.00  0.00    +0.042 A 
ATOM      6  C   UNL     1       7.795  -5.785  11.669  0.00  0.00    +0.022 A 
ATOM      7  C   UNL     1       6.944  -5.624  10.618  0.00  0.00    +0.025 A 
ATOM      8  C   UNL     1       7.333  -4.849   9.511  0.00  0.00    +0.041 A 
ATOM      9  N   UNL     1       6.495  -4.692   8.481  0.00  0.00    -0.284 N 
ATOM     10  C   UNL     1       6.785  -3.983   7.408  0.00  0.00    +0.235 C 
ATOM     11  O   UNL     1       5.972  -3.884   6.508  0.00  0.00    -0.274 OA
ATOM     12 CL   UNL     1      10.094  -5.449  13.059  0.00  0.00    -0.084 Cl
ATOM     13  H   UNL     1       5.627  -5.122   8.526  0.00  0.00    +0.155 HD
ENDROOT
BRANCH   2  14
ATOM     14  C   UNL     1      10.374  -2.851   8.436  0.00  0.00    -0.020 A 
ATOM     15  C   UNL     1      11.533  -3.645   8.422  0.00  0.00    +0.008 A 
ATOM     16  C   UNL     1      12.773  -3.046   8.409  0.00  0.00    +0.001 A 
ATOM     17  C   UNL     1      12.879  -1.665   8.408  0.00  0.00    +0.000 A 
ATOM     18  C   UNL     1      11.743  -0.872   8.422  0.00  0.00    +0.001 A 
ATOM     19  C   UNL     1      10.494  -1.452   8.430  0.00  0.00    +0.008 A 
ENDBRANCH   2  14
BRANCH   1  20
ATOM     20  S   UNL     1       8.941  -3.908   5.794  0.00  0.00    -0.079 S 
BRANCH  20  25
ATOM     21  N   UNL     1       5.950  -2.744   0.966  0.00  0.00    -0.322 N 
ATOM     22  C   UNL     1       6.484  -2.909   2.239  0.00  0.00    +0.182 A 
ATOM     23  N   UNL     1       6.005  -2.518   3.403  0.00  0.00    -0.125 NA
ATOM     24  N   UNL     1       6.704  -2.788   4.557  0.00  0.00    -0.133 NA
ATOM     25  C   UNL     1       7.851  -3.436   4.493  0.00  0.00    +0.161 A 
ATOM     26  S   UNL     1       8.001  -3.712   2.734  0.00  0.00    -0.025 S 
ATOM     27  H   UNL     1       6.421  -3.094   0.193  0.00  0.00    +0.148 HD
BRANCH  21  28
ATOM     28  C   UNL     1       4.676  -2.042   0.792  0.00  0.00    +0.108 C 
BRANCH  28  29
ATOM     29  C   UNL     1       4.316  -2.000  -0.695  0.00  0.00    +0.054 C 
BRANCH  29  33
ATOM     30  C   UNL     1       0.601   0.046  -1.206  0.00  0.00    +0.000 A 
ATOM     31  C   UNL     1       1.789   0.752  -1.234  0.00  0.00    +0.000 A 
ATOM     32  C   UNL     1       2.991   0.090  -1.069  0.00  0.00    +0.004 A 
ATOM     33  C   UNL     1       3.006  -1.278  -0.874  0.00  0.00    -0.046 A 
ATOM     34  C   UNL     1       1.818  -1.985  -0.845  0.00  0.00    +0.004 A 
ATOM     35  C   UNL     1       0.616  -1.323  -1.012  0.00  0.00    +0.000 A 
ENDBRANCH  29  33
ENDBRANCH  28  29
ENDBRANCH  21  28
ENDBRANCH  20  25
ENDBRANCH   1  20
TORSDOF 6
