REMARK  Name = ZINC40033159
REMARK  12 active torsions:
REMARK  status: ('A' for Active; 'I' for Inactive)
REMARK    1  A    between atoms: C_1  and  C_2
REMARK    2  A    between atoms: C_2  and  O_3
REMARK    3  A    between atoms: O_3  and  C_4
REMARK    4  A    between atoms: C_7  and  N_10
REMARK    5  A    between atoms: N_17  and  N_18
REMARK    6  A    between atoms: C_19  and  C_20
REMARK    7  A    between atoms: C_23  and  C_26
REMARK    8  A    between atoms: C_26  and  C_27
REMARK    9  A    between atoms: C_26  and  C_28
REMARK   10  A    between atoms: C_26  and  C_29
REMARK   11  A    between atoms: C_37  and  C_38
REMARK   12  A    between atoms: C_37  and  C_39
REMARK                            x       y       z     vdW  Elec       q    Type
REMARK                         _______ _______ _______ _____ _____    ______ ____
ROOT
ATOM      1  N   UNL     1       1.671  -6.200  -1.409  0.00  0.00    -0.248 N 
ATOM      2  C   UNL     1       1.950  -6.586  -2.672  0.00  0.00    +0.264 A 
ATOM      3  O   UNL     1       2.127  -5.758  -3.552  0.00  0.00    -0.267 OA
ATOM      4  C   UNL     1       2.033  -7.956  -2.952  0.00  0.00    +0.049 A 
ATOM      5  C   UNL     1       1.827  -8.862  -1.922  0.00  0.00    +0.084 A 
ATOM      6  N   UNL     1       1.547  -8.422  -0.691  0.00  0.00    -0.214 NA
ATOM      7  C   UNL     1       1.475  -7.133  -0.433  0.00  0.00    +0.223 A 
ATOM      8  N   UNL     1       1.192  -6.719   0.843  0.00  0.00    -0.206 N 
ATOM      9  C   UNL     1       1.929 -10.310  -2.213  0.00  0.00    +0.004 A 
ATOM     10  C   UNL     1       1.378 -11.254  -1.351  0.00  0.00    +0.010 A 
ATOM     11  C   UNL     1       1.484 -12.598  -1.649  0.00  0.00    +0.001 A 
ATOM     12  C   UNL     1       2.135 -13.003  -2.801  0.00  0.00    +0.000 A 
ATOM     13  C   UNL     1       2.686 -12.069  -3.660  0.00  0.00    +0.004 A 
ATOM     14  C   UNL     1       2.590 -10.723  -3.371  0.00  0.00    -0.037 A 
ATOM     15  C   UNL     1       3.198  -9.701  -4.294  0.00  0.00    +0.047 C 
ATOM     16  C   UNL     1       2.336  -8.442  -4.341  0.00  0.00    +0.001 C 
ATOM     17  C   UNL     1       1.024  -8.755  -5.063  0.00  0.00    +0.016 C 
ATOM     18  C   UNL     1       3.084  -7.348  -5.106  0.00  0.00    +0.016 C 
ATOM     19  H   UNL     1       1.188  -5.772   1.056  0.00  0.00    +0.177 HD
ENDROOT
BRANCH   1  23
ATOM     20  C   UNL     1       1.424  -2.141  -0.481  0.00  0.00    +0.121 A 
ATOM     21  C   UNL     1       0.312  -2.809  -0.974  0.00  0.00    +0.047 A 
ATOM     22  C   UNL     1       0.393  -4.152  -1.282  0.00  0.00    +0.030 A 
ATOM     23  C   UNL     1       1.588  -4.836  -1.097  0.00  0.00    +0.053 A 
ATOM     24  C   UNL     1       2.700  -4.167  -0.604  0.00  0.00    +0.030 A 
ATOM     25  C   UNL     1       2.619  -2.822  -0.302  0.00  0.00    +0.047 A 
BRANCH  20  26
ATOM     26  O   UNL     1       1.343  -0.818  -0.179  0.00  0.00    -0.492 OA
BRANCH  26  28
ATOM     27  C   UNL     1       0.185   1.294   0.004  0.00  0.00    +0.048 C 
ATOM     28  C   UNL     1       0.082  -0.181  -0.389  0.00  0.00    +0.225 C 
ENDBRANCH  26  28
ENDBRANCH  20  26
ENDBRANCH   1  23
BRANCH   8  29
ATOM     29  N   UNL     1       0.908  -7.663   1.839  0.00  0.00    -0.188 NA
ATOM     30  C   UNL     1       0.639  -7.271   3.046  0.00  0.00    +0.138 C 
BRANCH  30  31
ATOM     31  C   UNL     1       0.340  -8.264   4.094  0.00  0.00    -0.005 A 
ATOM     32  C   UNL     1       0.350  -9.628   3.792  0.00  0.00    +0.010 A 
ATOM     33  C   UNL     1       0.069 -10.552   4.777  0.00  0.00    +0.005 A 
ATOM     34  C   UNL     1      -0.222 -10.130   6.062  0.00  0.00    -0.042 A 
ATOM     35  C   UNL     1      -0.234  -8.781   6.369  0.00  0.00    +0.005 A 
ATOM     36  C   UNL     1       0.051  -7.846   5.396  0.00  0.00    +0.010 A 
BRANCH  34  37
ATOM     37  C   UNL     1      -0.528 -11.146   7.133  0.00  0.00    -0.013 C 
ATOM     38  C   UNL     1       0.672 -12.077   7.311  0.00  0.00    +0.015 C 
ATOM     39  C   UNL     1      -0.814 -10.425   8.452  0.00  0.00    +0.015 C 
ATOM     40  C   UNL     1      -1.754 -11.965   6.724  0.00  0.00    +0.015 C 
ENDBRANCH  34  37
ENDBRANCH  30  31
ENDBRANCH   8  29
TORSDOF 6
