REMARK  Name = ZINC20530941
REMARK  13 active torsions:
REMARK  status: ('A' for Active; 'I' for Inactive)
REMARK    1  A    between atoms: C_1  and  C_2
REMARK    2  A    between atoms: C_2  and  C_3
REMARK    3  A    between atoms: C_3  and  C_5
REMARK    4  A    between atoms: C_3  and  N_6
REMARK    5  A    between atoms: N_9  and  C_12
REMARK    6  A    between atoms: C_12  and  C_13
REMARK    7  A    between atoms: C_14  and  C_29
REMARK    8  A    between atoms: C_15  and  C_21
REMARK    9  A    between atoms: C_24  and  O_27
REMARK   10  A    between atoms: O_27  and  C_28
REMARK   11  A    between atoms: C_29  and  O_31
REMARK   12  A    between atoms: O_31  and  C_32
REMARK   13  A    between atoms: C_32  and  C_33
REMARK                            x       y       z     vdW  Elec       q    Type
REMARK                         _______ _______ _______ _____ _____    ______ ____
ROOT
ATOM      1  C   UNL     1      -2.113   0.667  -0.492  0.00  0.00    +0.038 C 
ATOM      2  C   UNL     1      -1.013   1.419  -0.274  0.00  0.00    +0.079 C 
ATOM      3  C   UNL     1      -1.149   2.922  -0.402  0.00  0.00    +0.144 C 
ATOM      4  N   UNL     1      -2.481   3.444  -0.751  0.00  0.00    -0.288 N 
ATOM      5  C   UNL     1      -3.487   2.566  -0.932  0.00  0.00    +0.304 C 
ATOM      6  O   UNL     1      -4.590   2.987  -1.221  0.00  0.00    -0.252 OA
ATOM      7  N   UNL     1      -3.310   1.245  -0.806  0.00  0.00    -0.271 N 
ATOM      8  H   UNL     1      -2.637   4.528  -0.857  0.00  0.00    +0.151 HD
ATOM      9  H   UNL     1      -4.198   0.616  -0.971  0.00  0.00    +0.156 HD
ENDROOT
BRANCH   3  10
ATOM     10  C   UNL     1      -0.738   3.540   0.909  0.00  0.00    -0.022 A 
ATOM     11  C   UNL     1      -1.627   3.570   1.967  0.00  0.00    +0.009 A 
ATOM     12  C   UNL     1      -1.251   4.130   3.172  0.00  0.00    +0.046 A 
ATOM     13  C   UNL     1       0.018   4.674   3.317  0.00  0.00    +0.120 A 
ATOM     14  C   UNL     1       0.907   4.647   2.252  0.00  0.00    +0.046 A 
ATOM     15  C   UNL     1       0.527   4.080   1.051  0.00  0.00    +0.009 A 
BRANCH  13  16
ATOM     16  O   UNL     1       0.389   5.231   4.500  0.00  0.00    -0.495 OA
ATOM     17  C   UNL     1      -0.578   5.223   5.552  0.00  0.00    +0.277 C 
ENDBRANCH  13  16
ENDBRANCH   3  10
BRANCH   2  18
ATOM     18  C   UNL     1       0.226   0.822   0.057  0.00  0.00    +0.339 C 
ATOM     19  O   UNL     1       0.611   0.820   1.212  0.00  0.00    -0.245 OA
BRANCH  18  20
ATOM     20  O   UNL     1       0.979   0.251  -0.906  0.00  0.00    -0.462 OA
BRANCH  20  21
ATOM     21  C   UNL     1       2.216  -0.338  -0.499  0.00  0.00    +0.229 C 
ATOM     22  C   UNL     1       2.924  -0.931  -1.719  0.00  0.00    +0.048 C 
ENDBRANCH  20  21
ENDBRANCH  18  20
ENDBRANCH   2  18
BRANCH   1  23
ATOM     23  C   UNL     1      -2.021  -0.833  -0.381  0.00  0.00    +0.135 C 
BRANCH  23  27
ATOM     24  N   UNL     1      -3.421  -2.718   3.131  0.00  0.00    +0.383 N 
ATOM     25  C   UNL     1      -3.939  -3.193   1.841  0.00  0.00    -0.063 C 
ATOM     26  C   UNL     1      -2.990  -2.759   0.722  0.00  0.00    +0.066 C 
ATOM     27  N   UNL     1      -2.866  -1.295   0.729  0.00  0.00    -0.300 NA
ATOM     28  C   UNL     1      -2.348  -0.819   2.019  0.00  0.00    +0.066 C 
ATOM     29  C   UNL     1      -3.297  -1.253   3.138  0.00  0.00    -0.063 C 
ATOM     30  H   UNL     1      -2.417  -3.144   3.272  0.00  0.00    -0.081 HD
BRANCH  24  31
ATOM     31  C   UNL     1      -4.266  -3.180   4.240  0.00  0.00    -0.072 C 
ATOM     32  C   UNL     1      -4.257  -4.709   4.286  0.00  0.00    -0.013 C 
BRANCH  31  34
ATOM     33  C   UNL     1      -4.645  -3.046   6.706  0.00  0.00    +0.002 C 
ATOM     34  C   UNL     1      -3.723  -2.627   5.560  0.00  0.00    -0.019 C 
ENDBRANCH  31  34
ENDBRANCH  24  31
ENDBRANCH  23  27
ENDBRANCH   1  23
TORSDOF 9
