REMARK  Name = ZINC57934666
REMARK  3 active torsions:
REMARK  status: ('A' for Active; 'I' for Inactive)
REMARK    1  A    between atoms: C_1  and  C_2
REMARK    2  A    between atoms: N_6  and  C_17
REMARK    3  A    between atoms: C_17  and  C_18
REMARK                            x       y       z     vdW  Elec       q    Type
REMARK                         _______ _______ _______ _____ _____    ______ ____
ROOT
ATOM      1  C   UNL     1      -0.156   1.541  -0.169  0.00  0.00    +0.038 C 
ATOM      2  C   UNL     1      -0.162   0.011  -0.200  0.00  0.00    +0.154 C 
ATOM      3  C   UNL     1       0.633  -0.472  -1.386  0.00  0.00    +0.240 C 
ATOM      4  O   UNL     1       0.080  -0.635  -2.453  0.00  0.00    -0.273 OA
ATOM      5  N   UNL     1       1.951  -0.724  -1.274  0.00  0.00    -0.264 N 
ATOM      6  C   UNL     1       2.604  -0.591  -0.041  0.00  0.00    +0.061 A 
ATOM      7  C   UNL     1       3.988  -0.561   0.026  0.00  0.00    +0.075 A 
ATOM      8  C   UNL     1       4.619  -0.433   1.254  0.00  0.00    +0.168 A 
ATOM      9  C   UNL     1       3.864  -0.336   2.420  0.00  0.00    +0.168 A 
ATOM     10  C   UNL     1       2.479  -0.364   2.355  0.00  0.00    +0.074 A 
ATOM     11  C   UNL     1       1.851  -0.489   1.129  0.00  0.00    +0.053 A 
ATOM     12  N   UNL     1       0.448  -0.508   1.033  0.00  0.00    -0.332 N 
ATOM     13  O   UNL     1       4.715  -0.223   3.483  0.00  0.00    -0.453 OA
ATOM     14  C   UNL     1       5.997  -0.661   2.997  0.00  0.00    +0.466 C 
ATOM     15  O   UNL     1       5.943  -0.379   1.586  0.00  0.00    -0.453 OA
ATOM     16  H   UNL     1      -0.100  -0.854   1.755  0.00  0.00    +0.147 HD
ENDROOT
BRANCH   5  17
ATOM     17  C   UNL     1       2.711  -1.143  -2.455  0.00  0.00    +0.151 C 
BRANCH  17  18
ATOM     18  C   UNL     1       2.815  -2.646  -2.478  0.00  0.00    +0.005 A 
ATOM     19  C   UNL     1       3.963  -3.267  -2.022  0.00  0.00    +0.008 A 
ATOM     20  C   UNL     1       4.059  -4.645  -2.043  0.00  0.00    +0.000 A 
ATOM     21  C   UNL     1       3.007  -5.405  -2.520  0.00  0.00    +0.003 A 
ATOM     22  C   UNL     1       1.858  -4.787  -2.976  0.00  0.00    +0.038 A 
ATOM     23  C   UNL     1       1.759  -3.406  -2.951  0.00  0.00    +0.128 A 
ATOM     24  F   UNL     1       0.635  -2.801  -3.392  0.00  0.00    -0.205 F 
ENDBRANCH  17  18
ENDBRANCH   5  17
TORSDOF 2
