REMARK  Name = ZINC35040454
REMARK  15 active torsions:
REMARK  status: ('A' for Active; 'I' for Inactive)
REMARK    1  A    between atoms: C_1  and  C_2
REMARK    2  A    between atoms: C_2  and  C_3
REMARK    3  A    between atoms: C_3  and  C_4
REMARK    4  A    between atoms: C_4  and  C_5
REMARK    5  A    between atoms: C_5  and  C_6
REMARK    6  A    between atoms: C_9  and  C_12
REMARK    7  A    between atoms: N_14  and  C_15
REMARK    8  A    between atoms: N_14  and  C_20
REMARK    9  A    between atoms: C_15  and  C_16
REMARK   10  A    between atoms: C_16  and  N_17
REMARK   11  A    between atoms: N_17  and  C_18
REMARK   12  A    between atoms: N_17  and  C_19
REMARK   13  A    between atoms: C_20  and  C_22
REMARK   14  A    between atoms: C_20  and  C_23
REMARK   15  A    between atoms: N_33  and  C_34
REMARK                            x       y       z     vdW  Elec       q    Type
REMARK                         _______ _______ _______ _____ _____    ______ ____
ROOT
ATOM      1  C   UNL     1       1.478  -7.688  -1.315  0.00  0.00    +0.247 C 
ATOM      2  O   UNL     1       2.256  -8.266  -0.581  0.00  0.00    -0.270 OA
ATOM      3  N   UNL     1       0.878  -8.356  -2.320  0.00  0.00    -0.290 N 
ENDROOT
BRANCH   1   7
ATOM      4  C   UNL     1       0.650  -3.566  -0.710  0.00  0.00    -0.047 A 
ATOM      5  C   UNL     1       0.997  -4.364   0.365  0.00  0.00    +0.004 A 
ATOM      6  C   UNL     1       1.267  -5.703   0.176  0.00  0.00    +0.013 A 
ATOM      7  C   UNL     1       1.189  -6.254  -1.104  0.00  0.00    +0.037 A 
ATOM      8  C   UNL     1       0.838  -5.444  -2.185  0.00  0.00    +0.013 A 
ATOM      9  C   UNL     1       0.565  -4.107  -1.981  0.00  0.00    +0.004 A 
BRANCH   4  10
ATOM     10  C   UNL     1       0.356  -2.104  -0.496  0.00  0.00    +0.035 C 
BRANCH  10  11
ATOM     11  C   UNL     1      -1.133  -1.921  -0.198  0.00  0.00    +0.005 C 
BRANCH  11  12
ATOM     12  C   UNL     1      -1.432  -0.436   0.019  0.00  0.00    +0.000 C 
BRANCH  12  14
ATOM     13  C   UNL     1      -3.219   1.232   0.535  0.00  0.00    +0.004 C 
ATOM     14  C   UNL     1      -2.921  -0.253   0.317  0.00  0.00    -0.003 C 
ENDBRANCH  12  14
ENDBRANCH  11  12
ENDBRANCH  10  11
ENDBRANCH   4  10
ENDBRANCH   1   7
BRANCH   3  15
ATOM     15  C   UNL     1       1.053  -9.805  -2.444  0.00  0.00    +0.140 C 
ATOM     16  C   UNL     1       1.697 -10.128  -3.793  0.00  0.00    +0.036 C 
BRANCH  15  17
ATOM     17  C   UNL     1      -0.290 -10.483  -2.353  0.00  0.00    +0.138 A 
ATOM     18  N   UNL     1      -1.141 -10.295  -3.316  0.00  0.00    -0.231 NA
ATOM     19  C   UNL     1      -2.368 -10.873  -3.303  0.00  0.00    +0.078 A 
ATOM     20  C   UNL     1      -3.284 -10.671  -4.338  0.00  0.00    +0.028 A 
ATOM     21  C   UNL     1      -4.518 -11.278  -4.285  0.00  0.00    +0.002 A 
ATOM     22  C   UNL     1      -4.867 -12.089  -3.212  0.00  0.00    +0.001 A 
ATOM     23  C   UNL     1      -3.982 -12.302  -2.179  0.00  0.00    +0.015 A 
ATOM     24  C   UNL     1      -2.726 -11.698  -2.214  0.00  0.00    +0.065 A 
ATOM     25  C   UNL     1      -1.740 -11.891  -1.141  0.00  0.00    +0.266 A 
ATOM     26  O   UNL     1      -1.986 -12.590  -0.175  0.00  0.00    -0.267 OA
ATOM     27  N   UNL     1      -0.547 -11.265  -1.270  0.00  0.00    -0.263 N 
BRANCH  27  28
ATOM     28  C   UNL     1       0.429 -11.419  -0.277  0.00  0.00    +0.051 A 
ATOM     29  C   UNL     1       0.234 -10.867   0.982  0.00  0.00    +0.029 A 
ATOM     30  C   UNL     1       1.197 -11.021   1.959  0.00  0.00    +0.040 A 
ATOM     31  C   UNL     1       2.358 -11.724   1.684  0.00  0.00    +0.124 A 
ATOM     32  C   UNL     1       2.555 -12.275   0.429  0.00  0.00    +0.040 A 
ATOM     33  C   UNL     1       1.591 -12.129  -0.550  0.00  0.00    +0.029 A 
ATOM     34  F   UNL     1       3.300 -11.873   2.641  0.00  0.00    -0.205 F 
ENDBRANCH  27  28
ENDBRANCH  15  17
ENDBRANCH   3  15
BRANCH   3  35
ATOM     35  C   UNL     1       0.051  -7.633  -3.289  0.00  0.00    +0.090 C 
BRANCH  35  36
ATOM     36  C   UNL     1       0.869  -7.354  -4.551  0.00  0.00    -0.060 C 
BRANCH  36  37
ATOM     37  N   UNL     1       0.009  -6.731  -5.565  0.00  0.00    +0.377 N 
ATOM     38  C   UNL     1      -0.417  -5.405  -5.099  0.00  0.00    -0.097 C 
ATOM     39  C   UNL     1       0.755  -6.592  -6.822  0.00  0.00    -0.097 C 
ATOM     40  H   UNL     1      -0.803  -7.310  -5.719  0.00  0.00    -0.083 HD
ENDBRANCH  36  37
ENDBRANCH  35  36
ENDBRANCH   3  35
TORSDOF 11
