REMARK  Name = ZINC08964213
REMARK  9 active torsions:
REMARK  status: ('A' for Active; 'I' for Inactive)
REMARK    1  A    between atoms: C_1  and  N_2
REMARK    2  A    between atoms: C_9  and  C_11
REMARK    3  A    between atoms: C_11  and  C_13
REMARK    4  A    between atoms: C_11  and  N_67
REMARK    5  A    between atoms: C_13  and  N_14
REMARK    6  A    between atoms: C_15  and  C_17
REMARK    7  A    between atoms: N_19  and  C_20
REMARK    8  A    between atoms: C_20  and  C_21
REMARK    9  A    between atoms: C_21  and  C_22
REMARK                            x       y       z     vdW  Elec       q    Type
REMARK                         _______ _______ _______ _____ _____    ______ ____
ROOT
ATOM      1  N   UNL     1       0.456   4.061   1.243  0.00  0.00    -0.309 N 
ATOM      2  C   UNL     1      -0.838   3.751   1.458  0.00  0.00    +0.299 C 
ATOM      3  O   UNL     1      -1.471   3.166   0.605  0.00  0.00    -0.265 OA
ATOM      4  H   UNL     1       0.964   4.526   1.927  0.00  0.00    +0.149 HD
ENDROOT
BRANCH   2   5
ATOM      5  C   UNL     1      -1.491   4.123   2.750  0.00  0.00    +0.299 C 
ATOM      6  O   UNL     1      -0.856   4.704   3.606  0.00  0.00    -0.265 OA
ATOM      7  N   UNL     1      -2.784   3.813   2.965  0.00  0.00    -0.307 N 
ATOM      8  H   UNL     1      -3.292   3.348   2.282  0.00  0.00    +0.149 HD
BRANCH   7   9
ATOM      9  C   UNL     1      -3.424   4.177   4.232  0.00  0.00    +0.109 C 
BRANCH   9  10
ATOM     10  C   UNL     1      -4.882   3.713   4.219  0.00  0.00    +0.056 C 
BRANCH  10  11
ATOM     11  C   UNL     1      -5.540   4.088   5.521  0.00  0.00    -0.021 A 
ATOM     12  C   UNL     1      -5.679   3.302   6.601  0.00  0.00    +0.087 A 
ATOM     13  N   UNL     1      -6.326   3.985   7.595  0.00  0.00    -0.360 N 
ATOM     14  H   UNL     1      -6.538   3.626   8.470  0.00  0.00    +0.165 HD
ATOM     15  C   UNL     1      -6.635   5.256   7.165  0.00  0.00    +0.047 A 
ATOM     16  C   UNL     1      -6.157   5.376   5.848  0.00  0.00    +0.003 A 
ATOM     17  C   UNL     1      -6.330   6.573   5.150  0.00  0.00    +0.010 A 
ATOM     18  C   UNL     1      -6.965   7.623   5.752  0.00  0.00    +0.001 A 
ATOM     19  C   UNL     1      -7.439   7.509   7.051  0.00  0.00    +0.002 A 
ATOM     20  C   UNL     1      -7.278   6.337   7.758  0.00  0.00    +0.026 A 
ENDBRANCH  10  11
ENDBRANCH   9  10
ENDBRANCH   7   9
ENDBRANCH   2   5
BRANCH   1  21
ATOM     21  C   UNL     1       1.096   3.697  -0.023  0.00  0.00    +0.094 C 
BRANCH  21  22
ATOM     22  C   UNL     1       2.512   4.274  -0.063  0.00  0.00    -0.020 C 
BRANCH  22  31
ATOM     23  C   UNL     1       1.233  10.581  -0.683  0.00  0.00    +0.129 C 
ATOM     24  N   UNL     1       2.307   9.938   0.087  0.00  0.00    -0.332 N 
ATOM     25  C   UNL     1       2.138  10.180   1.536  0.00  0.00    +0.109 C 
ATOM     26  C   UNL     1       2.744   8.904   2.164  0.00  0.00    +0.056 C 
ATOM     27  C   UNL     1       2.577   7.875   1.064  0.00  0.00    -0.025 A 
ATOM     28  C   UNL     1       2.313   8.554  -0.120  0.00  0.00    +0.033 A 
ATOM     29  C   UNL     1       2.110   7.822  -1.289  0.00  0.00    +0.023 A 
ATOM     30  C   UNL     1       2.174   6.444  -1.266  0.00  0.00    +0.004 A 
ATOM     31  C   UNL     1       2.441   5.779  -0.083  0.00  0.00    -0.059 A 
ATOM     32  C   UNL     1       2.637   6.498   1.083  0.00  0.00    +0.007 A 
ENDBRANCH  22  31
BRANCH  22  37
ATOM     33  C   UNL     1       4.581   4.343  -1.346  0.00  0.00    -0.078 C 
ATOM     34  C   UNL     1       5.292   3.370  -2.320  0.00  0.00    -0.020 C 
ATOM     35  C   UNL     1       4.682   1.999  -1.946  0.00  0.00    -0.020 C 
ATOM     36  C   UNL     1       3.345   2.329  -1.257  0.00  0.00    -0.078 C 
ATOM     37  N   UNL     1       3.220   3.787  -1.285  0.00  0.00    +0.385 N 
ATOM     38  H   UNL     1       2.691   4.073  -2.118  0.00  0.00    -0.081 HD
ENDBRANCH  22  37
ENDBRANCH  21  22
ENDBRANCH   1  21
TORSDOF 8
