REMARK  Name = ZINC13064547
REMARK  14 active torsions:
REMARK  status: ('A' for Active; 'I' for Inactive)
REMARK    1  A    between atoms: C_1  and  C_2
REMARK    2  A    between atoms: C_2  and  C_3
REMARK    3  A    between atoms: C_3  and  C_5
REMARK    4  A    between atoms: C_3  and  N_71
REMARK    5  A    between atoms: N_9  and  C_10
REMARK    6  A    between atoms: C_10  and  C_11
REMARK    7  A    between atoms: C_10  and  C_12
REMARK    8  A    between atoms: C_10  and  C_13
REMARK    9  A    between atoms: C_14  and  C_15
REMARK   10  A    between atoms: C_14  and  N_71
REMARK   11  A    between atoms: C_24  and  C_25
REMARK   12  A    between atoms: C_24  and  N_71
REMARK   13  A    between atoms: C_29  and  C_38
REMARK   14  A    between atoms: C_30  and  C_37
REMARK                            x       y       z     vdW  Elec       q    Type
REMARK                         _______ _______ _______ _____ _____    ______ ____
ROOT
ATOM      1  N   UNL     1      -1.988   3.790  -0.004  0.00  0.00    +0.392 N 
ATOM      2  H   UNL     1      -0.972   3.932   0.022  0.00  0.00    -0.080 HD
ENDROOT
BRANCH   1   3
ATOM      3  C   UNL     1      -2.302   2.744  -1.000  0.00  0.00    +0.003 C 
BRANCH   3   4
ATOM      4  C   UNL     1      -1.234   2.759  -2.063  0.00  0.00    +0.139 A 
ATOM      5  N   UNL     1      -0.549   3.799  -2.469  0.00  0.00    -0.115 NA
ATOM      6  N   UNL     1       0.260   3.408  -3.392  0.00  0.00    -0.023 NA
ATOM      7  N   UNL     1       0.108   2.144  -3.586  0.00  0.00    -0.043 NA
ATOM      8  N   UNL     1      -0.804   1.707  -2.785  0.00  0.00    -0.226 N 
BRANCH   8   9
ATOM      9  C   UNL     1      -1.283   0.327  -2.682  0.00  0.00    +0.059 C 
ATOM     10  C   UNL     1      -2.812   0.312  -2.723  0.00  0.00    +0.036 C 
ATOM     11  C   UNL     1      -0.733  -0.493  -3.851  0.00  0.00    +0.036 C 
ATOM     12  C   UNL     1      -0.802  -0.282  -1.363  0.00  0.00    +0.036 C 
ENDBRANCH   8   9
ENDBRANCH   3   4
BRANCH   3  14
ATOM     13  C   UNL     1      -4.757   2.921  -0.573  0.00  0.00    +0.002 C 
ATOM     14  C   UNL     1      -3.665   3.010  -1.641  0.00  0.00    -0.011 C 
ENDBRANCH   3  14
ENDBRANCH   1   3
BRANCH   1  15
ATOM     15  C   UNL     1      -2.640   5.061  -0.386  0.00  0.00    -0.041 C 
BRANCH  15  16
ATOM     16  C   UNL     1      -1.901   5.651  -1.559  0.00  0.00    -0.060 A 
ATOM     17  C   UNL     1      -0.710   6.323  -1.357  0.00  0.00    +0.005 A 
ATOM     18  C   UNL     1      -0.026   6.861  -2.432  0.00  0.00    +0.050 A 
ATOM     19  C   UNL     1      -0.539   6.737  -3.713  0.00  0.00    +0.166 A 
ATOM     20  C   UNL     1      -1.741   6.064  -3.915  0.00  0.00    +0.166 A 
ATOM     21  C   UNL     1      -2.418   5.523  -2.835  0.00  0.00    +0.051 A 
ATOM     22  O   UNL     1      -2.029   6.079  -5.250  0.00  0.00    -0.453 OA
ATOM     23  C   UNL     1      -1.204   7.116  -5.810  0.00  0.00    +0.466 C 
ATOM     24  O   UNL     1      -0.073   7.173  -4.920  0.00  0.00    -0.453 OA
ENDBRANCH  15  16
ENDBRANCH   1  15
BRANCH   1  25
ATOM     25  C   UNL     1      -2.450   3.368   1.335  0.00  0.00    -0.036 C 
BRANCH  25  26
ATOM     26  C   UNL     1      -1.433   2.421   1.919  0.00  0.00    +0.001 A 
ATOM     27  C   UNL     1      -0.425   2.902   2.688  0.00  0.00    +0.017 A 
ATOM     28  C   UNL     1       0.546   1.956   3.240  0.00  0.00    -0.001 A 
ATOM     29  C   UNL     1       1.606   2.393   4.041  0.00  0.00    +0.013 A 
ATOM     30  C   UNL     1       2.496   1.484   4.541  0.00  0.00    -0.047 A 
ATOM     31  C   UNL     1       2.357   0.132   4.261  0.00  0.00    -0.046 A 
ATOM     32  C   UNL     1       1.320  -0.321   3.475  0.00  0.00    +0.030 A 
ATOM     33  C   UNL     1       0.402   0.586   2.954  0.00  0.00    +0.049 A 
ATOM     34  N   UNL     1      -0.646   0.161   2.165  0.00  0.00    -0.322 N 
ATOM     35  H   UNL     1      -0.744  -0.784   1.970  0.00  0.00    +0.169 HD
ATOM     36  C   UNL     1      -1.536   1.036   1.667  0.00  0.00    +0.251 A 
ATOM     37  O   UNL     1      -2.452   0.625   0.977  0.00  0.00    -0.268 OA
ATOM     38  C   UNL     1       3.351  -0.852   4.823  0.00  0.00    +0.044 C 
ATOM     39  C   UNL     1       3.639   1.955   5.404  0.00  0.00    +0.044 C 
ENDBRANCH  25  26
ENDBRANCH   1  25
TORSDOF 8
