REMARK  Name = ZINC65363226
REMARK  5 active torsions:
REMARK  status: ('A' for Active; 'I' for Inactive)
REMARK    1  A    between atoms: C_1  and  C_2
REMARK    2  A    between atoms: C_23  and  C_25
REMARK    3  A    between atoms: C_30  and  O_31
REMARK    4  A    between atoms: O_31  and  C_32
REMARK    5  A    between atoms: C_32  and  C_33
REMARK                            x       y       z     vdW  Elec       q    Type
REMARK                         _______ _______ _______ _____ _____    ______ ____
ROOT
ATOM      1  C   UNL     1      -0.236   1.476  -0.041  0.00  0.00    +0.068 C 
ATOM      2  C   UNL     1      -0.069  -0.022  -0.029  0.00  0.00    +0.066 A 
ATOM      3  C   UNL     1       0.187  -0.820  -1.134  0.00  0.00    +0.023 A 
ATOM      4  C   UNL     1       0.274  -2.118  -0.708  0.00  0.00    +0.134 A 
ATOM      5  N   UNL     1       0.068  -2.124   0.626  0.00  0.00    -0.198 N 
ATOM      6  N   UNL     1      -0.136  -0.794   1.030  0.00  0.00    -0.168 NA
ATOM      7  C   UNL     1       0.062  -3.250   1.456  0.00  0.00    +0.178 A 
ATOM      8  C   UNL     1       0.351  -3.118   2.815  0.00  0.00    +0.053 A 
ATOM      9  C   UNL     1       0.333  -4.261   3.596  0.00  0.00    +0.049 A 
ATOM     10  C   UNL     1       0.028  -5.473   2.976  0.00  0.00    +0.144 A 
ATOM     11  N   UNL     1      -0.233  -5.501   1.679  0.00  0.00    -0.132 NA
ATOM     12  N   UNL     1      -0.222  -4.441   0.956  0.00  0.00    -0.128 NA
ATOM     13  N   UNL     1      -0.002  -6.649   3.720  0.00  0.00    -0.314 N 
ATOM     14  C   UNL     1      -0.534  -7.889   3.138  0.00  0.00    +0.106 C 
ATOM     15  C   UNL     1       0.517  -8.994   3.289  0.00  0.00    +0.019 C 
ATOM     16  C   UNL     1       0.920  -9.112   4.761  0.00  0.00    +0.003 C 
ATOM     17  C   UNL     1       1.536  -7.793   5.230  0.00  0.00    +0.019 C 
ATOM     18  C   UNL     1       0.503  -6.676   5.099  0.00  0.00    +0.106 C 
ATOM     19  N   UNL     1       0.546  -3.166  -1.586  0.00  0.00    -0.270 N 
ATOM     20  C   UNL     1       0.925  -2.858  -2.845  0.00  0.00    +0.219 C 
ATOM     21  O   UNL     1       0.982  -3.742  -3.673  0.00  0.00    -0.275 OA
ATOM     22  C   UNL     1       1.277  -1.456  -3.251  0.00  0.00    +0.109 C 
ATOM     23  C   UNL     1       0.352  -0.434  -2.582  0.00  0.00    +0.066 C 
ATOM     24  H   UNL     1       0.465  -4.090  -1.301  0.00  0.00    +0.156 HD
ENDROOT
BRANCH  23  25
ATOM     25  C   UNL     1      -0.991  -0.441  -3.266  0.00  0.00    +0.002 A 
ATOM     26  C   UNL     1      -1.738  -1.603  -3.312  0.00  0.00    +0.008 A 
ATOM     27  C   UNL     1      -2.970  -1.610  -3.939  0.00  0.00    +0.001 A 
ATOM     28  C   UNL     1      -3.458  -0.455  -4.521  0.00  0.00    +0.004 A 
ATOM     29  C   UNL     1      -2.717   0.709  -4.478  0.00  0.00    +0.046 A 
ATOM     30  C   UNL     1      -1.482   0.720  -3.844  0.00  0.00    +0.125 A 
BRANCH  30  31
ATOM     31  O   UNL     1      -0.753   1.866  -3.795  0.00  0.00    -0.488 OA
BRANCH  31  32
ATOM     32  C   UNL     1      -1.321   3.023  -4.412  0.00  0.00    +0.256 C 
BRANCH  32  33
ATOM     33  C   UNL     1      -0.377   4.188  -4.259  0.00  0.00    +0.006 C 
ATOM     34  C   UNL     1      -0.128   4.969  -5.281  0.00  0.00    +0.007 C 
ENDBRANCH  32  33
ENDBRANCH  31  32
ENDBRANCH  30  31
ENDBRANCH  23  25
TORSDOF 4
