REMARK  Name = ZINC20641582
REMARK  6 active torsions:
REMARK  status: ('A' for Active; 'I' for Inactive)
REMARK    1  A    between atoms: C_1  and  C_2
REMARK    2  A    between atoms: C_5  and  N_9
REMARK    3  A    between atoms: C_6  and  C_8
REMARK    4  A    between atoms: C_10  and  C_12
REMARK    5  A    between atoms: C_23  and  C_35
REMARK    6  A    between atoms: N_24  and  C_28
REMARK                            x       y       z     vdW  Elec       q    Type
REMARK                         _______ _______ _______ _____ _____    ______ ____
ROOT
ATOM      1  C   UNL     1       2.166   0.344   0.849  0.00  0.00    +0.163 C 
ATOM      2  C   UNL     1       2.272   1.608  -0.020  0.00  0.00    +0.123 C 
ATOM      3  C   UNL     1       2.401   1.179  -1.465  0.00  0.00    +0.017 A 
ATOM      4  C   UNL     1       2.993   2.042  -2.369  0.00  0.00    +0.029 A 
ATOM      5  C   UNL     1       3.117   1.678  -3.698  0.00  0.00    +0.042 A 
ATOM      6  C   UNL     1       2.647   0.448  -4.123  0.00  0.00    +0.023 A 
ATOM      7  C   UNL     1       2.059  -0.416  -3.222  0.00  0.00    +0.047 A 
ATOM      8  C   UNL     1       1.935  -0.054  -1.884  0.00  0.00    +0.128 A 
ATOM      9  O   UNL     1       1.366  -0.938  -1.024  0.00  0.00    -0.467 OA
ATOM     10  C   UNL     1       1.009  -0.491   0.281  0.00  0.00    +0.194 C 
ATOM     11  N   UNL     1      -0.201   0.325   0.239  0.00  0.00    -0.243 N 
ATOM     12  C   UNL     1      -0.154   1.665   0.195  0.00  0.00    +0.141 C 
ATOM     13  S   UNL     1      -1.623   2.544   0.245  0.00  0.00    -0.018 S 
ATOM     14  N   UNL     1       1.003   2.343   0.107  0.00  0.00    -0.318 N 
ATOM     15  C   UNL     1       0.772  -1.706   1.180  0.00  0.00    +0.079 C 
ATOM     16 CL   UNL     1       3.861   2.764  -4.830  0.00  0.00    -0.084 Cl
ATOM     17  H   UNL     1       1.004   3.442   0.131  0.00  0.00    +0.148 HD
ENDROOT
BRANCH  11  18
ATOM     18  C   UNL     1      -1.448  -0.311   0.245  0.00  0.00    +0.039 A 
ATOM     19  C   UNL     1      -1.840  -1.084  -0.840  0.00  0.00    +0.026 A 
ATOM     20  C   UNL     1      -3.068  -1.715  -0.830  0.00  0.00    +0.040 A 
ATOM     21  C   UNL     1      -3.914  -1.567   0.257  0.00  0.00    +0.124 A 
ATOM     22  C   UNL     1      -3.528  -0.792   1.337  0.00  0.00    +0.040 A 
ATOM     23  C   UNL     1      -2.298  -0.164   1.333  0.00  0.00    +0.026 A 
ATOM     24  F   UNL     1      -5.118  -2.181   0.263  0.00  0.00    -0.205 F 
ENDBRANCH  11  18
BRANCH   1  26
ATOM     25  N   UNL     1       4.599   0.105   1.227  0.00  0.00    -0.285 N 
ATOM     26  C   UNL     1       3.450  -0.441   0.779  0.00  0.00    +0.228 C 
ATOM     27  O   UNL     1       3.451  -1.563   0.320  0.00  0.00    -0.275 OA
ATOM     28  H   UNL     1       4.588   1.097   1.702  0.00  0.00    +0.155 HD
BRANCH  25  33
ATOM     29  C   UNL     1       9.489  -2.715   0.660  0.00  0.00    +0.044 C 
ATOM     30  C   UNL     1       8.190  -1.966   0.811  0.00  0.00    -0.050 A 
ATOM     31  C   UNL     1       7.017  -2.659   1.046  0.00  0.00    +0.005 A 
ATOM     32  C   UNL     1       5.825  -1.976   1.185  0.00  0.00    +0.024 A 
ATOM     33  C   UNL     1       5.805  -0.591   1.087  0.00  0.00    +0.036 A 
ATOM     34  C   UNL     1       6.984   0.102   0.845  0.00  0.00    -0.029 A 
ATOM     35  C   UNL     1       8.173  -0.587   0.713  0.00  0.00    +0.008 A 
ATOM     36  C   UNL     1       6.965   1.605   0.731  0.00  0.00    +0.045 C 
ENDBRANCH  25  33
ENDBRANCH   1  26
TORSDOF 3
