REMARK  Name = ZINC08916478
REMARK  11 active torsions:
REMARK  status: ('A' for Active; 'I' for Inactive)
REMARK    1  A    between atoms: C_1  and  C_2
REMARK    2  A    between atoms: C_2  and  S_3
REMARK    3  A    between atoms: S_3  and  C_4
REMARK    4  A    between atoms: C_4  and  C_5
REMARK    5  A    between atoms: C_5  and  O_6
REMARK    6  A    between atoms: O_6  and  C_7
REMARK    7  A    between atoms: C_7  and  C_9
REMARK    8  A    between atoms: C_10  and  C_38
REMARK    9  A    between atoms: C_14  and  C_16
REMARK   10  A    between atoms: C_20  and  N_22
REMARK   11  A    between atoms: C_28  and  C_31
REMARK                            x       y       z     vdW  Elec       q    Type
REMARK                         _______ _______ _______ _____ _____    ______ ____
ROOT
ATOM      1  C   UNL     1      -0.744   5.816   1.285  0.00  0.00    +0.154 C 
ATOM      2  C   UNL     1      -2.010   6.267   1.271  0.00  0.00    +0.031 C 
ATOM      3  N   UNL     1      -2.716   6.313   0.101  0.00  0.00    -0.260 NA
ATOM      4  C   UNL     1      -2.068   6.293  -1.105  0.00  0.00    +0.049 C 
ATOM      5  C   UNL     1      -0.800   5.838  -1.194  0.00  0.00    +0.025 C 
ATOM      6  C   UNL     1      -0.071   5.346   0.031  0.00  0.00    +0.073 C 
ATOM      7  C   UNL     1      -0.125   5.810  -2.426  0.00  0.00    +0.162 C 
ATOM      8  O   UNL     1       1.021   5.408  -2.470  0.00  0.00    -0.292 OA
ATOM      9  C   UNL     1      -0.795   6.268  -3.693  0.00  0.00    +0.088 C 
ATOM     10  C   UNL     1      -2.306   6.045  -3.565  0.00  0.00    +0.032 C 
ATOM     11  C   UNL     1      -2.804   6.789  -2.325  0.00  0.00    +0.064 C 
ATOM     12  C   UNL     1      -2.656   6.725   2.554  0.00  0.00    +0.061 C 
ENDROOT
BRANCH  10  13
ATOM     13  C   UNL     1      -3.002   6.580  -4.790  0.00  0.00    -0.043 A 
ATOM     14  C   UNL     1      -2.895   7.919  -5.116  0.00  0.00    +0.005 A 
ATOM     15  C   UNL     1      -3.529   8.409  -6.243  0.00  0.00    +0.020 A 
ATOM     16  C   UNL     1      -4.280   7.561  -7.038  0.00  0.00    +0.041 A 
ATOM     17  C   UNL     1      -4.391   6.222  -6.707  0.00  0.00    +0.020 A 
ATOM     18  C   UNL     1      -3.752   5.732  -5.583  0.00  0.00    +0.005 A 
ATOM     19 CL   UNL     1      -5.081   8.176  -8.449  0.00  0.00    -0.084 Cl
ENDBRANCH  10  13
BRANCH   6  20
ATOM     20  C   UNL     1      -0.051   3.839   0.023  0.00  0.00    -0.037 A 
ATOM     21  C   UNL     1      -1.239   3.132   0.030  0.00  0.00    +0.004 A 
ATOM     22  C   UNL     1      -1.221   1.750   0.018  0.00  0.00    +0.003 A 
ATOM     23  C   UNL     1      -0.015   1.075   0.009  0.00  0.00    +0.033 A 
ATOM     24  C   UNL     1       1.173   1.782   0.001  0.00  0.00    +0.126 A 
ATOM     25  C   UNL     1       1.155   3.164   0.009  0.00  0.00    +0.037 A 
BRANCH  24  26
ATOM     26  N   UNL     1       2.465   1.058  -0.014  0.00  0.00    +0.056 N 
ATOM     27  O   UNL     1       2.481  -0.159  -0.020  0.00  0.00    -0.126 OA
ATOM     28  O   UNL     1       3.511   1.681  -0.021  0.00  0.00    -0.126 OA
ENDBRANCH  24  26
ENDBRANCH   6  20
BRANCH   1  29
ATOM     29  C   UNL     1      -0.032   5.787   2.507  0.00  0.00    +0.317 C 
ATOM     30  O   UNL     1      -0.566   6.168   3.532  0.00  0.00    -0.250 OA
BRANCH  29  31
ATOM     31  O   UNL     1       1.240   5.336   2.536  0.00  0.00    -0.463 OA
BRANCH  31  32
ATOM     32  C   UNL     1       1.899   5.334   3.804  0.00  0.00    +0.243 C 
BRANCH  32  33
ATOM     33  C   UNL     1       3.321   4.794   3.639  0.00  0.00    +0.110 C 
BRANCH  33  34
ATOM     34  S   UNL     1       4.157   4.792   5.249  0.00  0.00    -0.158 S 
BRANCH  34  36
ATOM     35  C   UNL     1       6.630   4.076   6.173  0.00  0.00    +0.015 C 
ATOM     36  C   UNL     1       5.808   4.132   4.885  0.00  0.00    +0.066 C 
ENDBRANCH  34  36
ENDBRANCH  33  34
ENDBRANCH  32  33
ENDBRANCH  31  32
ENDBRANCH  29  31
ENDBRANCH   1  29
TORSDOF 9
