REMARK  Name = ZINC38905822
REMARK  6 active torsions:
REMARK  status: ('A' for Active; 'I' for Inactive)
REMARK    1  A    between atoms: C_1  and  C_2
REMARK    2  A    between atoms: C_5  and  C_8
REMARK    3  A    between atoms: C_10  and  C_14
REMARK    4  A    between atoms: N_16  and  N_17
REMARK    5  A    between atoms: C_18  and  C_19
REMARK    6  A    between atoms: C_28  and  O_29
REMARK                            x       y       z     vdW  Elec       q    Type
REMARK                         _______ _______ _______ _____ _____    ______ ____
ROOT
ATOM      1  C   UNL     1      -1.137  -7.203   0.967  0.00  0.00    +0.263 C 
ATOM      2  O   UNL     1      -2.073  -7.332   0.205  0.00  0.00    -0.271 OA
ATOM      3  N   UNL     1      -1.196  -7.736   2.203  0.00  0.00    -0.205 N 
ATOM      4  H   UNL     1      -0.448  -7.632   2.812  0.00  0.00    +0.177 HD
ENDROOT
BRANCH   1   7
ATOM      5  C   UNL     1       0.061  -4.256  -0.021  0.00  0.00    +0.092 C 
ATOM      6  C   UNL     1       0.071  -5.030   1.081  0.00  0.00    +0.041 C 
ATOM      7  C   UNL     1       0.090  -6.445   0.530  0.00  0.00    +0.240 C 
ATOM      8  N   UNL     1       0.087  -6.239  -0.927  0.00  0.00    -0.170 NA
ATOM      9  N   UNL     1       0.065  -5.025  -1.142  0.00  0.00    -0.153 NA
BRANCH   5  14
ATOM     10  C   UNL     1      -0.018   1.503   0.010  0.00  0.00    +0.044 C 
ATOM     11  C   UNL     1       0.002  -0.004   0.002  0.00  0.00    -0.050 A 
ATOM     12  C   UNL     1       0.006  -0.686  -1.201  0.00  0.00    +0.004 A 
ATOM     13  C   UNL     1       0.025  -2.066  -1.215  0.00  0.00    +0.010 A 
ATOM     14  C   UNL     1       0.041  -2.772  -0.013  0.00  0.00    +0.002 A 
ATOM     15  C   UNL     1       0.037  -2.080   1.196  0.00  0.00    +0.010 A 
ATOM     16  C   UNL     1       0.023  -0.700   1.198  0.00  0.00    +0.004 A 
ENDBRANCH   5  14
ENDBRANCH   1   7
BRANCH   3  17
ATOM     17  N   UNL     1      -2.337  -8.440   2.609  0.00  0.00    -0.188 NA
ATOM     18  C   UNL     1      -2.394  -8.954   3.801  0.00  0.00    +0.142 C 
BRANCH  18  19
ATOM     19  C   UNL     1      -3.592  -9.692   4.227  0.00  0.00    +0.044 A 
ATOM     20  C   UNL     1      -3.675 -10.272   5.566  0.00  0.00    -0.006 A 
ATOM     21  C   UNL     1      -2.625 -10.145   6.484  0.00  0.00    +0.009 A 
ATOM     22  C   UNL     1      -2.743 -10.700   7.723  0.00  0.00    +0.001 A 
ATOM     23  C   UNL     1      -3.894 -11.393   8.090  0.00  0.00    +0.001 A 
ATOM     24  C   UNL     1      -4.933 -11.535   7.222  0.00  0.00    +0.008 A 
ATOM     25  C   UNL     1      -4.847 -10.976   5.936  0.00  0.00    -0.017 A 
ATOM     26  C   UNL     1      -5.901 -11.101   5.014  0.00  0.00    +0.012 A 
ATOM     27  C   UNL     1      -5.807 -10.555   3.772  0.00  0.00    +0.046 A 
ATOM     28  C   UNL     1      -4.676  -9.850   3.364  0.00  0.00    +0.126 A 
BRANCH  28  29
ATOM     29  O   UNL     1      -4.627  -9.318   2.116  0.00  0.00    -0.506 OA
ATOM     30  H   UNL     1      -4.260  -9.913   1.448  0.00  0.00    +0.292 HD
ENDBRANCH  28  29
ENDBRANCH  18  19
ENDBRANCH   3  17
TORSDOF 5
