REMARK  Name = ZINC40290486
REMARK  4 active torsions:
REMARK  status: ('A' for Active; 'I' for Inactive)
REMARK    1  A    between atoms: C_1  and  C_2
REMARK    2  A    between atoms: C_3  and  C_16
REMARK    3  A    between atoms: C_7  and  C_8
REMARK    4  A    between atoms: C_8  and  N_9
REMARK                            x       y       z     vdW  Elec       q    Type
REMARK                         _______ _______ _______ _____ _____    ______ ____
ROOT
ATOM      1  C   UNL     1       0.176   1.499   0.003  0.00  0.00    +0.046 C 
ATOM      2  C   UNL     1       0.096  -0.006  -0.002  0.00  0.00    -0.020 A 
ATOM      3  C   UNL     1      -0.037  -0.711  -1.189  0.00  0.00    +0.064 A 
ATOM      4  N   UNL     1      -0.106  -2.027  -1.170  0.00  0.00    -0.152 NA
ATOM      5  N   UNL     1      -0.055  -2.700  -0.078  0.00  0.00    -0.129 NA
ATOM      6  C   UNL     1       0.070  -2.116   1.103  0.00  0.00    +0.181 A 
ATOM      7  C   UNL     1       0.157  -0.728   1.181  0.00  0.00    +0.017 A 
ATOM      8  N   UNL     1       0.120  -2.889   2.267  0.00  0.00    -0.218 N 
ATOM      9  C   UNL     1       0.543  -4.178   2.355  0.00  0.00    +0.136 A 
ATOM     10  C   UNL     1       0.435  -4.556   3.650  0.00  0.00    +0.079 A 
ATOM     11  C   UNL     1      -0.067  -3.470   4.377  0.00  0.00    +0.154 A 
ATOM     12  N   UNL     1      -0.250  -2.471   3.552  0.00  0.00    -0.172 NA
ATOM     13 CL   UNL     1       0.847  -6.114   4.296  0.00  0.00    -0.080 Cl
ATOM     14  C   UNL     1      -0.102   0.028  -2.501  0.00  0.00    +0.068 C 
ENDROOT
BRANCH   7  15
ATOM     15  C   UNL     1       0.306  -0.032   2.509  0.00  0.00    +0.117 C 
BRANCH  15  16
ATOM     16  N   UNL     1      -1.022   0.196   3.095  0.00  0.00    -0.326 NA
ATOM     17  H   UNL     1      -0.949   0.662   3.987  0.00  0.00    +0.119 HD
ATOM     18  H   UNL     1      -1.611   0.717   2.462  0.00  0.00    +0.119 HD
ENDBRANCH  15  16
ENDBRANCH   7  15
TORSDOF 2
