REMARK  Name = ZINC59922354
REMARK  7 active torsions:
REMARK  status: ('A' for Active; 'I' for Inactive)
REMARK    1  A    between atoms: C_1  and  C_2
REMARK    2  A    between atoms: C_4  and  C_7
REMARK    3  A    between atoms: C_7  and  N_14
REMARK    4  A    between atoms: C_15  and  C_17
REMARK    5  A    between atoms: C_21  and  O_23
REMARK    6  A    between atoms: O_23  and  C_24
REMARK    7  A    between atoms: C_24  and  C_25
REMARK                            x       y       z     vdW  Elec       q    Type
REMARK                         _______ _______ _______ _____ _____    ______ ____
ROOT
ATOM      1  N   UNL     1      -2.515  -3.158   1.122  0.00  0.00    -0.299 N 
ATOM      2  C   UNL     1      -3.346  -2.102   1.224  0.00  0.00    +0.245 C 
ATOM      3  O   UNL     1      -3.327  -1.230   0.378  0.00  0.00    -0.270 OA
ATOM      4  H   UNL     1      -2.531  -3.855   1.797  0.00  0.00    +0.150 HD
ENDROOT
BRANCH   1   5
ATOM      5  C   UNL     1      -1.588  -3.254  -0.008  0.00  0.00    +0.098 C 
ATOM      6  C   UNL     1      -2.360  -3.292  -1.299  0.00  0.00    +0.034 C 
ATOM      7  C   UNL     1      -3.787  -3.844  -1.116  0.00  0.00    +0.003 C 
ATOM      8  C   UNL     1      -3.841  -5.061  -0.173  0.00  0.00    +0.000 C 
ATOM      9  C   UNL     1      -2.707  -6.023  -0.409  0.00  0.00    +0.000 C 
ATOM     10  C   UNL     1      -1.562  -5.679   0.566  0.00  0.00    +0.003 C 
ATOM     11  C   UNL     1      -0.763  -4.552   0.108  0.00  0.00    +0.034 C 
BRANCH   5  15
ATOM     12  C   UNL     1      -0.018   1.503   0.010  0.00  0.00    +0.112 C 
ATOM     13  C   UNL     1       0.002  -0.004   0.002  0.00  0.00    +0.224 A 
ATOM     14  N   UNL     1      -1.044  -0.783   0.003  0.00  0.00    -0.194 NA
ATOM     15  C   UNL     1      -0.663  -2.065  -0.006  0.00  0.00    +0.195 A 
ATOM     16  N   UNL     1       0.638  -2.118  -0.012  0.00  0.00    -0.059 NA
ATOM     17  O   UNL     1       1.097  -0.774  -0.013  0.00  0.00    -0.338 OA
ENDBRANCH   5  15
ENDBRANCH   1   5
BRANCH   2  18
ATOM     18  C   UNL     1      -4.282  -2.005   2.365  0.00  0.00    +0.040 A 
ATOM     19  C   UNL     1      -4.303  -3.003   3.341  0.00  0.00    +0.013 A 
ATOM     20  C   UNL     1      -5.177  -2.909   4.404  0.00  0.00    +0.004 A 
ATOM     21  C   UNL     1      -6.035  -1.830   4.506  0.00  0.00    +0.046 A 
ATOM     22  C   UNL     1      -6.022  -0.833   3.540  0.00  0.00    +0.122 A 
ATOM     23  C   UNL     1      -5.144  -0.913   2.472  0.00  0.00    +0.058 A 
BRANCH  22  24
ATOM     24  O   UNL     1      -6.867   0.226   3.646  0.00  0.00    -0.486 OA
BRANCH  24  25
ATOM     25  C   UNL     1      -7.742   0.248   4.775  0.00  0.00    +0.286 C 
BRANCH  25  26
ATOM     26  C   UNL     1      -8.598   1.487   4.724  0.00  0.00    +0.097 A 
ATOM     27  C   UNL     1      -8.558   2.433   3.760  0.00  0.00    +0.119 A 
ATOM     28  N   UNL     1      -9.489   3.382   4.086  0.00  0.00    -0.306 N 
ATOM     29  C   UNL     1      -9.875   4.543   3.481  0.00  0.00    +0.092 A 
ATOM     30  C   UNL     1     -10.841   5.313   4.025  0.00  0.00    +0.018 A 
ATOM     31  C   UNL     1     -11.464   4.927   5.223  0.00  0.00    +0.005 A 
ATOM     32  C   UNL     1     -11.089   3.772   5.836  0.00  0.00    +0.047 A 
ATOM     33  C   UNL     1     -10.079   2.979   5.256  0.00  0.00    +0.138 A 
ATOM     34  N   UNL     1      -9.528   1.830   5.619  0.00  0.00    -0.229 NA
ENDBRANCH  25  26
ENDBRANCH  24  25
ENDBRANCH  22  24
ENDBRANCH   2  18
TORSDOF 6
