REMARK  Name = ZINC11594663
REMARK  8 active torsions:
REMARK  status: ('A' for Active; 'I' for Inactive)
REMARK    1  A    between atoms: C_1  and  C_2
REMARK    2  A    between atoms: C_2  and  C_3
REMARK    3  A    between atoms: C_2  and  C_4
REMARK    4  A    between atoms: C_2  and  N_61
REMARK    5  A    between atoms: C_4  and  N_5
REMARK    6  A    between atoms: C_6  and  C_8
REMARK    7  A    between atoms: C_8  and  C_9
REMARK    8  A    between atoms: C_9  and  C_10
REMARK                            x       y       z     vdW  Elec       q    Type
REMARK                         _______ _______ _______ _____ _____    ______ ____
ROOT
ATOM      1  C   UNL     1      -1.372   8.512  -4.371  0.00  0.00    +0.103 C 
ENDROOT
BRANCH   1   3
ATOM      2  N   UNL     1      -2.260  10.643  -5.258  0.00  0.00    -0.317 N 
ATOM      3  C   UNL     1      -1.852   9.382  -5.504  0.00  0.00    +0.213 C 
ATOM      4  O   UNL     1      -1.871   8.948  -6.636  0.00  0.00    -0.276 OA
ATOM      5  H   UNL     1      -2.244  10.990  -4.353  0.00  0.00    +0.149 HD
BRANCH   2   6
ATOM      6  C   UNL     1      -2.727  11.489  -6.359  0.00  0.00    +0.092 C 
BRANCH   6   8
ATOM      7  C   UNL     1      -1.755  13.553  -5.339  0.00  0.00    -0.008 C 
ATOM      8  C   UNL     1      -3.044  12.889  -5.828  0.00  0.00    -0.055 C 
ATOM      9  C   UNL     1      -3.659  13.732  -6.947  0.00  0.00    -0.008 C 
BRANCH   8  15
ATOM     10  C   UNL     1      -5.219  12.088  -5.128  0.00  0.00    -0.078 C 
ATOM     11  C   UNL     1      -6.121  11.871  -3.912  0.00  0.00    -0.019 C 
ATOM     12  C   UNL     1      -6.469  13.226  -3.291  0.00  0.00    -0.004 C 
ATOM     13  C   UNL     1      -5.176  13.952  -2.912  0.00  0.00    -0.019 C 
ATOM     14  C   UNL     1      -4.300  14.110  -4.157  0.00  0.00    -0.078 C 
ATOM     15  N   UNL     1      -3.981  12.769  -4.692  0.00  0.00    +0.384 N 
ATOM     16  H   UNL     1      -3.538  12.212  -3.951  0.00  0.00    -0.081 HD
ENDBRANCH   8  15
ENDBRANCH   6   8
ENDBRANCH   2   6
ENDBRANCH   1   3
BRANCH   1  17
ATOM     17  C   UNL     1      -0.971   7.140  -4.917  0.00  0.00    +0.083 C 
BRANCH  17  18
ATOM     18  C   UNL     1      -0.490   6.269  -3.785  0.00  0.00    +0.111 A 
ATOM     19  N   UNL     1      -0.087   5.007  -4.066  0.00  0.00    -0.310 N 
ATOM     20  H   UNL     1      -0.120   4.705  -4.987  0.00  0.00    +0.170 HD
ATOM     21  C   UNL     1       0.362   4.147  -3.121  0.00  0.00    +0.260 A 
ATOM     22  O   UNL     1       0.722   3.014  -3.394  0.00  0.00    -0.267 OA
ATOM     23  C   UNL     1       0.386   4.654  -1.778  0.00  0.00    +0.075 A 
ATOM     24  C   UNL     1       0.818   3.944  -0.588  0.00  0.00    -0.023 A 
ATOM     25  C   UNL     1       0.754   4.624   0.581  0.00  0.00    -0.004 A 
ATOM     26  S   UNL     1       0.124   6.227   0.152  0.00  0.00    -0.073 S 
ATOM     27  C   UNL     1      -0.054   5.982  -1.587  0.00  0.00    +0.116 A 
ATOM     28  N   UNL     1      -0.481   6.770  -2.569  0.00  0.00    -0.227 NA
ATOM     29  C   UNL     1       1.135   4.128   1.942  0.00  0.00    +0.043 C 
ATOM     30  C   UNL     1       1.261   2.598   1.882  0.00  0.00    +0.005 C 
ATOM     31  C   UNL     1       2.108   2.225   0.662  0.00  0.00    +0.005 C 
ATOM     32  C   UNL     1       1.322   2.503  -0.619  0.00  0.00    +0.037 C 
ENDBRANCH  17  18
ENDBRANCH   1  17
TORSDOF 6
