REMARK  Name = ZINC14472516
REMARK  7 active torsions:
REMARK  status: ('A' for Active; 'I' for Inactive)
REMARK    1  A    between atoms: C_1  and  O_2
REMARK    2  A    between atoms: O_2  and  C_3
REMARK    3  A    between atoms: C_6  and  N_9
REMARK    4  A    between atoms: N_9  and  S_10
REMARK    5  A    between atoms: S_10  and  C_13
REMARK    6  A    between atoms: C_26  and  C_29
REMARK    7  A    between atoms: C_31  and  N_36
REMARK                            x       y       z     vdW  Elec       q    Type
REMARK                         _______ _______ _______ _____ _____    ______ ____
ROOT
ATOM      1  C   UNL     1      -4.252   1.790  -0.712  0.00  0.00    +0.109 A 
ATOM      2  C   UNL     1      -3.659   0.642  -1.207  0.00  0.00    +0.030 A 
ATOM      3  C   UNL     1      -4.146  -0.595  -0.836  0.00  0.00    +0.025 A 
ATOM      4  C   UNL     1      -5.234  -0.684   0.024  0.00  0.00    +0.031 A 
ATOM      5  C   UNL     1      -5.835   0.463   0.519  0.00  0.00    -0.018 A 
ATOM      6  C   UNL     1      -5.332   1.702   0.142  0.00  0.00    +0.034 A 
ATOM      7  C   UNL     1      -7.006   0.416   1.447  0.00  0.00    +0.049 C 
ATOM      8  C   UNL     1      -8.288   0.779   0.736  0.00  0.00    -0.023 C 
ATOM      9  C   UNL     1      -9.283   0.061   1.199  0.00  0.00    -0.030 C 
ATOM     10  C   UNL     1      -8.798  -0.876   2.289  0.00  0.00    +0.033 C 
ATOM     11  C   UNL     1      -7.271  -0.993   2.011  0.00  0.00    +0.029 C 
ATOM     12  C   UNL     1      -7.088  -2.039   0.908  0.00  0.00    +0.106 C 
ATOM     13  N   UNL     1      -5.721  -1.945   0.385  0.00  0.00    -0.336 N 
ATOM     14  H   UNL     1      -5.168  -2.736   0.292  0.00  0.00    +0.147 HD
ENDROOT
BRANCH  12  15
ATOM     15  C   UNL     1      -7.316  -3.417   1.476  0.00  0.00    -0.007 A 
ATOM     16  C   UNL     1      -7.294  -3.613   2.844  0.00  0.00    +0.039 A 
ATOM     17  C   UNL     1      -7.509  -4.875   3.365  0.00  0.00    +0.127 A 
ATOM     18  C   UNL     1      -7.735  -5.944   2.518  0.00  0.00    +0.034 A 
ATOM     19  C   UNL     1      -7.752  -5.750   1.150  0.00  0.00    +0.022 A 
ATOM     20  C   UNL     1      -7.542  -4.486   0.628  0.00  0.00    +0.046 A 
ATOM     21 CL   UNL     1      -7.563  -4.242  -1.091  0.00  0.00    -0.083 Cl
BRANCH  17  22
ATOM     22  N   UNL     1      -7.491  -5.083   4.831  0.00  0.00    +0.056 N 
ATOM     23  O   UNL     1      -7.675  -6.196   5.290  0.00  0.00    -0.126 OA
ATOM     24  O   UNL     1      -7.292  -4.141   5.577  0.00  0.00    -0.126 OA
ENDBRANCH  17  22
ENDBRANCH  12  15
BRANCH   1  25
ATOM     25  S   UNL     1      -3.629   3.370  -1.178  0.00  0.00    +0.072 S 
ATOM     26  O   UNL     1      -4.662   4.309  -0.912  0.00  0.00    -0.150 OA
ATOM     27  O   UNL     1      -3.055   3.216  -2.469  0.00  0.00    -0.150 OA
BRANCH  25  28
ATOM     28  N   UNL     1      -2.385   3.731  -0.147  0.00  0.00    -0.216 N 
ATOM     29  H   UNL     1      -2.458   4.488   0.455  0.00  0.00    +0.174 HD
BRANCH  28  33
ATOM     30  C   UNL     1       1.060   1.383  -0.135  0.00  0.00    +0.120 A 
ATOM     31  C   UNL     1       0.837   2.282  -1.168  0.00  0.00    +0.047 A 
ATOM     32  C   UNL     1      -0.301   3.064  -1.170  0.00  0.00    +0.028 A 
ATOM     33  C   UNL     1      -1.228   2.943  -0.143  0.00  0.00    +0.048 A 
ATOM     34  C   UNL     1      -1.004   2.043   0.891  0.00  0.00    +0.028 A 
ATOM     35  C   UNL     1       0.137   1.265   0.894  0.00  0.00    +0.047 A 
BRANCH  30  37
ATOM     36  C   UNL     1       2.349  -0.286   0.963  0.00  0.00    +0.277 C 
ATOM     37  O   UNL     1       2.184   0.618  -0.131  0.00  0.00    -0.495 OA
ENDBRANCH  30  37
ENDBRANCH  28  33
ENDBRANCH  25  28
ENDBRANCH   1  25
TORSDOF 6
