REMARK  Name = ZINC36156674
REMARK  12 active torsions:
REMARK  status: ('A' for Active; 'I' for Inactive)
REMARK    1  A    between atoms: C_1  and  C_2
REMARK    2  A    between atoms: C_2  and  C_3
REMARK    3  A    between atoms: C_2  and  N_4
REMARK    4  A    between atoms: N_4  and  C_5
REMARK    5  A    between atoms: N_4  and  C_21
REMARK    6  A    between atoms: C_5  and  C_6
REMARK    7  A    between atoms: C_21  and  C_22
REMARK    8  A    between atoms: C_22  and  C_24
REMARK    9  A    between atoms: C_22  and  O_33
REMARK   10  A    between atoms: C_24  and  O_25
REMARK   11  A    between atoms: O_25  and  C_26
REMARK   12  A    between atoms: C_26  and  C_27
REMARK                            x       y       z     vdW  Elec       q    Type
REMARK                         _______ _______ _______ _____ _____    ______ ____
ROOT
ATOM      1  N   UNL     1      -1.303  -0.628   0.327  0.00  0.00    +0.388 N 
ATOM      2  H   UNL     1      -1.513  -0.304   1.259  0.00  0.00    -0.081 HD
ENDROOT
BRANCH   1   4
ATOM      3  C   UNL     1       0.428  -0.834  -1.393  0.00  0.00    -0.014 C 
ATOM      4  C   UNL     1       0.067  -0.238  -0.031  0.00  0.00    -0.074 C 
ATOM      5  C   UNL     1       0.161   1.288  -0.102  0.00  0.00    -0.014 C 
ENDBRANCH   1   4
BRANCH   1   6
ATOM      6  C   UNL     1      -2.248  -0.027  -0.624  0.00  0.00    -0.003 C 
BRANCH   6   7
ATOM      7  C   UNL     1      -2.547   1.390  -0.208  0.00  0.00    +0.094 A 
ATOM      8  N   UNL     1      -3.278   2.187  -1.029  0.00  0.00    -0.312 N 
ATOM      9  H   UNL     1      -3.598   1.832  -1.873  0.00  0.00    +0.170 HD
ATOM     10  C   UNL     1      -3.568   3.458  -0.696  0.00  0.00    +0.260 A 
ATOM     11  O   UNL     1      -4.226   4.160  -1.444  0.00  0.00    -0.267 OA
ATOM     12  C   UNL     1      -3.090   3.973   0.554  0.00  0.00    +0.075 A 
ATOM     13  C   UNL     1      -3.279   5.309   1.118  0.00  0.00    -0.023 A 
ATOM     14  C   UNL     1      -2.724   5.548   2.325  0.00  0.00    -0.004 A 
ATOM     15  S   UNL     1      -1.928   4.028   2.773  0.00  0.00    -0.073 S 
ATOM     16  C   UNL     1      -2.344   3.076   1.335  0.00  0.00    +0.116 A 
ATOM     17  N   UNL     1      -2.102   1.829   0.940  0.00  0.00    -0.229 NA
ATOM     18  C   UNL     1      -2.771   6.823   3.109  0.00  0.00    +0.043 C 
ATOM     19  C   UNL     1      -3.234   7.950   2.174  0.00  0.00    +0.005 C 
ATOM     20  C   UNL     1      -4.467   7.472   1.403  0.00  0.00    +0.005 C 
ATOM     21  C   UNL     1      -4.064   6.398   0.392  0.00  0.00    +0.037 C 
ENDBRANCH   6   7
ENDBRANCH   1   6
BRANCH   1  22
ATOM     22  C   UNL     1      -1.424  -2.091   0.278  0.00  0.00    -0.044 C 
BRANCH  22  23
ATOM     23  C   UNL     1      -0.591  -2.709   1.403  0.00  0.00    +0.124 C 
BRANCH  23  24
ATOM     24  O   UNL     1       0.798  -2.530   1.120  0.00  0.00    -0.391 OA
ATOM     25  H   UNL     1       1.075  -2.887   0.265  0.00  0.00    +0.210 HD
ENDBRANCH  23  24
BRANCH  23  26
ATOM     26  C   UNL     1      -0.902  -4.204   1.506  0.00  0.00    +0.189 C 
BRANCH  26  27
ATOM     27  O   UNL     1      -0.214  -4.758   2.629  0.00  0.00    -0.373 OA
BRANCH  27  28
ATOM     28  C   UNL     1      -0.437  -6.156   2.816  0.00  0.00    +0.195 C 
BRANCH  28  29
ATOM     29  C   UNL     1       0.333  -6.631   4.021  0.00  0.00    -0.022 A 
ATOM     30  C   UNL     1       1.629  -7.088   3.877  0.00  0.00    +0.006 A 
ATOM     31  C   UNL     1       2.336  -7.524   4.983  0.00  0.00    +0.000 A 
ATOM     32  C   UNL     1       1.745  -7.503   6.233  0.00  0.00    +0.000 A 
ATOM     33  C   UNL     1       0.449  -7.045   6.377  0.00  0.00    +0.000 A 
ATOM     34  C   UNL     1      -0.256  -6.605   5.272  0.00  0.00    +0.006 A 
ENDBRANCH  28  29
ENDBRANCH  27  28
ENDBRANCH  26  27
ENDBRANCH  23  26
ENDBRANCH  22  23
ENDBRANCH   1  22
TORSDOF 10
