REMARK  Name = ZINC16569672
REMARK  11 active torsions:
REMARK  status: ('A' for Active; 'I' for Inactive)
REMARK    1  A    between atoms: C_1  and  C_2
REMARK    2  A    between atoms: C_2  and  C_3
REMARK    3  A    between atoms: C_3  and  C_4
REMARK    4  A    between atoms: C_4  and  N_5
REMARK    5  A    between atoms: N_5  and  C_6
REMARK    6  A    between atoms: C_6  and  C_7
REMARK    7  A    between atoms: C_21  and  C_23
REMARK    8  A    between atoms: N_30  and  C_31
REMARK    9  A    between atoms: C_34  and  O_37
REMARK   10  A    between atoms: O_37  and  C_38
REMARK   11  A    between atoms: C_38  and  C_39
REMARK                            x       y       z     vdW  Elec       q    Type
REMARK                         _______ _______ _______ _____ _____    ______ ____
ROOT
ATOM      1  C   UNL     1       0.327  -3.620  -1.499  0.00  0.00    +0.238 C 
ATOM      2  O   UNL     1       1.512  -3.832  -1.650  0.00  0.00    -0.273 OA
ATOM      3  N   UNL     1      -0.083  -2.484  -0.902  0.00  0.00    -0.252 N 
ATOM      4  C   UNL     1       0.860  -1.591  -0.374  0.00  0.00    +0.061 A 
ATOM      5  C   UNL     1       2.130  -1.504  -0.920  0.00  0.00    +0.025 A 
ATOM      6  C   UNL     1       3.054  -0.628  -0.383  0.00  0.00    +0.002 A 
ATOM      7  C   UNL     1       2.719   0.166   0.699  0.00  0.00    +0.002 A 
ATOM      8  C   UNL     1       1.452   0.090   1.250  0.00  0.00    +0.028 A 
ATOM      9  C   UNL     1       0.523  -0.781   0.716  0.00  0.00    +0.068 A 
ATOM     10  N   UNL     1      -0.777  -0.886   1.232  0.00  0.00    -0.316 N 
ATOM     11  C   UNL     1      -1.296  -0.421   2.394  0.00  0.00    +0.092 A 
ATOM     12  C   UNL     1      -2.597  -0.782   2.448  0.00  0.00    +0.020 A 
ATOM     13  C   UNL     1      -2.890  -1.498   1.266  0.00  0.00    +0.025 A 
ATOM     14  C   UNL     1      -1.768  -1.547   0.540  0.00  0.00    +0.052 A 
ATOM     15  C   UNL     1      -1.521  -2.182  -0.807  0.00  0.00    +0.194 C 
ENDROOT
BRANCH  15  16
ATOM     16  C   UNL     1      -1.916  -1.226  -1.902  0.00  0.00    +0.131 A 
ATOM     17  C   UNL     1      -3.068  -1.258  -2.597  0.00  0.00    +0.047 A 
ATOM     18  C   UNL     1      -3.021  -0.186  -3.518  0.00  0.00    +0.041 A 
ATOM     19  C   UNL     1      -1.844   0.437  -3.330  0.00  0.00    +0.195 A 
ATOM     20  O   UNL     1      -1.181  -0.193  -2.347  0.00  0.00    -0.466 OA
ENDBRANCH  15  16
BRANCH   1  21
ATOM     21  C   UNL     1      -0.685  -4.628  -1.979  0.00  0.00    +0.205 C 
BRANCH  21  22
ATOM     22  N   UNL     1       0.000  -5.708  -2.693  0.00  0.00    -0.277 N 
ATOM     23  C   UNL     1       0.203  -5.615  -4.022  0.00  0.00    +0.307 C 
ATOM     24  O   UNL     1      -0.183  -4.634  -4.629  0.00  0.00    -0.252 OA
ATOM     25  N   UNL     1       0.834  -6.608  -4.678  0.00  0.00    -0.269 N 
ATOM     26  H   UNL     1       1.075  -7.423  -4.210  0.00  0.00    +0.156 HD
BRANCH  25  27
ATOM     27  C   UNL     1       1.143  -6.465  -6.038  0.00  0.00    +0.035 A 
ATOM     28  C   UNL     1       1.133  -7.573  -6.873  0.00  0.00    +0.027 A 
ATOM     29  C   UNL     1       1.433  -7.430  -8.214  0.00  0.00    +0.047 A 
ATOM     30  C   UNL     1       1.754  -6.181  -8.723  0.00  0.00    +0.121 A 
ATOM     31  C   UNL     1       1.768  -5.073  -7.888  0.00  0.00    +0.047 A 
ATOM     32  C   UNL     1       1.464  -5.214  -6.549  0.00  0.00    +0.027 A 
BRANCH  30  33
ATOM     33  O   UNL     1       2.055  -6.041 -10.042  0.00  0.00    -0.492 OA
BRANCH  33  34
ATOM     34  C   UNL     1       2.020  -7.224 -10.844  0.00  0.00    +0.225 C 
ATOM     35  C   UNL     1       2.384  -6.872 -12.288  0.00  0.00    +0.048 C 
ENDBRANCH  33  34
ENDBRANCH  30  33
ENDBRANCH  25  27
BRANCH  22  36
ATOM     36  C   UNL     1       0.466  -6.889  -1.962  0.00  0.00    +0.110 C 
BRANCH  36  37
ATOM     37  C   UNL     1      -0.640  -7.947  -1.946  0.00  0.00    +0.019 C 
BRANCH  37  39
ATOM     38  C   UNL     1      -1.259 -10.239  -1.167  0.00  0.00    +0.004 C 
ATOM     39  C   UNL     1      -0.154  -9.181  -1.182  0.00  0.00    -0.002 C 
ENDBRANCH  37  39
ENDBRANCH  36  37
ENDBRANCH  22  36
ENDBRANCH  21  22
ENDBRANCH   1  21
TORSDOF 9
