REMARK  Name = ZINC20258704
REMARK  7 active torsions:
REMARK  status: ('A' for Active; 'I' for Inactive)
REMARK    1  A    between atoms: C_1  and  O_2
REMARK    2  A    between atoms: O_2  and  C_3
REMARK    3  A    between atoms: C_6  and  S_10
REMARK    4  A    between atoms: S_10  and  N_13
REMARK    5  A    between atoms: N_13  and  C_14
REMARK    6  A    between atoms: C_23  and  O_24
REMARK    7  A    between atoms: N_25  and  C_26
REMARK                            x       y       z     vdW  Elec       q    Type
REMARK                         _______ _______ _______ _____ _____    ______ ____
ROOT
ATOM      1  C   UNL     1       3.436   3.120  -0.014  0.00  0.00    +0.152 A 
ATOM      2  C   UNL     1       2.378   3.979  -0.250  0.00  0.00    +0.076 A 
ATOM      3  C   UNL     1       1.030   3.399  -0.356  0.00  0.00    +0.042 A 
ATOM      4  C   UNL     1      -0.084   4.207  -0.592  0.00  0.00    +0.013 A 
ATOM      5  C   UNL     1      -1.333   3.634  -0.685  0.00  0.00    +0.001 A 
ATOM      6  C   UNL     1      -1.485   2.262  -0.551  0.00  0.00    +0.004 A 
ATOM      7  C   UNL     1      -0.394   1.453  -0.312  0.00  0.00    +0.047 A 
ATOM      8  C   UNL     1       0.875   2.011  -0.214  0.00  0.00    +0.141 A 
ATOM      9  O   UNL     1       1.953   1.230   0.016  0.00  0.00    -0.424 OA
ATOM     10  C   UNL     1       3.190   1.741   0.116  0.00  0.00    +0.310 A 
ATOM     11  N   UNL     1       2.581   5.342  -0.382  0.00  0.00    -0.380 N 
ATOM     12  H   UNL     1       2.686   5.972   0.514  0.00  0.00    +0.160 HD
ENDROOT
BRANCH  11  13
ATOM     13  C   UNL     1       2.624   5.733  -1.797  0.00  0.00    +0.079 C 
ATOM     14  C   UNL     1       4.065   5.611  -2.335  0.00  0.00    +0.024 C 
ATOM     15  C   UNL     1       4.212   6.814  -3.301  0.00  0.00    +0.002 C 
ATOM     16  C   UNL     1       3.430   7.936  -2.573  0.00  0.00    +0.002 C 
ATOM     17  C   UNL     1       2.220   7.210  -1.949  0.00  0.00    +0.024 C 
ENDBRANCH  11  13
BRANCH   1  18
ATOM     18  N   UNL     1       4.745   3.621   0.097  0.00  0.00    -0.208 N 
ATOM     19  H   UNL     1       5.519   3.298  -0.615  0.00  0.00    +0.174 HD
BRANCH  18  20
ATOM     20  S   UNL     1       5.122   4.696   1.299  0.00  0.00    +0.073 S 
ATOM     21  O   UNL     1       6.508   4.981   1.169  0.00  0.00    -0.150 OA
ATOM     22  O   UNL     1       4.128   5.711   1.262  0.00  0.00    -0.150 OA
BRANCH  20  26
ATOM     23  C   UNL     1       4.610   2.528   5.243  0.00  0.00    +0.138 A 
ATOM     24  C   UNL     1       3.523   3.146   4.643  0.00  0.00    +0.049 A 
ATOM     25  C   UNL     1       3.683   3.811   3.443  0.00  0.00    +0.032 A 
ATOM     26  C   UNL     1       4.923   3.852   2.833  0.00  0.00    +0.110 A 
ATOM     27  C   UNL     1       6.009   3.237   3.429  0.00  0.00    +0.052 A 
ATOM     28  C   UNL     1       5.856   2.575   4.633  0.00  0.00    +0.084 A 
ATOM     29 CL   UNL     1       7.219   1.803   5.380  0.00  0.00    -0.080 Cl
BRANCH  23  31
ATOM     30  C   UNL     1       3.146   1.870   6.997  0.00  0.00    +0.277 C 
ATOM     31  O   UNL     1       4.456   1.878   6.427  0.00  0.00    -0.494 OA
ENDBRANCH  23  31
ENDBRANCH  20  26
ENDBRANCH  18  20
ENDBRANCH   1  18
BRANCH  10  32
ATOM     32  O   UNL     1       4.127   0.989   0.323  0.00  0.00    -0.479 OA
ATOM     33  H   UNL     1       3.952  -0.092   0.427  0.00  0.00    +0.295 HD
ENDBRANCH  10  32
TORSDOF 6
