REMARK  Name = ZINC35926538
REMARK  5 active torsions:
REMARK  status: ('A' for Active; 'I' for Inactive)
REMARK    1  A    between atoms: C_4  and  N_7
REMARK    2  A    between atoms: N_10  and  C_13
REMARK    3  A    between atoms: C_13  and  C_14
REMARK    4  A    between atoms: C_29  and  C_31
REMARK    5  A    between atoms: C_31  and  C_32
REMARK                            x       y       z     vdW  Elec       q    Type
REMARK                         _______ _______ _______ _____ _____    ______ ____
ROOT
ATOM      1  C   UNL     1       7.001  -4.029  -1.700  0.00  0.00    +0.034 A 
ATOM      2  C   UNL     1       6.554  -5.007  -2.540  0.00  0.00    +0.091 A 
ATOM      3  C   UNL     1       6.801  -6.351  -2.210  0.00  0.00    +0.253 A 
ATOM      4  O   UNL     1       6.416  -7.251  -2.938  0.00  0.00    -0.268 OA
ATOM      5  N   UNL     1       7.473  -6.627  -1.072  0.00  0.00    -0.295 N 
ATOM      6  H   UNL     1       7.655  -7.548  -0.825  0.00  0.00    +0.172 HD
ATOM      7  C   UNL     1       7.895  -5.610  -0.273  0.00  0.00    +0.198 A 
ATOM      8  N   UNL     1       7.664  -4.352  -0.592  0.00  0.00    -0.223 NA
ATOM      9  N   UNL     1       8.576  -5.898   0.879  0.00  0.00    -0.300 N 
ATOM     10  C   UNL     1       9.017  -4.781   1.728  0.00  0.00    +0.109 C 
ATOM     11  C   UNL     1       8.776  -5.044   3.217  0.00  0.00    +0.038 C 
ATOM     12  C   UNL     1       7.428  -5.704   3.425  0.00  0.00    +0.109 C 
ATOM     13  N   UNL     1       7.605  -7.149   3.280  0.00  0.00    -0.300 N 
ATOM     14  C   UNL     1       7.635  -7.836   2.035  0.00  0.00    +0.126 C 
ATOM     15  C   UNL     1       8.823  -7.292   1.205  0.00  0.00    +0.127 C 
ATOM     16  C   UNL     1       7.750  -7.879   4.403  0.00  0.00    +0.220 C 
ATOM     17  O   UNL     1       7.730  -7.335   5.487  0.00  0.00    -0.275 OA
ENDROOT
BRANCH   1  18
ATOM     18  C   UNL     1       6.750  -2.580  -2.031  0.00  0.00    -0.022 C 
BRANCH  18  22
ATOM     19  N   UNL     1       3.620  -0.649  -0.036  0.00  0.00    -0.333 N 
ATOM     20  C   UNL     1       4.892   0.081  -0.149  0.00  0.00    +0.086 C 
ATOM     21  C   UNL     1       5.719  -0.554  -1.271  0.00  0.00    -0.059 C 
ATOM     22  N   UNL     1       5.867  -1.992  -1.016  0.00  0.00    +0.385 N 
ATOM     23  C   UNL     1       4.554  -2.648  -1.073  0.00  0.00    -0.059 C 
ATOM     24  C   UNL     1       3.669  -2.116   0.065  0.00  0.00    +0.086 C 
ATOM     25  H   UNL     1       6.270  -2.130  -0.101  0.00  0.00    -0.081 HD
BRANCH  19  29
ATOM     26  C   UNL     1      -0.017   1.379   0.011  0.00  0.00    +0.000 A 
ATOM     27  C   UNL     1       0.002  -0.004  -0.011  0.00  0.00    +0.002 A 
ATOM     28  C   UNL     1       1.206  -0.680  -0.027  0.00  0.00    +0.023 A 
ATOM     29  C   UNL     1       2.400   0.031  -0.021  0.00  0.00    +0.030 A 
ATOM     30  C   UNL     1       2.377   1.420   0.002  0.00  0.00    +0.023 A 
ATOM     31  C   UNL     1       1.170   2.089   0.018  0.00  0.00    +0.002 A 
ENDBRANCH  19  29
ENDBRANCH  18  22
ENDBRANCH   1  18
BRANCH  16  32
ATOM     32  C   UNL     1       7.935  -9.372   4.312  0.00  0.00    +0.138 C 
BRANCH  32  33
ATOM     33  C   UNL     1       8.072  -9.946   5.699  0.00  0.00    -0.001 A 
ATOM     34  C   UNL     1       7.107 -10.409   6.530  0.00  0.00    +0.011 A 
ATOM     35  C   UNL     1       7.469 -10.897   7.772  0.00  0.00    +0.008 A 
ATOM     36  C   UNL     1       8.778 -10.898   8.121  0.00  0.00    +0.045 A 
ATOM     37  S   UNL     1       9.549 -10.201   6.670  0.00  0.00    -0.101 S 
ENDBRANCH  32  33
ENDBRANCH  16  32
TORSDOF 5
