REMARK  Name = ZINC14650315
REMARK  11 active torsions:
REMARK  status: ('A' for Active; 'I' for Inactive)
REMARK    1  A    between atoms: C_1  and  C_2
REMARK    2  A    between atoms: C_2  and  C_3
REMARK    3  A    between atoms: C_3  and  C_4
REMARK    4  A    between atoms: C_4  and  O_5
REMARK    5  A    between atoms: O_5  and  C_6
REMARK    6  A    between atoms: C_11  and  C_12
REMARK    7  A    between atoms: N_14  and  C_15
REMARK    8  A    between atoms: C_15  and  N_17
REMARK    9  A    between atoms: N_17  and  N_18
REMARK   10  A    between atoms: C_19  and  C_21
REMARK   11  A    between atoms: C_25  and  N_27
REMARK                            x       y       z     vdW  Elec       q    Type
REMARK                         _______ _______ _______ _____ _____    ______ ____
ROOT
ATOM      1  C   UNL     1       3.856  -3.131  -6.766  0.00  0.00    +0.153 C 
ATOM      2  S   UNL     1       3.727  -1.435  -6.570  0.00  0.00    -0.017 S 
ENDROOT
BRANCH   1   5
ATOM      3  C   UNL     1       2.722  -3.450  -4.751  0.00  0.00    +0.253 C 
ATOM      4  O   UNL     1       2.630  -2.246  -4.612  0.00  0.00    -0.270 OA
ATOM      5  N   UNL     1       3.340  -3.958  -5.835  0.00  0.00    -0.263 N 
ATOM      6  H   UNL     1       3.413  -4.919  -5.946  0.00  0.00    +0.157 HD
BRANCH   3  12
ATOM      7  C   UNL     1       1.514  -3.831  -2.603  0.00  0.00    +0.133 A 
ATOM      8  C   UNL     1       0.980  -4.691  -1.655  0.00  0.00    +0.047 A 
ATOM      9  C   UNL     1       1.089  -6.057  -1.820  0.00  0.00    +0.019 A 
ATOM     10  C   UNL     1       1.730  -6.580  -2.933  0.00  0.00    +0.019 A 
ATOM     11  C   UNL     1       2.265  -5.740  -3.885  0.00  0.00    +0.032 A 
ATOM     12  C   UNL     1       2.157  -4.355  -3.733  0.00  0.00    +0.080 A 
ATOM     13 BR   UNL     1       1.870  -8.454  -3.144  0.00  0.00    -0.050 Br
BRANCH   7  14
ATOM     14  O   UNL     1       1.408  -2.488  -2.441  0.00  0.00    -0.491 OA
BRANCH  14  15
ATOM     15  C   UNL     1       0.739  -2.027  -1.265  0.00  0.00    +0.229 C 
BRANCH  15  16
ATOM     16  C   UNL     1       0.718  -0.497  -1.257  0.00  0.00    +0.041 C 
BRANCH  16  18
ATOM     17  C   UNL     1      -0.019   1.526   0.010  0.00  0.00    +0.004 C 
ATOM     18  C   UNL     1       0.002  -0.004   0.002  0.00  0.00    -0.000 C 
ENDBRANCH  16  18
ENDBRANCH  15  16
ENDBRANCH  14  15
ENDBRANCH   7  14
ENDBRANCH   3  12
ENDBRANCH   1   5
BRANCH   1  19
ATOM     19  N   UNL     1       4.474  -3.639  -7.851  0.00  0.00    -0.245 N 
ATOM     20  H   UNL     1       4.846  -3.044  -8.520  0.00  0.00    +0.172 HD
BRANCH  19  21
ATOM     21  N   UNL     1       4.580  -5.027  -8.011  0.00  0.00    -0.231 N 
ATOM     22  C   UNL     1       5.198  -5.535  -9.095  0.00  0.00    +0.260 C 
ATOM     23  O   UNL     1       5.663  -4.790  -9.935  0.00  0.00    -0.269 OA
ATOM     24  H   UNL     1       4.208  -5.622  -7.341  0.00  0.00    +0.173 HD
BRANCH  22  25
ATOM     25  C   UNL     1       5.309  -7.000  -9.264  0.00  0.00    +0.040 A 
ATOM     26  C   UNL     1       4.770  -7.859  -8.305  0.00  0.00    +0.013 A 
ATOM     27  C   UNL     1       4.878  -9.225  -8.469  0.00  0.00    +0.003 A 
ATOM     28  C   UNL     1       5.518  -9.743  -9.581  0.00  0.00    +0.033 A 
ATOM     29  C   UNL     1       6.054  -8.897 -10.535  0.00  0.00    +0.127 A 
ATOM     30  C   UNL     1       5.948  -7.529 -10.386  0.00  0.00    +0.045 A 
BRANCH  29  31
ATOM     31  N   UNL     1       6.737  -9.460 -11.722  0.00  0.00    +0.056 N 
ATOM     32  O   UNL     1       6.826 -10.658 -11.856  0.00  0.00    -0.126 OA
ATOM     33  O   UNL     1       7.206  -8.722 -12.556  0.00  0.00    -0.126 OA
ENDBRANCH  29  31
ENDBRANCH  22  25
ENDBRANCH  19  21
ENDBRANCH   1  19
TORSDOF 10
