REMARK  Name = ZINC31829584
REMARK  6 active torsions:
REMARK  status: ('A' for Active; 'I' for Inactive)
REMARK    1  A    between atoms: C_1  and  C_2
REMARK    2  A    between atoms: N_13  and  C_16
REMARK    3  A    between atoms: C_16  and  C_17
REMARK    4  A    between atoms: N_19  and  N_20
REMARK    5  A    between atoms: C_21  and  C_22
REMARK    6  A    between atoms: C_27  and  O_28
REMARK                            x       y       z     vdW  Elec       q    Type
REMARK                         _______ _______ _______ _____ _____    ______ ____
ROOT
ATOM      1  C   UNL     1       5.725  -2.491  -1.022  0.00  0.00    +0.246 C 
ENDROOT
BRANCH   1  13
ATOM      2  C   UNL     1      10.030  -5.951  -8.402  0.00  0.00    +0.008 C 
ATOM      3  C   UNL     1       9.681  -5.341  -7.042  0.00  0.00    -0.009 C 
ATOM      4  C   UNL     1       8.193  -4.982  -7.007  0.00  0.00    +0.008 C 
ATOM      5  C   UNL     1       7.887  -4.151  -5.760  0.00  0.00    +0.037 C 
ATOM      6  C   UNL     1       8.415  -4.891  -4.534  0.00  0.00    -0.023 A 
ATOM      7  C   UNL     1       9.339  -5.868  -4.663  0.00  0.00    -0.004 A 
ATOM      8  S   UNL     1       9.646  -6.431  -3.011  0.00  0.00    -0.071 S 
ATOM      9  C   UNL     1       8.530  -5.350  -2.151  0.00  0.00    +0.138 A 
ATOM     10  C   UNL     1       7.956  -4.588  -3.181  0.00  0.00    +0.079 A 
ATOM     11  C   UNL     1       6.991  -3.608  -2.772  0.00  0.00    +0.279 A 
ATOM     12  O   UNL     1       6.438  -2.900  -3.595  0.00  0.00    -0.265 OA
ATOM     13  N   UNL     1       6.707  -3.486  -1.461  0.00  0.00    -0.201 N 
ATOM     14  N   UNL     1       7.343  -4.293  -0.513  0.00  0.00    -0.061 NA
ATOM     15  N   UNL     1       8.207  -5.179  -0.873  0.00  0.00    -0.123 NA
ATOM     16  C   UNL     1       9.966  -6.363  -5.931  0.00  0.00    +0.046 C 
ENDBRANCH   1  13
BRANCH   1  17
ATOM     17  C   UNL     1       4.352  -3.113  -1.006  0.00  0.00    +0.254 C 
ATOM     18  O   UNL     1       4.208  -4.273  -1.329  0.00  0.00    -0.272 OA
ATOM     19  N   UNL     1       3.284  -2.380  -0.633  0.00  0.00    -0.205 N 
ATOM     20  H   UNL     1       3.415  -1.328  -0.340  0.00  0.00    +0.177 HD
BRANCH  19  21
ATOM     21  N   UNL     1       2.008  -2.959  -0.618  0.00  0.00    -0.188 NA
ATOM     22  C   UNL     1       0.965  -2.224  -0.381  0.00  0.00    +0.142 C 
BRANCH  22  23
ATOM     23  C   UNL     1       1.027  -0.767  -0.595  0.00  0.00    +0.037 A 
ATOM     24  C   UNL     1       1.953  -0.227  -1.490  0.00  0.00    +0.028 A 
ATOM     25  C   UNL     1       2.005   1.138  -1.685  0.00  0.00    +0.019 A 
ATOM     26  C   UNL     1       1.143   1.976  -0.996  0.00  0.00    +0.019 A 
ATOM     27  C   UNL     1       0.222   1.453  -0.108  0.00  0.00    +0.047 A 
ATOM     28  C   UNL     1       0.156   0.085   0.100  0.00  0.00    +0.126 A 
ATOM     29 BR   UNL     1       3.264   1.870  -2.892  0.00  0.00    -0.050 Br
BRANCH  28  30
ATOM     30  O   UNL     1      -0.749  -0.430   0.972  0.00  0.00    -0.506 OA
ATOM     31  H   UNL     1      -1.431   0.240   1.516  0.00  0.00    +0.292 HD
ENDBRANCH  28  30
ENDBRANCH  22  23
ENDBRANCH  19  21
ENDBRANCH   1  17
TORSDOF 5
