REMARK  Name = ZINC23265772
REMARK  9 active torsions:
REMARK  status: ('A' for Active; 'I' for Inactive)
REMARK    1  A    between atoms: C_1  and  C_2
REMARK    2  A    between atoms: C_4  and  C_13
REMARK    3  A    between atoms: C_6  and  S_9
REMARK    4  A    between atoms: C_7  and  C_8
REMARK    5  A    between atoms: S_9  and  N_12
REMARK    6  A    between atoms: C_13  and  O_15
REMARK    7  A    between atoms: O_15  and  C_16
REMARK    8  A    between atoms: C_16  and  C_18
REMARK    9  A    between atoms: C_16  and  C_19
REMARK                            x       y       z     vdW  Elec       q    Type
REMARK                         _______ _______ _______ _____ _____    ______ ____
ROOT
ATOM      1  C   UNL     1      -2.552   4.125  -5.263  0.00  0.00    +0.044 C 
ATOM      2  C   UNL     1      -2.867   2.812  -4.593  0.00  0.00    -0.045 A 
ATOM      3  C   UNL     1      -2.159   2.424  -3.474  0.00  0.00    +0.018 A 
ATOM      4  C   UNL     1      -2.448   1.205  -2.858  0.00  0.00    +0.061 A 
ATOM      5  C   UNL     1      -3.459   0.392  -3.373  0.00  0.00    +0.043 A 
ATOM      6  C   UNL     1      -4.163   0.795  -4.489  0.00  0.00    +0.109 A 
ATOM      7  C   UNL     1      -3.868   2.002  -5.098  0.00  0.00    -0.021 A 
ATOM      8  C   UNL     1      -4.641   2.436  -6.316  0.00  0.00    +0.046 C 
ENDROOT
BRANCH   6   9
ATOM      9  S   UNL     1      -5.439  -0.230  -5.140  0.00  0.00    +0.056 S 
ATOM     10  O   UNL     1      -5.203  -0.334  -6.538  0.00  0.00    -0.153 OA
ATOM     11  O   UNL     1      -5.518  -1.368  -4.294  0.00  0.00    -0.153 OA
BRANCH   9  12
ATOM     12  N   UNL     1      -6.866   0.592  -4.962  0.00  0.00    -0.204 NA
ATOM     13  H   UNL     1      -7.692  -0.016  -5.359  0.00  0.00    +0.144 HD
ATOM     14  H   UNL     1      -6.813   1.542  -5.514  0.00  0.00    +0.144 HD
ENDBRANCH   9  12
ENDBRANCH   6   9
BRANCH   4  15
ATOM     15  C   UNL     1      -1.690   0.780  -1.663  0.00  0.00    +0.340 C 
ATOM     16  O   UNL     1      -1.947  -0.279  -1.126  0.00  0.00    -0.245 OA
BRANCH  15  17
ATOM     17  O   UNL     1      -0.715   1.567  -1.168  0.00  0.00    -0.449 OA
BRANCH  17  18
ATOM     18  C   UNL     1      -0.013   1.086   0.008  0.00  0.00    +0.259 C 
ATOM     19  C   UNL     1      -0.729   1.579   1.267  0.00  0.00    +0.062 C 
BRANCH  18  20
ATOM     20  C   UNL     1       1.401   1.607  -0.003  0.00  0.00    +0.261 C 
ATOM     21  O   UNL     1       1.753   2.387  -0.862  0.00  0.00    -0.271 OA
ATOM     22  N   UNL     1       2.274   1.208   0.943  0.00  0.00    -0.237 N 
ATOM     23  C   UNL     1       3.538   1.674   0.933  0.00  0.00    +0.303 C 
ATOM     24  O   UNL     1       3.892   2.455   0.072  0.00  0.00    -0.253 OA
ATOM     25  N   UNL     1       4.412   1.274   1.879  0.00  0.00    -0.313 N 
ATOM     26  H   UNL     1       1.955   0.500   1.723  0.00  0.00    +0.159 HD
ATOM     27  H   UNL     1       5.444   1.655   1.871  0.00  0.00    +0.146 HD
ATOM     28  H   UNL     1       4.092   0.567   2.659  0.00  0.00    +0.146 HD
ENDBRANCH  18  20
ENDBRANCH  17  18
ENDBRANCH  15  17
ENDBRANCH   4  15
TORSDOF 6
