REMARK  Name = ZINC66856669
REMARK  3 active torsions:
REMARK  status: ('A' for Active; 'I' for Inactive)
REMARK    1  A    between atoms: C_7  and  C_13
REMARK    2  A    between atoms: N_15  and  C_16
REMARK    3  A    between atoms: C_19  and  C_22
REMARK                            x       y       z     vdW  Elec       q    Type
REMARK                         _______ _______ _______ _____ _____    ______ ____
ROOT
ATOM      1  C   UNL     1       0.190  -3.087   0.524  0.00  0.00    +0.269 C 
ATOM      2  O   UNL     1      -0.836  -2.671   1.027  0.00  0.00    -0.268 OA
ATOM      3  N   UNL     1       0.222  -4.319  -0.021  0.00  0.00    -0.280 N 
ATOM      4  H   UNL     1       1.020  -4.625  -0.481  0.00  0.00    +0.155 HD
ENDROOT
BRANCH   1  11
ATOM      5  C   UNL     1       0.294   0.916   2.229  0.00  0.00    +0.001 A 
ATOM      6  C   UNL     1       1.468   1.657   2.182  0.00  0.00    +0.001 A 
ATOM      7  C   UNL     1       2.605   1.139   1.600  0.00  0.00    +0.014 A 
ATOM      8  C   UNL     1       2.570  -0.140   1.054  0.00  0.00    +0.050 A 
ATOM      9  C   UNL     1       1.375  -0.895   1.102  0.00  0.00    +0.020 A 
ATOM     10  C   UNL     1       0.239  -0.354   1.694  0.00  0.00    +0.011 A 
ATOM     11  C   UNL     1       1.400  -2.242   0.510  0.00  0.00    +0.154 A 
ATOM     12  N   UNL     1       2.511  -2.682  -0.031  0.00  0.00    -0.166 NA
ATOM     13  N   UNL     1       3.600  -2.014  -0.083  0.00  0.00    -0.242 N 
ATOM     14  H   UNL     1       4.371  -2.426  -0.504  0.00  0.00    +0.192 HD
ATOM     15  C   UNL     1       3.735  -0.768   0.416  0.00  0.00    +0.272 A 
ATOM     16  O   UNL     1       4.796  -0.177   0.338  0.00  0.00    -0.266 OA
ENDBRANCH   1  11
BRANCH   3  17
ATOM     17  C   UNL     1      -0.892  -5.155   0.076  0.00  0.00    +0.034 A 
ATOM     18  C   UNL     1      -2.172  -4.614   0.017  0.00  0.00    +0.024 A 
ATOM     19  C   UNL     1      -3.274  -5.436   0.113  0.00  0.00    +0.013 A 
ATOM     20  C   UNL     1      -3.104  -6.813   0.268  0.00  0.00    +0.019 A 
ATOM     21  C   UNL     1      -1.818  -7.353   0.326  0.00  0.00    +0.013 A 
ATOM     22  C   UNL     1      -0.720  -6.526   0.225  0.00  0.00    +0.024 A 
BRANCH  20  23
ATOM     23  C   UNL     1      -4.284  -7.698   0.372  0.00  0.00    +0.164 A 
ATOM     24  N   UNL     1      -4.303  -8.934   0.829  0.00  0.00    -0.129 NA
ATOM     25  N   UNL     1      -5.502  -9.402   0.774  0.00  0.00    -0.134 NA
ATOM     26  C   UNL     1      -6.305  -8.504   0.287  0.00  0.00    +0.134 A 
ATOM     27  N   UNL     1      -5.561  -7.392   0.019  0.00  0.00    -0.311 N 
ATOM     28  C   UNL     1      -6.090  -6.149  -0.541  0.00  0.00    +0.125 C 
ATOM     29  C   UNL     1      -7.466  -6.432  -1.155  0.00  0.00    +0.022 C 
ATOM     30  C   UNL     1      -8.337  -7.179  -0.141  0.00  0.00    +0.009 C 
ATOM     31  C   UNL     1      -7.790  -8.603   0.043  0.00  0.00    +0.076 C 
ENDBRANCH  20  23
ENDBRANCH   3  17
TORSDOF 3
