REMARK  Name = ZINC39676888
REMARK  8 active torsions:
REMARK  status: ('A' for Active; 'I' for Inactive)
REMARK    1  A    between atoms: C_1  and  C_2
REMARK    2  A    between atoms: C_5  and  C_38
REMARK    3  A    between atoms: C_6  and  C_8
REMARK    4  A    between atoms: C_8  and  C_9
REMARK    5  A    between atoms: C_9  and  N_10
REMARK    6  A    between atoms: C_11  and  C_13
REMARK    7  A    between atoms: C_24  and  C_26
REMARK    8  A    between atoms: C_32  and  C_34
REMARK                            x       y       z     vdW  Elec       q    Type
REMARK                         _______ _______ _______ _____ _____    ______ ____
ROOT
ATOM      1  C   UNL     1       2.701  -5.104   5.948  0.00  0.00    +0.100 C 
ATOM      2  C   UNL     1       2.270  -4.186   7.114  0.00  0.00    +0.121 C 
ATOM      3  N   UNL     1       3.127  -4.597   8.250  0.00  0.00    -0.299 N 
ATOM      4  C   UNL     1       4.454  -4.852   7.639  0.00  0.00    +0.115 C 
ATOM      5  C   UNL     1       4.134  -5.539   6.296  0.00  0.00    -0.004 C 
ATOM      6  C   UNL     1       5.106  -5.067   5.219  0.00  0.00    -0.010 C 
ATOM      7  C   UNL     1       6.515  -5.561   5.557  0.00  0.00    -0.082 C 
ATOM      8  N   UNL     1       6.516  -7.027   5.637  0.00  0.00    +0.379 N 
ATOM      9  C   UNL     1       5.651  -7.468   6.737  0.00  0.00    -0.082 C 
ATOM     10  C   UNL     1       4.205  -7.055   6.448  0.00  0.00    -0.010 C 
ATOM     11  C   UNL     1       2.779  -4.714   9.547  0.00  0.00    +0.236 C 
ATOM     12  O   UNL     1       3.602  -5.064  10.367  0.00  0.00    -0.274 OA
ATOM     13  H   UNL     1       6.176  -7.410   4.768  0.00  0.00    -0.086 HD
ATOM     14  H   UNL     1       7.457  -7.353   5.799  0.00  0.00    -0.086 HD
ENDROOT
BRANCH  11  15
ATOM     15  C   UNL     1       1.368  -4.409   9.979  0.00  0.00    +0.162 C 
ATOM     16  C   UNL     1       1.181  -2.883  10.119  0.00  0.00    +0.033 C 
ATOM     17  C   UNL     1       0.275  -2.758  11.372  0.00  0.00    +0.021 C 
ATOM     18  C   UNL     1       0.797  -3.922  12.251  0.00  0.00    +0.109 C 
ATOM     19  N   UNL     1       1.108  -5.006  11.297  0.00  0.00    -0.283 N 
ATOM     20  C   UNL     1       1.148  -6.322  11.585  0.00  0.00    +0.320 C 
ATOM     21  O   UNL     1       1.416  -7.125  10.716  0.00  0.00    -0.266 OA
BRANCH  20  22
ATOM     22  C   UNL     1       0.859  -6.797  12.985  0.00  0.00    +0.470 C 
ATOM     23  F   UNL     1       0.960  -8.191  13.036  0.00  0.00    -0.162 F 
ATOM     24  F   UNL     1       1.782  -6.230  13.870  0.00  0.00    -0.162 F 
ATOM     25  F   UNL     1      -0.435  -6.410  13.351  0.00  0.00    -0.162 F 
ENDBRANCH  20  22
ENDBRANCH  11  15
BRANCH   1  27
ATOM     26  N   UNL     1       2.455  -4.994   3.489  0.00  0.00    -0.315 N 
ATOM     27  C   UNL     1       2.684  -4.344   4.647  0.00  0.00    +0.218 C 
ATOM     28  O   UNL     1       2.878  -3.147   4.642  0.00  0.00    -0.275 OA
ATOM     29  H   UNL     1       2.300  -5.952   3.493  0.00  0.00    +0.149 HD
BRANCH  26  30
ATOM     30  C   UNL     1       2.438  -4.255   2.224  0.00  0.00    +0.109 C 
BRANCH  30  31
ATOM     31  C   UNL     1       2.158  -5.222   1.072  0.00  0.00    +0.054 C 
BRANCH  31  37
ATOM     32  C   UNL     1      -0.378  -2.826  -2.516  0.00  0.00    +0.044 C 
ATOM     33  C   UNL     1       0.928  -3.316  -1.946  0.00  0.00    -0.050 A 
ATOM     34  C   UNL     1       2.111  -3.067  -2.616  0.00  0.00    +0.003 A 
ATOM     35  C   UNL     1       3.309  -3.516  -2.093  0.00  0.00    +0.004 A 
ATOM     36  C   UNL     1       3.325  -4.213  -0.899  0.00  0.00    -0.047 A 
ATOM     37  C   UNL     1       2.142  -4.461  -0.229  0.00  0.00    -0.043 A 
ATOM     38  C   UNL     1       0.944  -4.008  -0.750  0.00  0.00    +0.007 A 
ATOM     39  C   UNL     1       4.631  -4.704  -0.330  0.00  0.00    +0.044 C 
ENDBRANCH  31  37
ENDBRANCH  30  31
ENDBRANCH  26  30
ENDBRANCH   1  27
TORSDOF 6
