REMARK  Name = ZINC06505917
REMARK  2 active torsions:
REMARK  status: ('A' for Active; 'I' for Inactive)
REMARK    1  A    between atoms: C_6  and  C_7
REMARK    2  A    between atoms: C_8  and  C_9
REMARK                            x       y       z     vdW  Elec       q    Type
REMARK                         _______ _______ _______ _____ _____    ______ ____
ROOT
ATOM      1  C   UNL     1       1.831  -1.651  -0.024  0.00  0.00    +0.273 C 
ATOM      2  O   UNL     1       3.031  -1.846  -0.036  0.00  0.00    -0.266 OA
ATOM      3  N   UNL     1       1.352  -0.391  -0.013  0.00  0.00    -0.182 N 
ATOM      4  C   UNL     1       2.076   0.750  -0.014  0.00  0.00    +0.230 A 
ATOM      5  N   UNL     1       1.245   1.758  -0.000  0.00  0.00    -0.202 NA
ATOM      6  C   UNL     1      -0.016   1.308   0.009  0.00  0.00    +0.232 A 
ATOM      7  N   UNL     1       0.002  -0.004   0.002  0.00  0.00    -0.127 NA
ATOM      8  N   UNL     1      -1.160   2.102   0.019  0.00  0.00    -0.326 N 
ATOM      9  H   UNL     1      -2.038   1.689   0.021  0.00  0.00    +0.145 HD
ATOM     10  H   UNL     1      -1.080   3.069   0.024  0.00  0.00    +0.145 HD
ENDROOT
BRANCH   1  12
ATOM     11  C   UNL     1       1.414  -4.013  -0.032  0.00  0.00    +0.013 C 
ATOM     12  C   UNL     1       0.934  -2.750  -0.021  0.00  0.00    +0.073 C 
BRANCH  11  18
ATOM     13  C   UNL     1      -0.897  -4.932  -0.010  0.00  0.00    +0.011 A 
ATOM     14  C   UNL     1      -1.762  -6.004  -0.012  0.00  0.00    +0.039 A 
ATOM     15  C   UNL     1      -1.266  -7.299  -0.024  0.00  0.00    +0.123 A 
ATOM     16  C   UNL     1       0.102  -7.525  -0.038  0.00  0.00    +0.039 A 
ATOM     17  C   UNL     1       0.978  -6.462  -0.041  0.00  0.00    +0.011 A 
ATOM     18  C   UNL     1       0.485  -5.152  -0.030  0.00  0.00    -0.025 A 
ATOM     19  F   UNL     1      -2.120  -8.346  -0.020  0.00  0.00    -0.205 F 
ENDBRANCH  11  18
ENDBRANCH   1  12
TORSDOF 2
