REMARK  Name = ZINC12475579
REMARK  10 active torsions:
REMARK  status: ('A' for Active; 'I' for Inactive)
REMARK    1  A    between atoms: C_1  and  O_2
REMARK    2  A    between atoms: O_2  and  C_3
REMARK    3  A    between atoms: C_8  and  C_9
REMARK    4  A    between atoms: C_9  and  N_10
REMARK    5  A    between atoms: N_10  and  C_11
REMARK    6  A    between atoms: C_11  and  C_13
REMARK    7  A    between atoms: C_11  and  C_20
REMARK    8  A    between atoms: N_22  and  C_23
REMARK    9  A    between atoms: C_29  and  C_31
REMARK   10  A    between atoms: C_31  and  C_32
REMARK                            x       y       z     vdW  Elec       q    Type
REMARK                         _______ _______ _______ _____ _____    ______ ____
ROOT
ATOM      1  N   UNL     1      -0.306   1.758   0.940  0.00  0.00    -0.281 N 
ATOM      2  C   UNL     1       0.393   2.569   1.759  0.00  0.00    +0.221 C 
ATOM      3  O   UNL     1       1.588   2.707   1.600  0.00  0.00    -0.275 OA
ENDROOT
BRANCH   1   4
ATOM      4  C   UNL     1      -1.730   1.521   1.185  0.00  0.00    +0.147 C 
BRANCH   4  10
ATOM      5  C   UNL     1      -2.767   2.206  -0.993  0.00  0.00    +0.125 A 
ATOM      6  C   UNL     1      -3.521   3.084  -1.758  0.00  0.00    +0.046 A 
ATOM      7  C   UNL     1      -4.053   4.220  -1.180  0.00  0.00    +0.004 A 
ATOM      8  C   UNL     1      -3.834   4.484   0.159  0.00  0.00    +0.001 A 
ATOM      9  C   UNL     1      -3.087   3.608   0.925  0.00  0.00    +0.009 A 
ATOM     10  C   UNL     1      -2.549   2.472   0.351  0.00  0.00    +0.012 A 
BRANCH   5  12
ATOM     11  C   UNL     1      -2.410   0.934  -2.969  0.00  0.00    +0.277 C 
ATOM     12  O   UNL     1      -2.243   1.087  -1.558  0.00  0.00    -0.495 OA
ENDBRANCH   5  12
ENDBRANCH   4  10
ENDBRANCH   1   4
BRANCH   1  13
ATOM     13  C   UNL     1       0.359   1.113  -0.195  0.00  0.00    +0.195 C 
BRANCH  13  14
ATOM     14  C   UNL     1       1.349   0.097   0.314  0.00  0.00    +0.017 A 
ATOM     15  C   UNL     1       1.772   0.142   1.629  0.00  0.00    +0.009 A 
ATOM     16  C   UNL     1       2.680  -0.790   2.096  0.00  0.00    +0.001 A 
ATOM     17  C   UNL     1       3.166  -1.768   1.249  0.00  0.00    +0.003 A 
ATOM     18  C   UNL     1       2.744  -1.815  -0.066  0.00  0.00    +0.039 A 
ATOM     19  C   UNL     1       1.831  -0.885  -0.534  0.00  0.00    +0.129 A 
ATOM     20  F   UNL     1       1.414  -0.934  -1.818  0.00  0.00    -0.205 F 
ENDBRANCH  13  14
BRANCH  13  21
ATOM     21  C   UNL     1       1.082   2.154  -1.011  0.00  0.00    +0.238 C 
ATOM     22  O   UNL     1       1.023   3.322  -0.692  0.00  0.00    -0.273 OA
ATOM     23  N   UNL     1       1.793   1.785  -2.095  0.00  0.00    -0.311 N 
ATOM     24  H   UNL     1       1.840   0.851  -2.350  0.00  0.00    +0.149 HD
BRANCH  23  25
ATOM     25  C   UNL     1       2.496   2.797  -2.888  0.00  0.00    +0.073 C 
ATOM     26  C   UNL     1       1.531   3.405  -3.909  0.00  0.00    +0.022 C 
ATOM     27  C   UNL     1       2.265   4.461  -4.738  0.00  0.00    +0.002 C 
ATOM     28  C   UNL     1       3.439   3.809  -5.471  0.00  0.00    +0.000 C 
ATOM     29  C   UNL     1       4.404   3.202  -4.450  0.00  0.00    +0.002 C 
ATOM     30  C   UNL     1       3.670   2.145  -3.621  0.00  0.00    +0.022 C 
ENDBRANCH  23  25
ENDBRANCH  13  21
ENDBRANCH   1  13
BRANCH   2  31
ATOM     31  C   UNL     1      -0.309   3.304   2.871  0.00  0.00    +0.133 C 
BRANCH  31  32
ATOM     32  C   UNL     1       0.669   4.213   3.569  0.00  0.00    -0.014 A 
ATOM     33  C   UNL     1       1.365   3.933   4.682  0.00  0.00    +0.087 A 
ATOM     34  N   UNL     1       2.155   4.999   5.019  0.00  0.00    -0.360 N 
ATOM     35  H   UNL     1       2.750   5.031   5.785  0.00  0.00    +0.165 HD
ATOM     36  C   UNL     1       1.974   6.020   4.113  0.00  0.00    +0.047 A 
ATOM     37  C   UNL     1       1.036   5.572   3.165  0.00  0.00    +0.003 A 
ATOM     38  C   UNL     1       0.655   6.408   2.114  0.00  0.00    +0.010 A 
ATOM     39  C   UNL     1       1.197   7.659   2.011  0.00  0.00    +0.001 A 
ATOM     40  C   UNL     1       2.123   8.105   2.944  0.00  0.00    +0.002 A 
ATOM     41  C   UNL     1       2.513   7.296   3.990  0.00  0.00    +0.026 A 
ENDBRANCH  31  32
ENDBRANCH   2  31
TORSDOF 9
