REMARK  Name = ZINC63498625
REMARK  2 active torsions:
REMARK  status: ('A' for Active; 'I' for Inactive)
REMARK    1  A    between atoms: C_8  and  C_11
REMARK    2  A    between atoms: C_18  and  C_19
REMARK                            x       y       z     vdW  Elec       q    Type
REMARK                         _______ _______ _______ _____ _____    ______ ____
ROOT
ATOM      1  C   UNL     1       3.814  -3.659  -1.319  0.00  0.00    +0.265 C 
ATOM      2  O   UNL     1       3.262  -4.727  -1.131  0.00  0.00    -0.268 OA
ATOM      3  N   UNL     1       5.081  -3.472  -0.897  0.00  0.00    -0.285 N 
ATOM      4  C   UNL     1       5.727  -2.159  -1.030  0.00  0.00    +0.109 C 
ATOM      5  C   UNL     1       6.263  -1.733   0.341  0.00  0.00    +0.019 C 
ATOM      6  C   UNL     1       7.177  -2.831   0.890  0.00  0.00    +0.004 C 
ATOM      7  C   UNL     1       6.376  -4.123   1.065  0.00  0.00    +0.032 C 
ATOM      8  C   UNL     1       5.839  -4.575  -0.291  0.00  0.00    +0.162 C 
ENDROOT
BRANCH   1  16
ATOM      9  C   UNL     1       0.351   0.600  -3.826  0.00  0.00    +0.001 A 
ATOM     10  C   UNL     1       1.537   0.963  -4.452  0.00  0.00    +0.002 A 
ATOM     11  C   UNL     1       2.700   0.267  -4.209  0.00  0.00    +0.026 A 
ATOM     12  C   UNL     1       2.691  -0.811  -3.328  0.00  0.00    +0.048 A 
ATOM     13  C   UNL     1       1.488  -1.176  -2.695  0.00  0.00    +0.019 A 
ATOM     14  C   UNL     1       0.318  -0.453  -2.958  0.00  0.00    +0.011 A 
ATOM     15  C   UNL     1       1.777  -2.290  -1.867  0.00  0.00    +0.078 A 
ATOM     16  C   UNL     1       3.100  -2.575  -2.005  0.00  0.00    +0.122 A 
ATOM     17  N   UNL     1       3.666  -1.678  -2.893  0.00  0.00    -0.349 N 
ATOM     18  H   UNL     1       4.597  -1.663  -3.165  0.00  0.00    +0.166 HD
ATOM     19 CL   UNL     1       0.646  -3.139  -0.860  0.00  0.00    -0.081 Cl
ENDBRANCH   1  16
BRANCH   8  20
ATOM     20  C   UNL     1       4.935  -5.766  -0.103  0.00  0.00    +0.236 C 
ATOM     21  O   UNL     1       4.259  -5.862   0.899  0.00  0.00    -0.274 OA
ATOM     22  N   UNL     1       4.878  -6.724  -1.049  0.00  0.00    -0.300 N 
ATOM     23  C   UNL     1       5.564  -6.687  -2.349  0.00  0.00    +0.108 C 
ATOM     24  C   UNL     1       5.187  -7.980  -3.103  0.00  0.00    +0.020 C 
ATOM     25  C   UNL     1       3.861  -8.407  -2.419  0.00  0.00    +0.020 C 
ATOM     26  C   UNL     1       4.122  -7.986  -0.949  0.00  0.00    +0.108 C 
ENDBRANCH   8  20
TORSDOF 2
