REMARK  Name = ZINC50289485
REMARK  4 active torsions:
REMARK  status: ('A' for Active; 'I' for Inactive)
REMARK    1  A    between atoms: C_1  and  C_2
REMARK    2  A    between atoms: C_7  and  N_10
REMARK    3  A    between atoms: C_11  and  C_13
REMARK    4  A    between atoms: C_13  and  C_17
REMARK                            x       y       z     vdW  Elec       q    Type
REMARK                         _______ _______ _______ _____ _____    ______ ____
ROOT
ATOM      1  N   UNL     1      -0.612  -2.548   1.244  0.00  0.00    -0.312 N 
ATOM      2  C   UNL     1      -0.873  -3.776   1.733  0.00  0.00    +0.230 C 
ATOM      3  O   UNL     1       0.030  -4.462   2.164  0.00  0.00    -0.275 OA
ATOM      4  H   UNL     1      -1.333  -2.000   0.898  0.00  0.00    +0.149 HD
ENDROOT
BRANCH   1  10
ATOM      5  C   UNL     1      -0.019   1.526   0.010  0.00  0.00    +0.007 C 
ATOM      6  C   UNL     1       0.002  -0.004   0.002  0.00  0.00    -0.012 C 
ATOM      7  C   UNL     1       0.718  -0.497  -1.257  0.00  0.00    +0.003 C 
ATOM      8  C   UNL     1       0.739  -2.027  -1.265  0.00  0.00    +0.002 C 
ATOM      9  C   UNL     1       1.479  -2.534  -0.026  0.00  0.00    +0.022 C 
ATOM     10  C   UNL     1       0.763  -2.041   1.233  0.00  0.00    +0.073 C 
ATOM     11  C   UNL     1       0.742  -0.511   1.242  0.00  0.00    +0.025 C 
ENDBRANCH   1  10
BRANCH   2  12
ATOM     12  C   UNL     1      -2.287  -4.298   1.743  0.00  0.00    +0.147 C 
ATOM     13  C   UNL     1      -3.115  -3.807   2.942  0.00  0.00    +0.028 C 
ATOM     14  C   UNL     1      -3.707  -5.225   3.013  0.00  0.00    +0.003 C 
ATOM     15  C   UNL     1      -2.417  -5.712   2.333  0.00  0.00    +0.028 C 
BRANCH  12  16
ATOM     16  C   UNL     1      -2.983  -4.130   0.417  0.00  0.00    +0.371 C 
ATOM     17  O   UNL     1      -2.348  -3.781  -0.564  0.00  0.00    -0.245 OA
ATOM     18  O   UNL     1      -4.180  -4.342   0.326  0.00  0.00    -0.245 OA
ENDBRANCH  12  16
ENDBRANCH   2  12
TORSDOF 3
