REMARK  Name = ZINC12122254
REMARK  13 active torsions:
REMARK  status: ('A' for Active; 'I' for Inactive)
REMARK    1  A    between atoms: C_1  and  N_73
REMARK    2  A    between atoms: C_6  and  C_8
REMARK    3  A    between atoms: N_10  and  C_11
REMARK    4  A    between atoms: N_10  and  C_21
REMARK    5  A    between atoms: C_11  and  C_12
REMARK    6  A    between atoms: C_21  and  C_22
REMARK    7  A    between atoms: C_25  and  O_36
REMARK    8  A    between atoms: C_28  and  O_34
REMARK    9  A    between atoms: C_30  and  N_31
REMARK   10  A    between atoms: N_31  and  C_32
REMARK   11  A    between atoms: N_31  and  C_33
REMARK   12  A    between atoms: O_34  and  C_35
REMARK   13  A    between atoms: O_36  and  C_37
REMARK                            x       y       z     vdW  Elec       q    Type
REMARK                         _______ _______ _______ _____ _____    ______ ____
ROOT
ATOM      1  C   UNL     1      -0.631   1.483  -1.246  0.00  0.00    +0.203 C 
ATOM      2  O   UNL     1      -0.244   2.504  -1.775  0.00  0.00    -0.277 OA
ATOM      3  N   UNL     1      -1.765   0.892  -1.672  0.00  0.00    -0.294 N 
ENDROOT
BRANCH   1   9
ATOM      4  C   UNL     1       2.066   0.812  -1.599  0.00  0.00    -0.095 C 
ATOM      5  C   UNL     1       2.386   0.599   0.792  0.00  0.00    -0.078 C 
ATOM      6  C   UNL     1       1.942   1.147   2.150  0.00  0.00    -0.019 C 
ATOM      7  C   UNL     1       0.460   0.827   2.364  0.00  0.00    -0.003 C 
ATOM      8  C   UNL     1      -0.355   1.431   1.218  0.00  0.00    -0.006 C 
ATOM      9  C   UNL     1       0.155   0.875  -0.114  0.00  0.00    +0.019 C 
ATOM     10  N   UNL     1       1.580   1.238  -0.270  0.00  0.00    +0.385 N 
ATOM     11  H   UNL     1       1.675   2.257  -0.192  0.00  0.00    -0.081 HD
ENDBRANCH   1   9
BRANCH   3  12
ATOM     12  C   UNL     1      -2.474   1.422  -2.840  0.00  0.00    +0.143 C 
BRANCH  12  13
ATOM     13  C   UNL     1      -2.038   0.674  -4.074  0.00  0.00    -0.026 A 
ATOM     14  C   UNL     1      -0.963   1.130  -4.814  0.00  0.00    +0.009 A 
ATOM     15  C   UNL     1      -0.556   0.444  -5.942  0.00  0.00    +0.050 A 
ATOM     16  C   UNL     1      -1.232  -0.698  -6.341  0.00  0.00    +0.166 A 
ATOM     17  C   UNL     1      -2.319  -1.154  -5.599  0.00  0.00    +0.167 A 
ATOM     18  C   UNL     1      -2.718  -0.464  -4.466  0.00  0.00    +0.054 A 
ATOM     19  O   UNL     1      -2.809  -2.282  -6.192  0.00  0.00    -0.453 OA
ATOM     20  C   UNL     1      -2.270  -2.280  -7.527  0.00  0.00    +0.466 C 
ATOM     21  O   UNL     1      -1.042  -1.539  -7.399  0.00  0.00    -0.453 OA
ENDBRANCH  12  13
ENDBRANCH   3  12
BRANCH   3  22
ATOM     22  C   UNL     1      -2.290  -0.280  -0.967  0.00  0.00    +0.146 C 
BRANCH  22  23
ATOM     23  C   UNL     1      -3.252   0.167   0.104  0.00  0.00    +0.009 A 
ATOM     24  C   UNL     1      -3.590   1.483   0.212  0.00  0.00    +0.022 A 
ATOM     25  C   UNL     1      -4.495   1.859   1.223  0.00  0.00    +0.044 A 
ATOM     26  C   UNL     1      -4.890   3.201   1.388  0.00  0.00    +0.129 A 
ATOM     27  C   UNL     1      -5.772   3.530   2.392  0.00  0.00    +0.050 A 
ATOM     28  C   UNL     1      -6.276   2.551   3.244  0.00  0.00    +0.051 A 
ATOM     29  C   UNL     1      -5.912   1.242   3.107  0.00  0.00    +0.144 A 
ATOM     30  C   UNL     1      -5.011   0.867   2.091  0.00  0.00    +0.093 A 
ATOM     31  C   UNL     1      -3.797  -0.769   0.993  0.00  0.00    +0.104 A 
ATOM     32  N   UNL     1      -4.667  -0.464   1.987  0.00  0.00    -0.340 N 
ATOM     33  H   UNL     1      -5.046  -1.177   2.621  0.00  0.00    +0.167 HD
BRANCH  31  34
ATOM     34  N   UNL     1      -3.440  -2.105   0.875  0.00  0.00    -0.322 N 
ATOM     35  C   UNL     1      -2.897  -2.619   2.139  0.00  0.00    +0.130 C 
ATOM     36  C   UNL     1      -4.578  -2.915   0.421  0.00  0.00    +0.130 C 
ENDBRANCH  31  34
BRANCH  29  37
ATOM     37  O   UNL     1      -6.418   0.303   3.950  0.00  0.00    -0.493 OA
ATOM     38  C   UNL     1      -7.326   0.756   4.956  0.00  0.00    +0.277 C 
ENDBRANCH  29  37
BRANCH  26  39
ATOM     39  O   UNL     1      -4.404   4.164   0.561  0.00  0.00    -0.494 OA
ATOM     40  C   UNL     1      -4.850   5.502   0.791  0.00  0.00    +0.277 C 
ENDBRANCH  26  39
ENDBRANCH  22  23
ENDBRANCH   3  22
TORSDOF 8
