REMARK  Name = ZINC39600941
REMARK  6 active torsions:
REMARK  status: ('A' for Active; 'I' for Inactive)
REMARK    1  A    between atoms: C_1  and  C_2
REMARK    2  A    between atoms: C_6  and  C_8
REMARK    3  A    between atoms: C_8  and  C_9
REMARK    4  A    between atoms: C_13  and  C_22
REMARK    5  A    between atoms: N_24  and  C_25
REMARK    6  A    between atoms: C_25  and  C_26
REMARK                            x       y       z     vdW  Elec       q    Type
REMARK                         _______ _______ _______ _____ _____    ______ ____
ROOT
ATOM      1  C   UNL     1       1.639  -3.057   2.948  0.00  0.00    +0.220 C 
ATOM      2  O   UNL     1       2.571  -2.706   2.256  0.00  0.00    -0.275 OA
ATOM      3  N   UNL     1       1.864  -3.756   4.078  0.00  0.00    -0.300 N 
ATOM      4  C   UNL     1       0.863  -4.274   5.041  0.00  0.00    +0.121 C 
ATOM      5  C   UNL     1       1.397  -5.665   5.449  0.00  0.00    +0.100 C 
ATOM      6  C   UNL     1       2.911  -5.597   5.185  0.00  0.00    -0.004 C 
ATOM      7  C   UNL     1       3.168  -4.187   4.636  0.00  0.00    +0.115 C 
ATOM      8  C   UNL     1       3.313  -6.642   4.149  0.00  0.00    -0.010 C 
ATOM      9  C   UNL     1       4.830  -6.594   3.946  0.00  0.00    -0.082 C 
ATOM     10  N   UNL     1       5.506  -6.856   5.222  0.00  0.00    +0.379 N 
ATOM     11  C   UNL     1       5.186  -5.795   6.185  0.00  0.00    -0.082 C 
ATOM     12  C   UNL     1       3.684  -5.809   6.483  0.00  0.00    -0.010 C 
ATOM     13  H   UNL     1       5.198  -7.744   5.588  0.00  0.00    -0.086 HD
ATOM     14  H   UNL     1       6.503  -6.884   5.074  0.00  0.00    -0.086 HD
ENDROOT
BRANCH   5  15
ATOM     15  C   UNL     1       1.128  -5.922   6.910  0.00  0.00    +0.218 C 
ATOM     16  O   UNL     1       1.099  -4.996   7.693  0.00  0.00    -0.275 OA
ATOM     17  N   UNL     1       0.920  -7.180   7.345  0.00  0.00    -0.311 N 
ATOM     18  H   UNL     1       0.943  -7.920   6.719  0.00  0.00    +0.149 HD
BRANCH  17  19
ATOM     19  C   UNL     1       0.658  -7.430   8.765  0.00  0.00    +0.142 C 
BRANCH  19  20
ATOM     20  C   UNL     1       0.461  -8.908   8.987  0.00  0.00    +0.006 A 
ATOM     21  C   UNL     1      -0.816  -9.426   9.095  0.00  0.00    +0.023 A 
ATOM     22  C   UNL     1      -0.997 -10.782   9.298  0.00  0.00    +0.018 A 
ATOM     23  C   UNL     1       0.100 -11.620   9.394  0.00  0.00    +0.018 A 
ATOM     24  C   UNL     1       1.377 -11.103   9.287  0.00  0.00    +0.040 A 
ATOM     25  C   UNL     1       1.558  -9.747   9.077  0.00  0.00    +0.128 A 
ATOM     26  F   UNL     1       2.807  -9.241   8.966  0.00  0.00    -0.205 F 
ATOM     27 BR   UNL     1      -2.744 -11.491   9.447  0.00  0.00    -0.050 Br
ENDBRANCH  19  20
ENDBRANCH  17  19
ENDBRANCH   5  15
BRANCH   1  28
ATOM     28  C   UNL     1       0.228  -2.712   2.544  0.00  0.00    +0.131 C 
BRANCH  28  34
ATOM     29  C   UNL     1       0.446   1.663   0.124  0.00  0.00    +0.044 C 
ATOM     30  C   UNL     1       0.355   0.159   0.096  0.00  0.00    -0.050 A 
ATOM     31  C   UNL     1       0.293  -0.507  -1.114  0.00  0.00    +0.003 A 
ATOM     32  C   UNL     1       0.210  -1.887  -1.140  0.00  0.00    +0.001 A 
ATOM     33  C   UNL     1       0.189  -2.600   0.044  0.00  0.00    +0.004 A 
ATOM     34  C   UNL     1       0.252  -1.934   1.253  0.00  0.00    -0.038 A 
ATOM     35  C   UNL     1       0.339  -0.555   1.279  0.00  0.00    +0.007 A 
ENDBRANCH  28  34
ENDBRANCH   1  28
TORSDOF 5
