REMARK  Name = ZINC38971014
REMARK  7 active torsions:
REMARK  status: ('A' for Active; 'I' for Inactive)
REMARK    1  A    between atoms: C_4  and  C_7
REMARK    2  A    between atoms: C_7  and  O_8
REMARK    3  A    between atoms: O_8  and  C_9
REMARK    4  A    between atoms: C_12  and  N_15
REMARK    5  A    between atoms: N_15  and  C_16
REMARK    6  A    between atoms: N_19  and  S_20
REMARK    7  A    between atoms: S_20  and  C_23
REMARK                            x       y       z     vdW  Elec       q    Type
REMARK                         _______ _______ _______ _____ _____    ______ ____
ROOT
ATOM      1  C   UNL     1       9.486  -3.815   3.308  0.00  0.00    +0.237 C 
ATOM      2  C   UNL     1      10.899  -3.277   3.304  0.00  0.00    +0.192 C 
ATOM      3  N   UNL     1      11.132  -2.038   2.983  0.00  0.00    -0.110 NA
ATOM      4  N   UNL     1      11.909  -4.096   3.636  0.00  0.00    -0.226 NA
ATOM      5  C   UNL     1      11.698  -5.354   3.965  0.00  0.00    +0.089 A 
ATOM      6  C   UNL     1      12.789  -6.191   4.312  0.00  0.00    +0.030 A 
ATOM      7  C   UNL     1      12.579  -7.482   4.649  0.00  0.00    +0.002 A 
ATOM      8  C   UNL     1      11.299  -8.061   4.678  0.00  0.00    +0.002 A 
ATOM      9  C   UNL     1      10.192  -7.353   4.366  0.00  0.00    +0.027 A 
ATOM     10  C   UNL     1      10.335  -5.939   3.987  0.00  0.00    +0.063 A 
ATOM     11  N   UNL     1       9.289  -5.225   3.680  0.00  0.00    -0.359 N 
ATOM     12  H   UNL     1       8.401  -5.614   3.697  0.00  0.00    +0.162 HD
ENDROOT
BRANCH   3  13
ATOM     13  S   UNL     1      12.684  -1.462   2.982  0.00  0.00    +0.100 S 
ATOM     14  O   UNL     1      13.126  -1.483   4.333  0.00  0.00    -0.146 OA
ATOM     15  O   UNL     1      13.372  -2.148   1.945  0.00  0.00    -0.146 OA
BRANCH  13  16
ATOM     16  C   UNL     1      12.611   0.232   2.503  0.00  0.00    +0.113 A 
ATOM     17  C   UNL     1      12.695   0.577   1.167  0.00  0.00    +0.029 A 
ATOM     18  C   UNL     1      12.637   1.905   0.790  0.00  0.00    +0.002 A 
ATOM     19  C   UNL     1      12.495   2.890   1.750  0.00  0.00    +0.000 A 
ATOM     20  C   UNL     1      12.410   2.546   3.087  0.00  0.00    +0.002 A 
ATOM     21  C   UNL     1      12.463   1.216   3.462  0.00  0.00    +0.029 A 
ENDBRANCH  13  16
ENDBRANCH   3  13
BRANCH   1  22
ATOM     22  N   UNL     1       8.931  -3.626   1.965  0.00  0.00    -0.318 N 
ATOM     23  H   UNL     1       9.422  -3.939   1.189  0.00  0.00    +0.148 HD
BRANCH  22  27
ATOM     24  C   UNL     1       5.246  -1.740   1.478  0.00  0.00    +0.121 A 
ATOM     25  C   UNL     1       5.693  -2.070   2.749  0.00  0.00    +0.047 A 
ATOM     26  C   UNL     1       6.914  -2.695   2.911  0.00  0.00    +0.026 A 
ATOM     27  C   UNL     1       7.694  -2.993   1.802  0.00  0.00    +0.029 A 
ATOM     28  C   UNL     1       7.245  -2.662   0.530  0.00  0.00    +0.026 A 
ATOM     29  C   UNL     1       6.022  -2.042   0.369  0.00  0.00    +0.047 A 
BRANCH  24  30
ATOM     30  O   UNL     1       4.044  -1.124   1.319  0.00  0.00    -0.487 OA
BRANCH  30  31
ATOM     31  C   UNL     1       3.297  -0.843   2.505  0.00  0.00    +0.264 C 
BRANCH  31  35
ATOM     32  C   UNL     1      -0.371   1.079   1.459  0.00  0.00    +0.000 A 
ATOM     33  C   UNL     1      -0.313  -0.299   1.544  0.00  0.00    +0.000 A 
ATOM     34  C   UNL     1       0.875  -0.921   1.882  0.00  0.00    +0.007 A 
ATOM     35  C   UNL     1       2.003  -0.165   2.135  0.00  0.00    -0.010 A 
ATOM     36  C   UNL     1       1.945   1.214   2.049  0.00  0.00    +0.007 A 
ATOM     37  C   UNL     1       0.758   1.836   1.712  0.00  0.00    +0.000 A 
ENDBRANCH  31  35
ENDBRANCH  30  31
ENDBRANCH  24  30
ENDBRANCH  22  27
ENDBRANCH   1  22
TORSDOF 7
