REMARK  Name = ZINC33684847
REMARK  9 active torsions:
REMARK  status: ('A' for Active; 'I' for Inactive)
REMARK    1  A    between atoms: C_1  and  C_2
REMARK    2  A    between atoms: C_2  and  C_4
REMARK    3  A    between atoms: C_7  and  N_10
REMARK    4  A    between atoms: C_15  and  C_28
REMARK    5  A    between atoms: C_18  and  C_23
REMARK    6  A    between atoms: C_18  and  C_25
REMARK    7  A    between atoms: C_23  and  O_24
REMARK    8  A    between atoms: C_33  and  O_34
REMARK    9  A    between atoms: O_34  and  C_35
REMARK                            x       y       z     vdW  Elec       q    Type
REMARK                         _______ _______ _______ _____ _____    ______ ____
ROOT
ATOM      1  N   UNL     1      -1.115   2.029   0.010  0.00  0.00    -0.210 N 
ATOM      2  C   UNL     1      -0.807   3.325  -0.308  0.00  0.00    +0.229 C 
ATOM      3  O   UNL     1      -1.493   4.309  -0.135  0.00  0.00    -0.275 OA
ATOM      4  C   UNL     1       0.541   3.265  -0.915  0.00  0.00    +0.077 C 
ATOM      5  C   UNL     1       1.655   4.268  -0.730  0.00  0.00    -0.023 C 
ATOM      6  N   UNL     1       2.884   3.420  -0.898  0.00  0.00    +0.397 N 
ATOM      7  C   UNL     1       2.514   2.014  -0.532  0.00  0.00    +0.071 C 
ATOM      8  C   UNL     1       1.130   2.117  -0.002  0.00  0.00    +0.088 C 
ATOM      9  C   UNL     1      -0.014   1.209   0.009  0.00  0.00    +0.229 C 
ATOM     10  O   UNL     1       0.004  -0.003   0.013  0.00  0.00    -0.275 OA
ATOM     11  H   UNL     1       3.222   3.469  -1.944  0.00  0.00    -0.083 HD
ATOM     12  H   UNL     1       3.680   3.793  -0.237  0.00  0.00    -0.083 HD
ENDROOT
BRANCH   5  13
ATOM     13  C   UNL     1       1.593   5.338  -1.789  0.00  0.00    -0.018 A 
ATOM     14  C   UNL     1       2.359   5.223  -2.934  0.00  0.00    +0.021 A 
ATOM     15  C   UNL     1       2.299   6.203  -3.909  0.00  0.00    +0.018 A 
ATOM     16  C   UNL     1       1.480   7.304  -3.736  0.00  0.00    +0.019 A 
ATOM     17  C   UNL     1       0.717   7.426  -2.591  0.00  0.00    +0.047 A 
ATOM     18  C   UNL     1       0.772   6.442  -1.614  0.00  0.00    +0.122 A 
ATOM     19 BR   UNL     1       3.344   6.039  -5.476  0.00  0.00    -0.050 Br
BRANCH  18  20
ATOM     20  O   UNL     1       0.022   6.560  -0.487  0.00  0.00    -0.495 OA
ATOM     21  C   UNL     1      -0.801   7.723  -0.373  0.00  0.00    +0.277 C 
ENDBRANCH  18  20
ENDBRANCH   5  13
BRANCH   1  25
ATOM     22  C   UNL     1      -4.974   0.723   0.895  0.00  0.00    +0.017 A 
ATOM     23  C   UNL     1      -4.743   2.067   0.575  0.00  0.00    +0.013 A 
ATOM     24  C   UNL     1      -3.467   2.493   0.284  0.00  0.00    +0.024 A 
ATOM     25  C   UNL     1      -2.408   1.591   0.307  0.00  0.00    +0.044 A 
ATOM     26  C   UNL     1      -2.633   0.254   0.618  0.00  0.00    +0.024 A 
ATOM     27  C   UNL     1      -3.904  -0.180   0.916  0.00  0.00    +0.013 A 
BRANCH  22  29
ATOM     28  C   UNL     1      -6.601  -1.203   1.428  0.00  0.00    +0.091 C 
ATOM     29  C   UNL     1      -6.334   0.263   1.207  0.00  0.00    +0.160 C 
ATOM     30  O   UNL     1      -7.242   1.063   1.286  0.00  0.00    -0.292 OA
ENDBRANCH  22  29
ENDBRANCH   1  25
BRANCH   7  31
ATOM     31  C   UNL     1       3.444   1.485   0.529  0.00  0.00    +0.348 C 
ATOM     32  O   UNL     1       3.010   0.806   1.429  0.00  0.00    -0.248 OA
ATOM     33  O   UNL     1       4.755   1.768   0.474  0.00  0.00    -0.248 OA
ENDBRANCH   7  31
BRANCH   7  34
ATOM     34  C   UNL     1       2.546   1.114  -1.769  0.00  0.00    +0.155 C 
BRANCH  34  35
ATOM     35  O   UNL     1       3.885   1.029  -2.261  0.00  0.00    -0.396 OA
ATOM     36  H   UNL     1       4.106   0.422  -3.151  0.00  0.00    +0.209 HD
ENDBRANCH  34  35
ENDBRANCH   7  34
TORSDOF 7
