REMARK  Name = ZINC52906612
REMARK  4 active torsions:
REMARK  status: ('A' for Active; 'I' for Inactive)
REMARK    1  A    between atoms: C_3  and  O_12
REMARK    2  A    between atoms: C_4  and  C_8
REMARK    3  A    between atoms: N_9  and  O_10
REMARK    4  A    between atoms: O_12  and  C_13
REMARK                            x       y       z     vdW  Elec       q    Type
REMARK                         _______ _______ _______ _____ _____    ______ ____
ROOT
ATOM      1  C   UNL     1       0.138   1.319  -1.012  0.00  0.00    +0.005 A 
ATOM      2  C   UNL     1       1.269   2.053  -0.711  0.00  0.00    +0.047 A 
ATOM      3  C   UNL     1       2.431   1.409  -0.317  0.00  0.00    +0.140 A 
ATOM      4  C   UNL     1       2.454   0.011  -0.225  0.00  0.00    +0.078 A 
ATOM      5  C   UNL     1       1.305  -0.720  -0.531  0.00  0.00    +0.055 A 
ATOM      6  C   UNL     1       0.155  -0.062  -0.922  0.00  0.00    +0.021 A 
ATOM      7 CL   UNL     1       1.322  -2.452  -0.420  0.00  0.00    -0.083 Cl
ENDROOT
BRANCH   4   8
ATOM      8  C   UNL     1       3.689  -0.686   0.195  0.00  0.00    +0.167 C 
ATOM      9  N   UNL     1       3.904  -0.927   1.456  0.00  0.00    -0.071 NA
ATOM     10  N   UNL     1       4.616  -1.082  -0.754  0.00  0.00    -0.340 N 
ATOM     11  H   UNL     1       4.456  -0.902  -1.694  0.00  0.00    +0.144 HD
ATOM     12  H   UNL     1       5.426  -1.539  -0.479  0.00  0.00    +0.144 HD
BRANCH   9  13
ATOM     13  O   UNL     1       2.956  -0.521   2.426  0.00  0.00    -0.408 OA
ATOM     14  H   UNL     1       3.202  -0.744   3.334  0.00  0.00    +0.328 HD
ENDBRANCH   9  13
ENDBRANCH   4   8
BRANCH   3  15
ATOM     15  O   UNL     1       3.543   2.129  -0.022  0.00  0.00    -0.455 OA
BRANCH  15  16
ATOM     16  C   UNL     1       3.470   3.483  -0.119  0.00  0.00    +0.129 A 
ATOM     17  C   UNL     1       3.088   4.239   0.980  0.00  0.00    +0.047 A 
ATOM     18  C   UNL     1       3.015   5.614   0.879  0.00  0.00    +0.019 A 
ATOM     19  C   UNL     1       3.322   6.239  -0.317  0.00  0.00    +0.018 A 
ATOM     20  C   UNL     1       3.703   5.487  -1.414  0.00  0.00    +0.019 A 
ATOM     21  C   UNL     1       3.784   4.111  -1.315  0.00  0.00    +0.047 A 
ATOM     22 BR   UNL     1       3.220   8.122  -0.452  0.00  0.00    -0.050 Br
ENDBRANCH  15  16
ENDBRANCH   3  15
TORSDOF 4
