REMARK  Name = ZINC13572760
REMARK  10 active torsions:
REMARK  status: ('A' for Active; 'I' for Inactive)
REMARK    1  A    between atoms: C_1  and  C_2
REMARK    2  A    between atoms: C_3  and  C_20
REMARK    3  A    between atoms: C_6  and  O_12
REMARK    4  A    between atoms: O_12  and  C_13
REMARK    5  A    between atoms: C_13  and  C_14
REMARK    6  A    between atoms: C_20  and  C_21
REMARK    7  A    between atoms: C_21  and  N_22
REMARK    8  A    between atoms: C_23  and  C_24
REMARK    9  A    between atoms: C_23  and  C_38
REMARK   10  A    between atoms: C_28  and  C_32
REMARK                            x       y       z     vdW  Elec       q    Type
REMARK                         _______ _______ _______ _____ _____    ______ ____
ROOT
ATOM      1  C   UNL     1      -0.118   1.566   0.021  0.00  0.00    +0.063 C 
ATOM      2  C   UNL     1      -0.099   0.059   0.021  0.00  0.00    +0.017 A 
ATOM      3  C   UNL     1      -0.093  -0.712  -1.079  0.00  0.00    -0.018 A 
ATOM      4  C   UNL     1      -0.074  -2.105  -0.626  0.00  0.00    +0.007 A 
ATOM      5  C   UNL     1      -0.060  -3.337  -1.282  0.00  0.00    +0.056 A 
ATOM      6  C   UNL     1      -0.043  -4.503  -0.544  0.00  0.00    +0.122 A 
ATOM      7  C   UNL     1      -0.039  -4.453   0.848  0.00  0.00    +0.048 A 
ATOM      8  C   UNL     1      -0.052  -3.243   1.506  0.00  0.00    +0.030 A 
ATOM      9  C   UNL     1      -0.069  -2.057   0.780  0.00  0.00    +0.047 A 
ATOM     10  N   UNL     1      -0.080  -0.726   1.141  0.00  0.00    -0.358 N 
ATOM     11  H   UNL     1      -0.076  -0.396   2.053  0.00  0.00    +0.166 HD
ENDROOT
BRANCH   6  12
ATOM     12  O   UNL     1      -0.030  -5.706  -1.178  0.00  0.00    -0.487 OA
BRANCH  12  13
ATOM     13  C   UNL     1      -0.013  -6.874  -0.354  0.00  0.00    +0.264 C 
BRANCH  13  14
ATOM     14  C   UNL     1      -0.000  -8.103  -1.225  0.00  0.00    -0.010 A 
ATOM     15  C   UNL     1      -1.192  -8.679  -1.625  0.00  0.00    +0.007 A 
ATOM     16  C   UNL     1      -1.180  -9.807  -2.424  0.00  0.00    +0.000 A 
ATOM     17  C   UNL     1       0.023 -10.359  -2.823  0.00  0.00    +0.000 A 
ATOM     18  C   UNL     1       1.214  -9.783  -2.424  0.00  0.00    +0.000 A 
ATOM     19  C   UNL     1       1.203  -8.652  -1.629  0.00  0.00    +0.007 A 
ENDBRANCH  13  14
ENDBRANCH  12  13
ENDBRANCH   6  12
BRANCH   3  20
ATOM     20  C   UNL     1      -0.105  -0.234  -2.508  0.00  0.00    +0.060 C 
BRANCH  20  21
ATOM     21  C   UNL     1       1.333  -0.054  -2.997  0.00  0.00    +0.146 C 
BRANCH  21  22
ATOM     22  N   UNL     1       1.322   0.410  -4.387  0.00  0.00    -0.287 NA
ATOM     23  C   UNL     1       1.782   1.585  -4.681  0.00  0.00    +0.047 C 
ATOM     24  C   UNL     1       2.435   2.428  -3.615  0.00  0.00    +0.066 C 
BRANCH  23  25
ATOM     25  C   UNL     1       1.667   2.097  -6.056  0.00  0.00    +0.080 C 
ATOM     26  C   UNL     1       2.514   1.599  -7.045  0.00  0.00    +0.169 C 
ATOM     27  O   UNL     1       3.339   0.745  -6.761  0.00  0.00    -0.292 OA
ATOM     28  C   UNL     1       2.422   2.105  -8.461  0.00  0.00    +0.088 C 
ATOM     29  C   UNL     1       0.982   2.538  -8.751  0.00  0.00    +0.034 C 
ATOM     30  C   UNL     1       0.573   3.616  -7.744  0.00  0.00    +0.088 C 
ATOM     31  C   UNL     1       0.709   3.068  -6.347  0.00  0.00    +0.169 C 
ATOM     32  O   UNL     1      -0.023   3.480  -5.461  0.00  0.00    -0.292 OA
BRANCH  29  33
ATOM     33  C   UNL     1       0.896   3.096 -10.149  0.00  0.00    -0.043 A 
ATOM     34  C   UNL     1       1.657   4.194 -10.503  0.00  0.00    +0.004 A 
ATOM     35  C   UNL     1       1.577   4.705 -11.785  0.00  0.00    +0.000 A 
ATOM     36  C   UNL     1       0.737   4.118 -12.713  0.00  0.00    +0.000 A 
ATOM     37  C   UNL     1      -0.024   3.019 -12.358  0.00  0.00    +0.000 A 
ATOM     38  C   UNL     1       0.059   2.505 -11.077  0.00  0.00    +0.004 A 
ENDBRANCH  29  33
ENDBRANCH  23  25
ENDBRANCH  21  22
ENDBRANCH  20  21
ENDBRANCH   3  20
TORSDOF 8
