REMARK  Name = ZINC39685208
REMARK  11 active torsions:
REMARK  status: ('A' for Active; 'I' for Inactive)
REMARK    1  A    between atoms: C_1  and  C_2
REMARK    2  A    between atoms: C_2  and  C_3
REMARK    3  A    between atoms: C_2  and  C_4
REMARK    4  A    between atoms: C_4  and  C_6
REMARK    5  A    between atoms: C_4  and  O_32
REMARK    6  A    between atoms: C_10  and  C_19
REMARK    7  A    between atoms: N_21  and  C_22
REMARK    8  A    between atoms: C_22  and  C_23
REMARK    9  A    between atoms: C_23  and  O_24
REMARK   10  A    between atoms: O_24  and  C_25
REMARK   11  A    between atoms: O_32  and  C_33
REMARK                            x       y       z     vdW  Elec       q    Type
REMARK                         _______ _______ _______ _____ _____    ______ ____
ROOT
ATOM      1  C   UNL     1      -1.288  -2.239  -0.488  0.00  0.00    +0.257 C 
ATOM      2  O   UNL     1      -1.680  -2.886  -1.437  0.00  0.00    -0.272 OA
ATOM      3  N   UNL     1      -0.612  -2.845   0.508  0.00  0.00    -0.297 N 
ATOM      4  C   UNL     1      -0.163  -2.255   1.791  0.00  0.00    +0.121 C 
ATOM      5  C   UNL     1      -0.402  -3.366   2.837  0.00  0.00    +0.100 C 
ATOM      6  C   UNL     1      -0.390  -4.675   2.029  0.00  0.00    -0.004 C 
ATOM      7  C   UNL     1      -0.155  -4.254   0.570  0.00  0.00    +0.115 C 
ATOM      8  C   UNL     1       0.740  -5.581   2.507  0.00  0.00    -0.010 C 
ATOM      9  C   UNL     1       0.695  -6.899   1.728  0.00  0.00    -0.082 C 
ATOM     10  N   UNL     1      -0.604  -7.550   1.939  0.00  0.00    +0.379 N 
ATOM     11  C   UNL     1      -1.678  -6.712   1.392  0.00  0.00    -0.082 C 
ATOM     12  C   UNL     1      -1.734  -5.387   2.157  0.00  0.00    -0.010 C 
ATOM     13  H   UNL     1      -0.608  -8.446   1.475  0.00  0.00    -0.086 HD
ATOM     14  H   UNL     1      -0.754  -7.685   2.927  0.00  0.00    -0.086 HD
ENDROOT
BRANCH   5  15
ATOM     15  C   UNL     1      -1.736  -3.175   3.510  0.00  0.00    +0.218 C 
ATOM     16  O   UNL     1      -2.654  -2.662   2.905  0.00  0.00    -0.275 OA
ATOM     17  N   UNL     1      -1.911  -3.574   4.786  0.00  0.00    -0.312 N 
ATOM     18  H   UNL     1      -1.177  -3.983   5.271  0.00  0.00    +0.149 HD
BRANCH  17  19
ATOM     19  C   UNL     1      -3.208  -3.388   5.441  0.00  0.00    +0.145 C 
BRANCH  19  20
ATOM     20  C   UNL     1      -3.137  -3.921   6.873  0.00  0.00    +0.248 C 
BRANCH  20  21
ATOM     21  O   UNL     1      -2.215  -3.134   7.630  0.00  0.00    -0.488 OA
BRANCH  21  22
ATOM     22  C   UNL     1      -2.034  -3.478   8.933  0.00  0.00    +0.156 A 
ATOM     23  C   UNL     1      -2.725  -4.554   9.470  0.00  0.00    +0.048 A 
ATOM     24  C   UNL     1      -2.539  -4.902  10.794  0.00  0.00    +0.004 A 
ATOM     25  C   UNL     1      -1.666  -4.178  11.585  0.00  0.00    +0.003 A 
ATOM     26  C   UNL     1      -0.976  -3.104  11.054  0.00  0.00    +0.042 A 
ATOM     27  C   UNL     1      -1.153  -2.756   9.727  0.00  0.00    +0.165 A 
ATOM     28  F   UNL     1      -0.474  -1.710   9.206  0.00  0.00    -0.202 F 
ENDBRANCH  21  22
ENDBRANCH  20  21
ENDBRANCH  19  20
ENDBRANCH  17  19
ENDBRANCH   5  15
BRANCH   1  29
ATOM     29  C   UNL     1      -1.558  -0.758  -0.424  0.00  0.00    +0.261 C 
BRANCH  29  31
ATOM     30  C   UNL     1      -3.213   0.983   0.263  0.00  0.00    +0.011 C 
ATOM     31  C   UNL     1      -2.974  -0.520   0.103  0.00  0.00    +0.033 C 
ATOM     32  C   UNL     1      -3.990  -1.095  -0.885  0.00  0.00    +0.011 C 
ENDBRANCH  29  31
BRANCH  29  33
ATOM     33  O   UNL     1      -0.613  -0.139   0.451  0.00  0.00    -0.479 OA
BRANCH  33  34
ATOM     34  C   UNL     1      -0.143   1.083   0.088  0.00  0.00    +0.122 A 
ATOM     35  C   UNL     1       0.834   1.707   0.850  0.00  0.00    +0.045 A 
ATOM     36  C   UNL     1       1.310   2.949   0.478  0.00  0.00    +0.004 A 
ATOM     37  C   UNL     1       0.813   3.571  -0.652  0.00  0.00    +0.000 A 
ATOM     38  C   UNL     1      -0.161   2.952  -1.414  0.00  0.00    +0.004 A 
ATOM     39  C   UNL     1      -0.636   1.707  -1.049  0.00  0.00    +0.045 A 
ENDBRANCH  33  34
ENDBRANCH  29  33
ENDBRANCH   1  29
TORSDOF 9
