REMARK  Name = ZINC01556312
REMARK  11 active torsions:
REMARK  status: ('A' for Active; 'I' for Inactive)
REMARK    1  A    between atoms: C_1  and  C_2
REMARK    2  A    between atoms: C_5  and  C_8
REMARK    3  A    between atoms: C_8  and  C_9
REMARK    4  A    between atoms: C_11  and  N_26
REMARK    5  A    between atoms: C_13  and  N_15
REMARK    6  A    between atoms: N_15  and  S_16
REMARK    7  A    between atoms: S_16  and  C_19
REMARK    8  A    between atoms: C_22  and  C_25
REMARK    9  A    between atoms: N_26  and  S_27
REMARK   10  A    between atoms: S_27  and  C_30
REMARK   11  A    between atoms: C_33  and  C_36
REMARK                            x       y       z     vdW  Elec       q    Type
REMARK                         _______ _______ _______ _____ _____    ______ ____
ROOT
ATOM      1  C   UNL     1      -0.079   3.670   4.519  0.00  0.00    -0.039 A 
ATOM      2  C   UNL     1       0.368   4.894   4.058  0.00  0.00    +0.028 A 
ATOM      3  C   UNL     1       0.038   5.318   2.777  0.00  0.00    +0.050 A 
ATOM      4  C   UNL     1      -0.742   4.512   1.960  0.00  0.00    +0.049 A 
ATOM      5  C   UNL     1      -1.189   3.283   2.426  0.00  0.00    +0.050 A 
ATOM      6  C   UNL     1      -0.860   2.867   3.710  0.00  0.00    +0.028 A 
ENDROOT
BRANCH   5   7
ATOM      7  N   UNL     1      -1.974   2.469   1.607  0.00  0.00    -0.216 N 
ATOM      8  H   UNL     1      -2.765   2.038   1.967  0.00  0.00    +0.174 HD
BRANCH   7   9
ATOM      9  S   UNL     1      -1.554   2.238   0.022  0.00  0.00    +0.072 S 
ATOM     10  O   UNL     1      -1.304   3.526  -0.523  0.00  0.00    -0.150 OA
ATOM     11  O   UNL     1      -2.519   1.353  -0.529  0.00  0.00    -0.150 OA
BRANCH   9  12
ATOM     12  C   UNL     1      -0.017   1.378   0.010  0.00  0.00    +0.109 A 
ATOM     13  C   UNL     1       1.171   2.086   0.002  0.00  0.00    +0.029 A 
ATOM     14  C   UNL     1       2.377   1.411  -0.015  0.00  0.00    +0.005 A 
ATOM     15  C   UNL     1       2.396   0.029  -0.022  0.00  0.00    -0.050 A 
ATOM     16  C   UNL     1       1.208  -0.679  -0.013  0.00  0.00    +0.005 A 
ATOM     17  C   UNL     1       0.002  -0.004   0.002  0.00  0.00    +0.029 A 
ATOM     18  C   UNL     1       3.711  -0.707  -0.038  0.00  0.00    +0.044 C 
ENDBRANCH   9  12
ENDBRANCH   7   9
ENDBRANCH   5   7
BRANCH   3  19
ATOM     19  N   UNL     1       0.489   6.555   2.312  0.00  0.00    -0.216 N 
ATOM     20  H   UNL     1       1.411   6.821   2.456  0.00  0.00    +0.174 HD
BRANCH  19  21
ATOM     21  S   UNL     1      -0.549   7.570   1.515  0.00  0.00    +0.072 S 
ATOM     22  O   UNL     1       0.191   8.741   1.198  0.00  0.00    -0.150 OA
ATOM     23  O   UNL     1      -1.199   6.787   0.522  0.00  0.00    -0.150 OA
BRANCH  21  24
ATOM     24  C   UNL     1      -1.791   8.054   2.667  0.00  0.00    +0.109 A 
ATOM     25  C   UNL     1      -2.948   7.309   2.790  0.00  0.00    +0.029 A 
ATOM     26  C   UNL     1      -3.921   7.687   3.697  0.00  0.00    +0.005 A 
ATOM     27  C   UNL     1      -3.740   8.816   4.474  0.00  0.00    -0.050 A 
ATOM     28  C   UNL     1      -2.584   9.564   4.347  0.00  0.00    +0.005 A 
ATOM     29  C   UNL     1      -1.610   9.184   3.444  0.00  0.00    +0.029 A 
ATOM     30  C   UNL     1      -4.802   9.230   5.459  0.00  0.00    +0.044 C 
ENDBRANCH  21  24
ENDBRANCH  19  21
ENDBRANCH   3  19
BRANCH   1  31
ATOM     31  C   UNL     1       0.281   3.213   5.909  0.00  0.00    +0.070 C 
BRANCH  31  36
ATOM     32  C   UNL     1      -3.759   5.007   9.631  0.00  0.00    +0.044 C 
ATOM     33  C   UNL     1      -2.705   4.539   8.661  0.00  0.00    -0.050 A 
ATOM     34  C   UNL     1      -2.834   3.311   8.041  0.00  0.00    +0.003 A 
ATOM     35  C   UNL     1      -1.867   2.881   7.150  0.00  0.00    +0.004 A 
ATOM     36  C   UNL     1      -0.772   3.681   6.880  0.00  0.00    -0.043 A 
ATOM     37  C   UNL     1      -0.641   4.907   7.505  0.00  0.00    +0.004 A 
ATOM     38  C   UNL     1      -1.610   5.338   8.392  0.00  0.00    +0.003 A 
ENDBRANCH  31  36
ENDBRANCH   1  31
TORSDOF 8
