REMARK  Name = ZINC63715691
REMARK  7 active torsions:
REMARK  status: ('A' for Active; 'I' for Inactive)
REMARK    1  A    between atoms: C_1  and  C_2
REMARK    2  A    between atoms: C_5  and  N_12
REMARK    3  A    between atoms: C_13  and  C_15
REMARK    4  A    between atoms: C_15  and  C_16
REMARK    5  A    between atoms: C_15  and  N_17
REMARK    6  A    between atoms: C_18  and  C_20
REMARK    7  A    between atoms: C_21  and  C_22
REMARK                            x       y       z     vdW  Elec       q    Type
REMARK                         _______ _______ _______ _____ _____    ______ ____
ROOT
ATOM      1  N   UNL     1       0.059  -4.191  -0.064  0.00  0.00    -0.282 N 
ATOM      2  C   UNL     1      -0.041  -4.838  -1.242  0.00  0.00    +0.237 C 
ATOM      3  O   UNL     1      -0.054  -4.210  -2.280  0.00  0.00    -0.273 OA
ATOM      4  H   UNL     1       0.135  -4.695   0.761  0.00  0.00    +0.155 HD
ENDROOT
BRANCH   1   9
ATOM      5  C   UNL     1       0.059   1.503   0.013  0.00  0.00    +0.044 C 
ATOM      6  C   UNL     1       0.053  -0.004   0.003  0.00  0.00    -0.040 A 
ATOM      7  C   UNL     1       0.635  -0.681  -1.029  0.00  0.00    +0.006 A 
ATOM      8  C   UNL     1       0.639  -2.070  -1.054  0.00  0.00    +0.026 A 
ATOM      9  C   UNL     1       0.052  -2.792  -0.032  0.00  0.00    +0.059 A 
ATOM     10  C   UNL     1      -0.549  -2.116   1.034  0.00  0.00    +0.087 A 
ATOM     11  C   UNL     1      -0.545  -0.710   1.056  0.00  0.00    +0.024 A 
ATOM     12  C   UNL     1      -1.210  -0.315   2.242  0.00  0.00    +0.143 A 
ATOM     13  N   UNL     1      -1.581  -1.382   2.887  0.00  0.00    -0.181 NA
ATOM     14  N   UNL     1      -1.199  -2.524   2.171  0.00  0.00    -0.275 N 
ATOM     15  H   UNL     1      -1.358  -3.443   2.438  0.00  0.00    +0.189 HD
ENDBRANCH   1   9
BRANCH   2  16
ATOM     16  C   UNL     1      -0.134  -6.342  -1.270  0.00  0.00    +0.156 C 
ATOM     17  C   UNL     1       1.115  -6.943  -0.623  0.00  0.00    +0.038 C 
BRANCH  16  18
ATOM     18  N   UNL     1      -0.233  -6.800  -2.659  0.00  0.00    -0.301 N 
ATOM     19  C   UNL     1      -0.814  -7.983  -2.939  0.00  0.00    +0.237 C 
ATOM     20  O   UNL     1      -1.258  -8.671  -2.038  0.00  0.00    -0.271 OA
ATOM     21  H   UNL     1       0.121  -6.251  -3.376  0.00  0.00    +0.150 HD
BRANCH  19  22
ATOM     22  C   UNL     1      -0.912  -8.440  -4.326  0.00  0.00    +0.068 C 
ATOM     23  C   UNL     1      -1.494  -9.623  -4.607  0.00  0.00    +0.013 C 
BRANCH  23  24
ATOM     24  C   UNL     1      -1.593 -10.083  -6.002  0.00  0.00    -0.025 A 
ATOM     25  C   UNL     1      -1.079  -9.297  -7.038  0.00  0.00    +0.008 A 
ATOM     26  C   UNL     1      -1.176  -9.735  -8.342  0.00  0.00    +0.001 A 
ATOM     27  C   UNL     1      -1.779 -10.948  -8.627  0.00  0.00    +0.000 A 
ATOM     28  C   UNL     1      -2.290 -11.731  -7.606  0.00  0.00    +0.001 A 
ATOM     29  C   UNL     1      -2.196 -11.310  -6.296  0.00  0.00    +0.008 A 
ENDBRANCH  23  24
ENDBRANCH  19  22
ENDBRANCH  16  18
ENDBRANCH   2  16
TORSDOF 5
