REMARK  Name = ZINC41648713
REMARK  5 active torsions:
REMARK  status: ('A' for Active; 'I' for Inactive)
REMARK    1  A    between atoms: C_1  and  C_2
REMARK    2  A    between atoms: C_2  and  C_4
REMARK    3  A    between atoms: C_2  and  N_12
REMARK    4  A    between atoms: N_12  and  C_13
REMARK    5  A    between atoms: C_18  and  N_19
REMARK                            x       y       z     vdW  Elec       q    Type
REMARK                         _______ _______ _______ _____ _____    ______ ____
ROOT
ATOM      1  N   UNL     1       0.659  -1.183   0.993  0.00  0.00    -0.335 N 
ATOM      2  H   UNL     1       1.592  -1.430   0.895  0.00  0.00    +0.147 HD
ENDROOT
BRANCH   1   3
ATOM      3  C   UNL     1       0.059  -1.200   2.256  0.00  0.00    +0.058 A 
ATOM      4  C   UNL     1      -1.308  -0.991   2.379  0.00  0.00    +0.028 A 
ATOM      5  C   UNL     1      -1.899  -1.008   3.627  0.00  0.00    +0.040 A 
ATOM      6  C   UNL     1      -1.128  -1.234   4.756  0.00  0.00    +0.126 A 
ATOM      7  C   UNL     1       0.235  -1.443   4.635  0.00  0.00    +0.073 A 
ATOM      8  C   UNL     1       0.829  -1.433   3.388  0.00  0.00    +0.150 A 
ATOM      9  F   UNL     1      -1.708  -1.251   5.976  0.00  0.00    -0.205 F 
BRANCH   8  10
ATOM     10  N   UNL     1       2.285  -1.662   3.259  0.00  0.00    +0.058 N 
ATOM     11  O   UNL     1       2.834  -2.474   3.967  0.00  0.00    -0.126 OA
ATOM     12  O   UNL     1       2.926  -1.038   2.446  0.00  0.00    -0.126 OA
ENDBRANCH   8  10
ENDBRANCH   1   3
BRANCH   1  14
ATOM     13  C   UNL     1      -0.113   0.733  -0.317  0.00  0.00    +0.033 C 
ATOM     14  C   UNL     1      -0.121  -0.791  -0.183  0.00  0.00    +0.099 C 
BRANCH  14  15
ATOM     15  C   UNL     1       0.487  -1.406  -1.417  0.00  0.00    -0.014 A 
ATOM     16  C   UNL     1       1.843  -1.673  -1.460  0.00  0.00    +0.007 A 
ATOM     17  C   UNL     1       2.401  -2.238  -2.592  0.00  0.00    +0.015 A 
ATOM     18  C   UNL     1       1.603  -2.537  -3.682  0.00  0.00    +0.019 A 
ATOM     19  C   UNL     1       0.246  -2.270  -3.639  0.00  0.00    +0.031 A 
ATOM     20  C   UNL     1      -0.313  -1.709  -2.505  0.00  0.00    +0.024 A 
ATOM     21 BR   UNL     1      -2.168  -1.351  -2.443  0.00  0.00    -0.050 Br
ATOM     22 BR   UNL     1       2.366  -3.309  -5.230  0.00  0.00    -0.050 Br
ENDBRANCH  14  15
ENDBRANCH   1  14
TORSDOF 4
