REMARK  Name = ZINC09672707
REMARK  9 active torsions:
REMARK  status: ('A' for Active; 'I' for Inactive)
REMARK    1  A    between atoms: C_1  and  C_2
REMARK    2  A    between atoms: C_4  and  C_18
REMARK    3  A    between atoms: C_5  and  C_17
REMARK    4  A    between atoms: N_6  and  C_7
REMARK    5  A    between atoms: C_10  and  S_13
REMARK    6  A    between atoms: S_13  and  N_16
REMARK    7  A    between atoms: C_18  and  C_20
REMARK    8  A    between atoms: C_20  and  N_59
REMARK    9  A    between atoms: C_26  and  C_28
REMARK                            x       y       z     vdW  Elec       q    Type
REMARK                         _______ _______ _______ _____ _____    ______ ____
ROOT
ATOM      1  C   UNL     1      -9.944   1.773   5.338  0.00  0.00    +0.064 C 
ATOM      2  C   UNL     1      -8.596   1.854   6.007  0.00  0.00    +0.022 A 
ATOM      3  C   UNL     1      -8.341   2.471   7.173  0.00  0.00    +0.034 A 
ATOM      4  C   UNL     1      -6.904   2.300   7.427  0.00  0.00    +0.037 A 
ATOM      5  C   UNL     1      -6.414   1.569   6.361  0.00  0.00    +0.031 A 
ATOM      6  N   UNL     1      -7.438   1.309   5.525  0.00  0.00    -0.317 N 
ATOM      7  C   UNL     1      -4.983   1.138   6.168  0.00  0.00    +0.064 C 
ENDROOT
BRANCH   6   8
ATOM      8  C   UNL     1      -7.331   0.587   4.329  0.00  0.00    +0.047 A 
ATOM      9  C   UNL     1      -7.980  -0.632   4.192  0.00  0.00    +0.028 A 
ATOM     10  C   UNL     1      -7.872  -1.342   3.012  0.00  0.00    +0.030 A 
ATOM     11  C   UNL     1      -7.118  -0.839   1.968  0.00  0.00    +0.105 A 
ATOM     12  C   UNL     1      -6.466   0.373   2.103  0.00  0.00    +0.030 A 
ATOM     13  C   UNL     1      -6.575   1.090   3.279  0.00  0.00    +0.028 A 
BRANCH  11  14
ATOM     14  S   UNL     1      -6.982  -1.747   0.464  0.00  0.00    +0.056 S 
ATOM     15  O   UNL     1      -7.234  -3.108   0.787  0.00  0.00    -0.153 OA
ATOM     16  O   UNL     1      -5.778  -1.323  -0.160  0.00  0.00    -0.153 OA
BRANCH  14  17
ATOM     17  N   UNL     1      -8.222  -1.256  -0.518  0.00  0.00    -0.204 NA
ATOM     18  H   UNL     1      -8.880  -1.899  -0.827  0.00  0.00    +0.144 HD
ATOM     19  H   UNL     1      -8.291  -0.326  -0.784  0.00  0.00    +0.144 HD
ENDBRANCH  14  17
ENDBRANCH  11  14
ENDBRANCH   6   8
BRANCH   4  20
ATOM     20  C   UNL     1      -6.146   2.803   8.575  0.00  0.00    +0.149 C 
ATOM     21  O   UNL     1      -4.955   2.586   8.657  0.00  0.00    -0.294 OA
BRANCH  20  22
ATOM     22  C   UNL     1      -6.845   3.588   9.655  0.00  0.00    +0.002 C 
BRANCH  22  30
ATOM     23  C   UNL     1      -5.351   2.793  11.386  0.00  0.00    -0.059 C 
ATOM     24  C   UNL     1      -4.215   3.220  12.322  0.00  0.00    +0.089 C 
ATOM     25  N   UNL     1      -4.709   4.293  13.198  0.00  0.00    -0.301 N 
ATOM     26  C   UNL     1      -5.370   5.450  12.575  0.00  0.00    +0.089 C 
ATOM     27  C   UNL     1      -6.461   4.936  11.629  0.00  0.00    -0.059 C 
ATOM     28  C   UNL     1      -4.559   4.219  14.535  0.00  0.00    +0.253 C 
ATOM     29  O   UNL     1      -4.925   5.141  15.240  0.00  0.00    -0.269 OA
ATOM     30  N   UNL     1      -5.851   3.988  10.671  0.00  0.00    +0.387 N 
ATOM     31  H   UNL     1      -5.062   4.450  10.203  0.00  0.00    -0.081 HD
BRANCH  28  32
ATOM     32  C   UNL     1      -3.957   3.028  15.140  0.00  0.00    +0.074 A 
ATOM     33  C   UNL     1      -4.225   2.441  16.367  0.00  0.00    +0.021 A 
ATOM     34  C   UNL     1      -3.509   1.315  16.691  0.00  0.00    +0.008 A 
ATOM     35  C   UNL     1      -2.583   0.843  15.816  0.00  0.00    +0.046 A 
ATOM     36  S   UNL     1      -2.683   1.960  14.493  0.00  0.00    -0.092 S 
ENDBRANCH  28  32
ENDBRANCH  22  30
ENDBRANCH  20  22
ENDBRANCH   4  20
TORSDOF 7
