REMARK  Name = ZINC15934830
REMARK  9 active torsions:
REMARK  status: ('A' for Active; 'I' for Inactive)
REMARK    1  A    between atoms: C_1  and  C_2
REMARK    2  A    between atoms: C_2  and  C_3
REMARK    3  A    between atoms: C_4  and  C_28
REMARK    4  A    between atoms: C_5  and  C_9
REMARK    5  A    between atoms: C_15  and  N_18
REMARK    6  A    between atoms: N_18  and  C_19
REMARK    7  A    between atoms: C_22  and  C_25
REMARK    8  A    between atoms: C_25  and  C_26
REMARK    9  A    between atoms: C_25  and  C_27
REMARK                            x       y       z     vdW  Elec       q    Type
REMARK                         _______ _______ _______ _____ _____    ______ ____
ROOT
ATOM      1  C   UNL     1       1.038  -1.579  -4.706  0.00  0.00    +0.265 C 
ATOM      2  O   UNL     1      -0.054  -1.656  -5.238  0.00  0.00    -0.268 OA
ATOM      3  N   UNL     1       2.151  -1.864  -5.410  0.00  0.00    -0.295 N 
ATOM      4  C   UNL     1       3.466  -1.887  -4.754  0.00  0.00    +0.108 C 
ATOM      5  C   UNL     1       4.417  -0.964  -5.523  0.00  0.00    +0.021 C 
ATOM      6  C   UNL     1       4.442  -1.377  -6.996  0.00  0.00    +0.025 C 
ATOM      7  C   UNL     1       3.040  -1.231  -7.593  0.00  0.00    +0.088 C 
ATOM      8  C   UNL     1       2.073  -2.163  -6.846  0.00  0.00    +0.130 C 
ENDROOT
BRANCH   1  11
ATOM      9  C   UNL     1       1.393  -1.158  -1.098  0.00  0.00    +0.066 A 
ATOM     10  C   UNL     1       1.384  -2.002  -2.211  0.00  0.00    +0.002 A 
ATOM     11  C   UNL     1       1.142  -1.176  -3.295  0.00  0.00    +0.123 A 
ATOM     12  N   UNL     1       1.020   0.088  -2.792  0.00  0.00    -0.272 N 
ATOM     13  H   UNL     1       0.847   0.885  -3.318  0.00  0.00    +0.189 HD
ATOM     14  N   UNL     1       1.166   0.061  -1.516  0.00  0.00    -0.178 NA
ATOM     15  C   UNL     1       1.595  -3.494  -2.228  0.00  0.00    +0.048 C 
BRANCH   9  17
ATOM     16  C   UNL     1       0.273  -1.927   0.977  0.00  0.00    +0.010 C 
ATOM     17  C   UNL     1       1.616  -1.578   0.332  0.00  0.00    +0.054 C 
ENDBRANCH   9  17
ENDBRANCH   1  11
BRANCH   7  18
ATOM     18  N   UNL     1       3.072  -1.595  -9.011  0.00  0.00    -0.339 N 
ATOM     19  H   UNL     1       3.757  -2.197  -9.342  0.00  0.00    +0.146 HD
BRANCH  18  20
ATOM     20  C   UNL     1       2.116  -1.076  -9.887  0.00  0.00    +0.027 A 
ATOM     21  C   UNL     1       1.138  -0.209  -9.416  0.00  0.00    +0.023 A 
ATOM     22  C   UNL     1       0.195   0.302 -10.286  0.00  0.00    +0.006 A 
ATOM     23  C   UNL     1       0.223  -0.047 -11.623  0.00  0.00    -0.045 A 
ATOM     24  C   UNL     1       1.195  -0.910 -12.095  0.00  0.00    +0.006 A 
ATOM     25  C   UNL     1       2.145  -1.421 -11.233  0.00  0.00    +0.023 A 
BRANCH  23  26
ATOM     26  C   UNL     1      -0.808   0.513 -12.569  0.00  0.00    +0.013 C 
ATOM     27  C   UNL     1      -0.110   1.310 -13.671  0.00  0.00    +0.012 C 
ATOM     28  C   UNL     1      -1.603  -0.635 -13.194  0.00  0.00    +0.012 C 
ENDBRANCH  23  26
ENDBRANCH  18  20
ENDBRANCH   7  18
TORSDOF 5
