REMARK  Name = ZINC39749900
REMARK  11 active torsions:
REMARK  status: ('A' for Active; 'I' for Inactive)
REMARK    1  A    between atoms: C_1  and  C_2
REMARK    2  A    between atoms: C_2  and  C_4
REMARK    3  A    between atoms: C_2  and  S_12
REMARK    4  A    between atoms: C_4  and  N_6
REMARK    5  A    between atoms: S_12  and  C_13
REMARK    6  A    between atoms: C_16  and  CA_24
REMARK    7  A    between atoms: N_17  and  C_18
REMARK    8  A    between atoms: CA_24  and  C_26
REMARK    9  A    between atoms: CA_24  and  N_28
REMARK   10  A    between atoms: C_26  and  O_27
REMARK   11  A    between atoms: C_29  and  C_31
REMARK                            x       y       z     vdW  Elec       q    Type
REMARK                         _______ _______ _______ _____ _____    ______ ____
ROOT
ATOM      1  C   UNL     1      -0.189  -0.057  -2.809  0.00  0.00    +0.197 A 
ATOM      2  N   UNL     1      -1.312   0.614  -2.696  0.00  0.00    -0.122 NA
ATOM      3  N   UNL     1      -1.809   0.835  -3.860  0.00  0.00    -0.131 NA
ATOM      4  C   UNL     1      -1.042   0.323  -4.780  0.00  0.00    +0.161 A 
ATOM      5  N   UNL     1       0.023  -0.259  -4.145  0.00  0.00    -0.273 N 
ENDROOT
BRANCH   5   6
ATOM      6  C   UNL     1       1.103  -0.927  -4.740  0.00  0.00    +0.050 A 
ATOM      7  C   UNL     1       1.994  -0.229  -5.545  0.00  0.00    +0.026 A 
ATOM      8  C   UNL     1       3.057  -0.889  -6.129  0.00  0.00    +0.002 A 
ATOM      9  C   UNL     1       3.234  -2.243  -5.914  0.00  0.00    +0.000 A 
ATOM     10  C   UNL     1       2.349  -2.941  -5.114  0.00  0.00    +0.002 A 
ATOM     11  C   UNL     1       1.287  -2.285  -4.522  0.00  0.00    +0.026 A 
ENDBRANCH   5   6
BRANCH   1  12
ATOM     12  S   UNL     1       0.851  -0.589  -1.490  0.00  0.00    -0.073 S 
BRANCH  12  14
ATOM     13  C   UNL     1      -0.019   1.526   0.010  0.00  0.00    +0.029 C 
ATOM     14  C   UNL     1       0.002  -0.004   0.002  0.00  0.00    +0.139 C 
BRANCH  14  15
ATOM     15  C   UNL     1       0.731  -0.503   1.223  0.00  0.00    +0.251 C 
ATOM     16  O   UNL     1       1.914  -0.776   1.156  0.00  0.00    -0.272 OA
BRANCH  15  17
ATOM     17  N   UNL     1       0.080  -0.646   2.375  0.00  0.00    -0.158 NA
ATOM     18  C   UNL     1       0.722  -1.085   3.451  0.00  0.00    +0.146 C 
ATOM     19  N   UNL     1       0.184  -1.281   4.676  0.00  0.00    -0.325 N 
ATOM     20  C   UNL     1       1.011  -1.767   5.761  0.00  0.00    +0.114 C 
ATOM     21  C   UNL     1       2.465  -1.995   5.295  0.00  0.00    +0.095 C 
ATOM     22  S   UNL     1       2.343  -1.505   3.531  0.00  0.00    -0.092 S 
ATOM     23  H   UNL     1      -0.755  -1.094   4.828  0.00  0.00    +0.148 HD
ENDBRANCH  15  17
ENDBRANCH  14  15
ENDBRANCH  12  14
ENDBRANCH   1  12
BRANCH   4  24
ATOM     24  CA  UNL     1      -1.279   0.369  -6.268  0.00  0.00    +0.167 C 
BRANCH  24  25
ATOM     25  N   UNL     1      -1.686   1.722  -6.656  0.00  0.00    -0.299 N 
ATOM     26  C   UNL     1      -1.473   2.155  -7.915  0.00  0.00    +0.247 C 
ATOM     27  O   UNL     1      -0.943   1.423  -8.728  0.00  0.00    -0.270 OA
ATOM     28  H   UNL     1      -2.108   2.306  -6.008  0.00  0.00    +0.150 HD
BRANCH  26  29
ATOM     29  C   UNL     1      -1.883   3.518  -8.306  0.00  0.00    +0.072 A 
ATOM     30  C   UNL     1      -2.487   4.365  -7.373  0.00  0.00    +0.016 A 
ATOM     31  C   UNL     1      -2.867   5.636  -7.745  0.00  0.00    +0.001 A 
ATOM     32  C   UNL     1      -2.652   6.077  -9.040  0.00  0.00    +0.003 A 
ATOM     33  C   UNL     1      -2.056   5.248  -9.970  0.00  0.00    +0.039 A 
ATOM     34  C   UNL     1      -1.663   3.971  -9.611  0.00  0.00    +0.135 A 
ATOM     35  F   UNL     1      -1.075   3.162 -10.519  0.00  0.00    -0.205 F 
ENDBRANCH  26  29
ENDBRANCH  24  25
BRANCH  24  36
ATOM     36  C   UNL     1      -2.383  -0.622  -6.639  0.00  0.00    +0.186 C 
BRANCH  36  37
ATOM     37  O   UNL     1      -3.553  -0.343  -5.867  0.00  0.00    -0.393 OA
ATOM     38  H   UNL     1      -4.296  -0.934  -6.051  0.00  0.00    +0.209 HD
ENDBRANCH  36  37
ENDBRANCH  24  36
ENDBRANCH   4  24
TORSDOF 10
