REMARK  Name = ZINC37991172
REMARK  6 active torsions:
REMARK  status: ('A' for Active; 'I' for Inactive)
REMARK    1  A    between atoms: C_1  and  C_2
REMARK    2  A    between atoms: C_5  and  N_10
REMARK    3  A    between atoms: C_6  and  C_9
REMARK    4  A    between atoms: C_7  and  O_8
REMARK    5  A    between atoms: N_10  and  S_11
REMARK    6  A    between atoms: S_11  and  C_14
REMARK                            x       y       z     vdW  Elec       q    Type
REMARK                         _______ _______ _______ _____ _____    ______ ____
ROOT
ATOM      1  N   UNL     1       0.059  -4.171  -0.026  0.00  0.00    -0.216 N 
ATOM      2  H   UNL     1      -0.468  -4.658   0.626  0.00  0.00    +0.174 HD
ENDROOT
BRANCH   1   7
ATOM      3  C   UNL     1       0.672   1.451   0.443  0.00  0.00    +0.047 C 
ATOM      4  C   UNL     1       0.509  -0.042   0.320  0.00  0.00    -0.009 A 
ATOM      5  C   UNL     1       0.417  -0.626  -0.930  0.00  0.00    +0.009 A 
ATOM      6  C   UNL     1       0.268  -1.994  -1.047  0.00  0.00    +0.025 A 
ATOM      7  C   UNL     1       0.211  -2.787   0.092  0.00  0.00    +0.054 A 
ATOM      8  C   UNL     1       0.303  -2.203   1.348  0.00  0.00    +0.014 A 
ATOM      9  C   UNL     1       0.458  -0.830   1.461  0.00  0.00    +0.124 A 
ATOM     10  C   UNL     1       0.241  -3.060   2.586  0.00  0.00    +0.049 C 
BRANCH   9  11
ATOM     11  O   UNL     1       0.554  -0.256   2.688  0.00  0.00    -0.506 OA
ATOM     12  H   UNL     1      -0.296   0.004   3.069  0.00  0.00    +0.292 HD
ENDBRANCH   9  11
ENDBRANCH   1   7
BRANCH   1  13
ATOM     13  S   UNL     1       0.781  -4.979  -1.278  0.00  0.00    +0.072 S 
ATOM     14  O   UNL     1       0.558  -6.363  -1.051  0.00  0.00    -0.150 OA
ATOM     15  O   UNL     1       0.371  -4.327  -2.472  0.00  0.00    -0.150 OA
BRANCH  13  16
ATOM     16  C   UNL     1       2.518  -4.718  -1.134  0.00  0.00    +0.109 A 
ATOM     17  C   UNL     1       3.108  -3.634  -1.756  0.00  0.00    +0.031 A 
ATOM     18  C   UNL     1       4.470  -3.428  -1.644  0.00  0.00    +0.040 A 
ATOM     19  C   UNL     1       5.244  -4.309  -0.907  0.00  0.00    +0.124 A 
ATOM     20  C   UNL     1       4.652  -5.395  -0.284  0.00  0.00    +0.040 A 
ATOM     21  C   UNL     1       3.289  -5.595  -0.394  0.00  0.00    +0.031 A 
ATOM     22  F   UNL     1       6.575  -4.109  -0.797  0.00  0.00    -0.205 F 
ENDBRANCH  13  16
ENDBRANCH   1  13
TORSDOF 4
