REMARK  Name = ZINC23057101
REMARK  8 active torsions:
REMARK  status: ('A' for Active; 'I' for Inactive)
REMARK    1  A    between atoms: C_1  and  C_2
REMARK    2  A    between atoms: N_11  and  C_15
REMARK    3  A    between atoms: C_15  and  C_16
REMARK    4  A    between atoms: N_18  and  C_19
REMARK    5  A    between atoms: C_19  and  C_20
REMARK    6  A    between atoms: C_23  and  C_26
REMARK    7  A    between atoms: C_26  and  N_27
REMARK    8  A    between atoms: C_30  and  C_33
REMARK                            x       y       z     vdW  Elec       q    Type
REMARK                         _______ _______ _______ _____ _____    ______ ____
ROOT
ATOM      1  C   UNL     1       3.425   2.876   2.253  0.00  0.00    +0.231 C 
ATOM      2  O   UNL     1       2.503   3.237   1.554  0.00  0.00    -0.274 OA
ATOM      3  N   UNL     1       4.441   3.721   2.519  0.00  0.00    -0.310 N 
ATOM      4  H   UNL     1       5.178   3.433   3.078  0.00  0.00    +0.149 HD
ENDROOT
BRANCH   1   5
ATOM      5  C   UNL     1       3.436   1.482   2.825  0.00  0.00    +0.213 C 
BRANCH   5  15
ATOM      6  C   UNL     1      -0.019   1.526   0.010  0.00  0.00    +0.010 C 
ATOM      7  C   UNL     1       0.002  -0.004   0.002  0.00  0.00    +0.018 C 
ATOM      8  C   UNL     1      -1.434  -0.534   0.012  0.00  0.00    +0.006 C 
ATOM      9  C   UNL     1      -1.412  -2.064   0.024  0.00  0.00    +0.000 C 
ATOM     10  C   UNL     1      -0.687  -2.556   1.279  0.00  0.00    +0.003 C 
ATOM     11  C   UNL     1       0.752  -2.033   1.273  0.00  0.00    +0.035 C 
ATOM     12  C   UNL     1       0.740  -0.509   1.237  0.00  0.00    +0.115 C 
ATOM     13  C   UNL     1       2.151   0.030   1.266  0.00  0.00    +0.247 C 
ATOM     14  O   UNL     1       3.026  -0.158   0.448  0.00  0.00    -0.273 OA
ATOM     15  N   UNL     1       2.233   0.767   2.394  0.00  0.00    -0.215 N 
ATOM     16  C   UNL     1       1.077   0.763   3.069  0.00  0.00    +0.310 C 
ATOM     17  O   UNL     1       0.904   1.356   4.116  0.00  0.00    -0.252 OA
ATOM     18  N   UNL     1       0.127   0.030   2.458  0.00  0.00    -0.285 N 
ATOM     19  H   UNL     1      -0.782  -0.114   2.764  0.00  0.00    +0.151 HD
ENDBRANCH   5  15
ENDBRANCH   1   5
BRANCH   3  20
ATOM     20  C   UNL     1       4.430   5.077   1.963  0.00  0.00    +0.139 C 
BRANCH  20  21
ATOM     21  C   UNL     1       5.668   5.812   2.407  0.00  0.00    -0.030 A 
ATOM     22  C   UNL     1       5.656   6.538   3.583  0.00  0.00    +0.005 A 
ATOM     23  C   UNL     1       6.792   7.212   3.991  0.00  0.00    +0.002 A 
ATOM     24  C   UNL     1       7.940   7.160   3.222  0.00  0.00    -0.064 A 
ATOM     25  C   UNL     1       7.952   6.433   2.046  0.00  0.00    +0.002 A 
ATOM     26  C   UNL     1       6.817   5.756   1.641  0.00  0.00    +0.005 A 
BRANCH  24  27
ATOM     27  C   UNL     1       9.178   7.896   3.666  0.00  0.00    -0.043 C 
BRANCH  27  28
ATOM     28  N   UNL     1       9.997   7.014   4.508  0.00  0.00    +0.382 N 
ATOM     29  C   UNL     1      10.475   5.880   3.706  0.00  0.00    -0.078 C 
ATOM     30  C   UNL     1      11.261   4.916   4.597  0.00  0.00    -0.016 C 
ATOM     31  C   UNL     1      12.457   5.653   5.207  0.00  0.00    -0.018 C 
ATOM     32  C   UNL     1      11.952   6.875   5.978  0.00  0.00    -0.016 C 
ATOM     33  C   UNL     1      11.140   7.767   5.036  0.00  0.00    -0.078 C 
ATOM     34  C   UNL     1      13.202   4.717   6.161  0.00  0.00    +0.007 C 
ATOM     35  H   UNL     1       9.439   6.669   5.274  0.00  0.00    -0.081 HD
ENDBRANCH  27  28
ENDBRANCH  24  27
ENDBRANCH  20  21
ENDBRANCH   3  20
TORSDOF 6
