REMARK  Name = ZINC63384111
REMARK  8 active torsions:
REMARK  status: ('A' for Active; 'I' for Inactive)
REMARK    1  A    between atoms: C_1  and  C_2
REMARK    2  A    between atoms: C_2  and  C_3
REMARK    3  A    between atoms: C_3  and  C_5
REMARK    4  A    between atoms: C_3  and  N_6
REMARK    5  A    between atoms: C_7  and  O_33
REMARK    6  A    between atoms: C_9  and  C_16
REMARK    7  A    between atoms: N_30  and  C_31
REMARK    8  A    between atoms: C_31  and  C_32
REMARK                            x       y       z     vdW  Elec       q    Type
REMARK                         _______ _______ _______ _____ _____    ______ ____
ROOT
ATOM      1  C   UNL     1       0.425   1.462  -5.869  0.00  0.00    +0.099 C 
ATOM      2  C   UNL     1       0.050   0.981  -7.272  0.00  0.00    +0.124 C 
ATOM      3  C   UNL     1       0.645   1.995  -8.243  0.00  0.00    -0.036 C 
ATOM      4  C   UNL     1      -0.353   2.406  -9.014  0.00  0.00    -0.001 A 
ATOM      5  C   UNL     1      -0.388   3.307 -10.177  0.00  0.00    +0.010 A 
ATOM      6  C   UNL     1      -1.610   3.524 -10.731  0.00  0.00    +0.001 A 
ATOM      7  C   UNL     1      -2.787   2.943 -10.250  0.00  0.00    +0.002 A 
ATOM      8  C   UNL     1      -2.847   2.098  -9.189  0.00  0.00    +0.026 A 
ATOM      9  C   UNL     1      -1.624   1.788  -8.527  0.00  0.00    +0.043 A 
ATOM     10  N   UNL     1      -1.393   0.989  -7.503  0.00  0.00    -0.376 N 
ATOM     11  C   UNL     1       2.089   2.425  -8.153  0.00  0.00    +0.049 C 
ATOM     12  C   UNL     1       2.347   2.757  -6.672  0.00  0.00    +0.089 C 
ATOM     13  N   UNL     1       1.882   1.659  -5.820  0.00  0.00    -0.296 NA
ATOM     14  H   UNL     1      -2.053   0.497  -6.989  0.00  0.00    +0.160 HD
ENDROOT
BRANCH   1  17
ATOM     15  N   UNL     1       0.702  -1.719  -3.853  0.00  0.00    -0.256 N 
ATOM     16  C   UNL     1       0.865  -0.846  -5.017  0.00  0.00    +0.220 C 
ATOM     17  C   UNL     1       0.012   0.411  -4.836  0.00  0.00    +0.142 C 
ATOM     18  C   UNL     1       0.223   0.958  -3.446  0.00  0.00    +0.229 C 
ATOM     19  O   UNL     1       0.200   2.155  -3.256  0.00  0.00    -0.275 OA
ATOM     20  N   UNL     1       0.438   0.117  -2.419  0.00  0.00    -0.240 N 
ATOM     21  C   UNL     1       0.549  -1.206  -2.621  0.00  0.00    +0.311 C 
ATOM     22  O   UNL     1       0.516  -1.957  -1.666  0.00  0.00    -0.252 OA
ATOM     23  H   UNL     1       0.508   0.470  -1.518  0.00  0.00    +0.159 HD
BRANCH  15  24
ATOM     24  C   UNL     1       0.699  -3.173  -4.035  0.00  0.00    +0.077 C 
ATOM     25  C   UNL     1      -0.635  -3.745  -3.552  0.00  0.00    +0.028 C 
BRANCH  24  27
ATOM     26  C   UNL     1       3.182  -3.314  -3.791  0.00  0.00    +0.006 C 
ATOM     27  C   UNL     1       1.842  -3.790  -3.227  0.00  0.00    +0.019 C 
ENDBRANCH  24  27
ENDBRANCH  15  24
BRANCH  16  28
ATOM     28  O   UNL     1       2.239  -0.475  -5.145  0.00  0.00    -0.373 OA
ATOM     29  H   UNL     1       2.839  -1.224  -5.264  0.00  0.00    +0.212 HD
ENDBRANCH  16  28
ENDBRANCH   1  17
BRANCH  13  30
ATOM     30  C   UNL     1       2.344   1.834  -4.436  0.00  0.00    +0.081 C 
ATOM     31  C   UNL     1       3.868   1.973  -4.420  0.00  0.00    +0.020 C 
ENDBRANCH  13  30
TORSDOF 5
