REMARK  Name = ZINC63785074
REMARK  7 active torsions:
REMARK  status: ('A' for Active; 'I' for Inactive)
REMARK    1  A    between atoms: C_4  and  S_7
REMARK    2  A    between atoms: S_7  and  N_10
REMARK    3  A    between atoms: C_16  and  C_18
REMARK    4  A    between atoms: C_18  and  C_19
REMARK    5  A    between atoms: N_21  and  C_22
REMARK    6  A    between atoms: C_22  and  C_23
REMARK    7  A    between atoms: C_23  and  C_24
REMARK                            x       y       z     vdW  Elec       q    Type
REMARK                         _______ _______ _______ _____ _____    ______ ____
ROOT
ATOM      1  N   UNL     1       3.532  -1.866   3.623  0.00  0.00    -0.163 NA
ATOM      2  C   UNL     1       4.472  -1.668   4.740  0.00  0.00    +0.129 C 
ATOM      3  C   UNL     1       4.811  -3.040   5.327  0.00  0.00    +0.121 C 
ATOM      4  N   UNL     1       5.130  -3.989   4.269  0.00  0.00    -0.313 N 
ATOM      5  C   UNL     1       4.744  -3.866   2.999  0.00  0.00    +0.232 C 
ATOM      6  O   UNL     1       5.003  -4.763   2.225  0.00  0.00    -0.274 OA
ATOM      7  C   UNL     1       3.998  -2.670   2.484  0.00  0.00    +0.174 C 
ATOM      8  H   UNL     1       5.661  -4.766   4.506  0.00  0.00    +0.149 HD
ENDROOT
BRANCH   1   9
ATOM      9  S   UNL     1       2.009  -1.215   3.653  0.00  0.00    +0.062 S 
ATOM     10  O   UNL     1       1.696  -0.854   2.315  0.00  0.00    -0.153 OA
ATOM     11  O   UNL     1       1.990  -0.277   4.720  0.00  0.00    -0.153 OA
BRANCH   9  15
ATOM     12  C   UNL     1      -0.846  -4.536   4.800  0.00  0.00    +0.000 A 
ATOM     13  C   UNL     1      -0.268  -3.752   5.780  0.00  0.00    +0.002 A 
ATOM     14  C   UNL     1       0.604  -2.738   5.431  0.00  0.00    +0.028 A 
ATOM     15  C   UNL     1       0.899  -2.508   4.100  0.00  0.00    +0.106 A 
ATOM     16  C   UNL     1       0.321  -3.293   3.119  0.00  0.00    +0.028 A 
ATOM     17  C   UNL     1      -0.552  -4.306   3.469  0.00  0.00    +0.002 A 
ENDBRANCH   9  15
ENDBRANCH   1   9
BRANCH   7  18
ATOM     18  C   UNL     1       2.796  -3.133   1.658  0.00  0.00    +0.125 C 
BRANCH  18  19
ATOM     19  C   UNL     1       3.281  -3.828   0.411  0.00  0.00    +0.215 C 
ATOM     20  O   UNL     1       4.460  -3.812   0.128  0.00  0.00    -0.276 OA
ATOM     21  N   UNL     1       2.405  -4.468  -0.388  0.00  0.00    -0.315 N 
ATOM     22  H   UNL     1       1.461  -4.480  -0.161  0.00  0.00    +0.149 HD
BRANCH  21  23
ATOM     23  C   UNL     1       2.876  -5.143  -1.599  0.00  0.00    +0.108 C 
BRANCH  23  24
ATOM     24  C   UNL     1       1.689  -5.785  -2.320  0.00  0.00    +0.052 C 
BRANCH  24  25
ATOM     25  C   UNL     1       2.174  -6.480  -3.566  0.00  0.00    -0.040 C 
ATOM     26  C   UNL     1       2.489  -7.789  -3.697  0.00  0.00    -0.001 A 
ATOM     27  C   UNL     1       2.477  -8.913  -2.753  0.00  0.00    +0.010 A 
ATOM     28  C   UNL     1       2.857 -10.137  -3.187  0.00  0.00    +0.001 A 
ATOM     29  C   UNL     1       3.261 -10.357  -4.510  0.00  0.00    +0.002 A 
ATOM     30  C   UNL     1       3.299  -9.374  -5.435  0.00  0.00    +0.026 A 
ATOM     31  C   UNL     1       2.920  -8.048  -5.089  0.00  0.00    +0.043 A 
ATOM     32  N   UNL     1       2.872  -6.942  -5.792  0.00  0.00    -0.380 N 
ATOM     33  C   UNL     1       2.399  -5.857  -4.926  0.00  0.00    +0.144 C 
ATOM     34  H   UNL     1       3.106  -6.857  -6.730  0.00  0.00    +0.160 HD
ENDBRANCH  24  25
ENDBRANCH  23  24
ENDBRANCH  21  23
ENDBRANCH  18  19
ENDBRANCH   7  18
TORSDOF 7
