REMARK  Name = ZINC41584734
REMARK  5 active torsions:
REMARK  status: ('A' for Active; 'I' for Inactive)
REMARK    1  A    between atoms: C_1  and  C_2
REMARK    2  A    between atoms: C_4  and  O_36
REMARK    3  A    between atoms: C_5  and  C_19
REMARK    4  A    between atoms: C_11  and  C_12
REMARK    5  A    between atoms: C_19  and  N_20
REMARK                            x       y       z     vdW  Elec       q    Type
REMARK                         _______ _______ _______ _____ _____    ______ ____
ROOT
ATOM      1  C   UNL     1      -0.082   1.509   0.016  0.00  0.00    +0.045 C 
ATOM      2  C   UNL     1      -0.072   0.002   0.006  0.00  0.00    -0.033 A 
ATOM      3  C   UNL     1      -0.095  -0.674  -1.181  0.00  0.00    +0.050 A 
ATOM      4  C   UNL     1      -0.086  -2.066  -1.193  0.00  0.00    +0.122 A 
ATOM      5  C   UNL     1      -0.053  -2.781  -0.006  0.00  0.00    +0.020 A 
ATOM      6  C   UNL     1      -0.030  -2.109   1.209  0.00  0.00    +0.145 A 
ATOM      7  C   UNL     1      -0.034  -0.704   1.208  0.00  0.00    +0.071 A 
ATOM      8  C   UNL     1       0.002  -0.288   2.622  0.00  0.00    +0.232 C 
ATOM      9  O   UNL     1       0.006   0.847   3.065  0.00  0.00    -0.283 OA
ATOM     10  C   UNL     1       0.031  -1.551   3.378  0.00  0.00    +0.176 C 
ATOM     11  C   UNL     1       0.069  -1.676   4.727  0.00  0.00    +0.058 C 
ATOM     12  O   UNL     1       0.003  -2.564   2.481  0.00  0.00    -0.451 OA
ENDROOT
BRANCH  11  13
ATOM     13  C   UNL     1      -0.017  -3.007   5.344  0.00  0.00    -0.021 A 
ATOM     14  C   UNL     1      -0.114  -3.133   6.735  0.00  0.00    +0.008 A 
ATOM     15  C   UNL     1      -0.196  -4.386   7.306  0.00  0.00    +0.001 A 
ATOM     16  C   UNL     1      -0.181  -5.516   6.508  0.00  0.00    +0.000 A 
ATOM     17  C   UNL     1      -0.085  -5.401   5.131  0.00  0.00    +0.001 A 
ATOM     18  C   UNL     1      -0.009  -4.155   4.544  0.00  0.00    +0.008 A 
ENDBRANCH  11  13
BRANCH   4  19
ATOM     19  O   UNL     1      -0.109  -2.729  -2.377  0.00  0.00    -0.506 OA
ATOM     20  H   UNL     1       0.767  -2.915  -2.741  0.00  0.00    +0.292 HD
ENDBRANCH   4  19
BRANCH   5  21
ATOM     21  C   UNL     1      -0.044  -4.288  -0.035  0.00  0.00    -0.036 C 
BRANCH  21  22
ATOM     22  N   UNL     1       1.343  -4.768  -0.076  0.00  0.00    +0.383 N 
ATOM     23  C   UNL     1       1.355  -6.230   0.026  0.00  0.00    -0.073 C 
ATOM     24  C   UNL     1       2.776  -6.773  -0.016  0.00  0.00    -0.007 C 
ATOM     25  C   UNL     1       3.496  -6.308  -1.285  0.00  0.00    +0.011 C 
ATOM     26  C   UNL     1       3.445  -4.775  -1.306  0.00  0.00    +0.020 C 
ATOM     27  C   UNL     1       1.967  -4.351  -1.340  0.00  0.00    -0.069 C 
ATOM     28  C   UNL     1       4.054  -4.243  -0.029  0.00  0.00    +0.023 A 
ATOM     29  C   UNL     1       4.642  -3.018  -0.076  0.00  0.00    +0.022 A 
ATOM     30  C   UNL     1       5.168  -2.437   1.083  0.00  0.00    +0.007 A 
ATOM     31  C   UNL     1       5.058  -3.109   2.265  0.00  0.00    +0.070 A 
ATOM     32  C   UNL     1       4.442  -4.369   2.280  0.00  0.00    +0.251 A 
ATOM     33  O   UNL     1       4.283  -4.951   3.341  0.00  0.00    -0.268 OA
ATOM     34  N   UNL     1       4.022  -4.946   1.127  0.00  0.00    -0.312 N 
ATOM     35  C   UNL     1       3.582  -6.337   1.196  0.00  0.00    +0.126 C 
ATOM     36  H   UNL     1       1.857  -4.375   0.698  0.00  0.00    -0.081 HD
ENDBRANCH  21  22
ENDBRANCH   5  21
TORSDOF 4
