REMARK  Name = ZINC02850490
REMARK  9 active torsions:
REMARK  status: ('A' for Active; 'I' for Inactive)
REMARK    1  A    between atoms: C_1  and  C_2
REMARK    2  A    between atoms: N_5  and  C_7
REMARK    3  A    between atoms: C_18  and  N_35
REMARK    4  A    between atoms: C_19  and  C_33
REMARK    5  A    between atoms: C_20  and  C_22
REMARK    6  A    between atoms: C_26  and  O_30
REMARK    7  A    between atoms: C_27  and  O_28
REMARK    8  A    between atoms: O_28  and  C_29
REMARK    9  A    between atoms: O_30  and  C_31
REMARK                            x       y       z     vdW  Elec       q    Type
REMARK                         _______ _______ _______ _____ _____    ______ ____
ROOT
ATOM      1  C   UNL     1      -2.474   1.508  -3.636  0.00  0.00    +0.068 C 
ATOM      2  C   UNL     1      -2.282   0.129  -3.059  0.00  0.00    +0.068 A 
ATOM      3  C   UNL     1      -2.497  -0.235  -1.737  0.00  0.00    +0.050 A 
ATOM      4  C   UNL     1      -2.214  -1.568  -1.613  0.00  0.00    +0.230 A 
ATOM      5  N   UNL     1      -1.831  -2.016  -2.829  0.00  0.00    -0.200 N 
ATOM      6  N   UNL     1      -1.883  -0.932  -3.719  0.00  0.00    -0.168 NA
ATOM      7  O   UNL     1      -2.326  -2.235  -0.438  0.00  0.00    -0.423 OA
ATOM      8  C   UNL     1      -2.990  -1.625   0.565  0.00  0.00    +0.200 C 
ATOM      9  C   UNL     1      -3.316  -0.314   0.563  0.00  0.00    +0.098 C 
ATOM     10  C   UNL     1      -2.959   0.608  -0.577  0.00  0.00    +0.105 C 
ENDROOT
BRANCH   5  11
ATOM     11  C   UNL     1      -1.451  -3.327  -3.144  0.00  0.00    +0.070 A 
ATOM     12  C   UNL     1      -0.752  -4.091  -2.202  0.00  0.00    +0.028 A 
ATOM     13  C   UNL     1      -0.371  -5.366  -2.481  0.00  0.00    +0.010 A 
ATOM     14  C   UNL     1      -0.679  -5.932  -3.730  0.00  0.00    -0.018 A 
ATOM     15  C   UNL     1      -0.297  -7.247  -4.046  0.00  0.00    +0.008 A 
ATOM     16  C   UNL     1      -0.612  -7.766  -5.264  0.00  0.00    +0.001 A 
ATOM     17  C   UNL     1      -1.307  -7.013  -6.208  0.00  0.00    +0.001 A 
ATOM     18  C   UNL     1      -1.693  -5.736  -5.938  0.00  0.00    +0.008 A 
ATOM     19  C   UNL     1      -1.386  -5.165  -4.690  0.00  0.00    -0.016 A 
ATOM     20  C   UNL     1      -1.774  -3.853  -4.375  0.00  0.00    +0.036 A 
ENDBRANCH   5  11
BRANCH  10  21
ATOM     21  C   UNL     1      -1.851   1.537  -0.151  0.00  0.00    +0.012 A 
ATOM     22  C   UNL     1      -2.128   2.865   0.118  0.00  0.00    +0.028 A 
ATOM     23  C   UNL     1      -1.115   3.719   0.514  0.00  0.00    +0.045 A 
ATOM     24  C   UNL     1       0.181   3.249   0.638  0.00  0.00    +0.069 A 
ATOM     25  C   UNL     1       0.465   1.921   0.364  0.00  0.00    +0.163 A 
ATOM     26  C   UNL     1      -0.555   1.062  -0.034  0.00  0.00    +0.166 A 
ATOM     27 CL   UNL     1      -1.469   5.383   0.857  0.00  0.00    -0.083 Cl
BRANCH  26  28
ATOM     28  O   UNL     1      -0.281  -0.243  -0.303  0.00  0.00    -0.491 OA
ATOM     29  C   UNL     1      -0.172  -1.127   0.815  0.00  0.00    +0.277 C 
ENDBRANCH  26  28
BRANCH  25  30
ATOM     30  O   UNL     1       1.737   1.457   0.485  0.00  0.00    -0.491 OA
ATOM     31  C   UNL     1       2.733   2.395   0.899  0.00  0.00    +0.277 C 
ENDBRANCH  25  30
ENDBRANCH  10  21
BRANCH   8  32
ATOM     32  N   UNL     1      -3.356  -2.381   1.651  0.00  0.00    -0.328 N 
ATOM     33  H   UNL     1      -3.834  -1.970   2.389  0.00  0.00    +0.145 HD
ATOM     34  H   UNL     1      -3.136  -3.325   1.682  0.00  0.00    +0.145 HD
ENDBRANCH   8  32
BRANCH   9  35
ATOM     35  C   UNL     1      -4.028   0.221   1.685  0.00  0.00    +0.101 C 
ATOM     36  N   UNL     1      -4.592   0.646   2.575  0.00  0.00    -0.191 NA
ENDBRANCH   9  35
TORSDOF 6
