REMARK  Name = ZINC44418330
REMARK  10 active torsions:
REMARK  status: ('A' for Active; 'I' for Inactive)
REMARK    1  A    between atoms: C_1  and  C_2
REMARK    2  A    between atoms: C_2  and  C_3
REMARK    3  A    between atoms: C_2  and  C_4
REMARK    4  A    between atoms: C_6  and  C_10
REMARK    5  A    between atoms: C_12  and  C_15
REMARK    6  A    between atoms: N_20  and  C_22
REMARK    7  A    between atoms: C_24  and  O_30
REMARK    8  A    between atoms: C_26  and  O_28
REMARK    9  A    between atoms: O_28  and  C_29
REMARK   10  A    between atoms: O_30  and  C_31
REMARK                            x       y       z     vdW  Elec       q    Type
REMARK                         _______ _______ _______ _____ _____    ______ ____
ROOT
ATOM      1  C   UNL     1       5.918  -2.585   5.787  0.00  0.00    +0.087 C 
ATOM      2  C   UNL     1       6.974  -1.588   6.316  0.00  0.00    +0.109 C 
ATOM      3  C   UNL     1       8.083  -2.469   6.849  0.00  0.00    +0.221 C 
ATOM      4  O   UNL     1       8.965  -2.101   7.595  0.00  0.00    -0.275 OA
ATOM      5  N   UNL     1       7.947  -3.719   6.375  0.00  0.00    -0.270 N 
ATOM      6  C   UNL     1       6.781  -3.831   5.490  0.00  0.00    +0.125 C 
ENDROOT
BRANCH   5   7
ATOM      7  C   UNL     1       8.807  -4.779   6.685  0.00  0.00    +0.043 A 
ATOM      8  C   UNL     1       8.520  -6.060   6.235  0.00  0.00    +0.069 A 
ATOM      9  C   UNL     1       9.373  -7.109   6.543  0.00  0.00    +0.125 A 
ATOM     10  C   UNL     1      10.512  -6.879   7.300  0.00  0.00    +0.091 A 
ATOM     11  C   UNL     1      10.799  -5.598   7.749  0.00  0.00    +0.125 A 
ATOM     12  C   UNL     1       9.951  -4.547   7.437  0.00  0.00    +0.069 A 
BRANCH  11  13
ATOM     13  O   UNL     1      11.915  -5.373   8.491  0.00  0.00    -0.495 OA
ATOM     14  C   UNL     1      12.747  -6.501   8.771  0.00  0.00    +0.277 C 
ENDBRANCH  11  13
BRANCH   9  15
ATOM     15  O   UNL     1       9.092  -8.364   6.103  0.00  0.00    -0.495 OA
ATOM     16  C   UNL     1      10.014  -9.397   6.457  0.00  0.00    +0.277 C 
ENDBRANCH   9  15
ENDBRANCH   5   7
BRANCH   1  19
ATOM     17  C   UNL     1       3.725  -1.433   3.142  0.00  0.00    +0.276 A 
ATOM     18  N   UNL     1       3.957  -1.902   4.349  0.00  0.00    -0.190 NA
ATOM     19  C   UNL     1       5.268  -2.067   4.531  0.00  0.00    +0.177 A 
ATOM     20  N   UNL     1       5.898  -1.708   3.447  0.00  0.00    -0.060 NA
ATOM     21  O   UNL     1       4.909  -1.292   2.517  0.00  0.00    -0.331 OA
BRANCH  17  24
ATOM     22  C   UNL     1       0.771  -0.483   1.180  0.00  0.00    +0.066 A 
ATOM     23  C   UNL     1       2.150  -0.635   1.306  0.00  0.00    +0.058 A 
ATOM     24  C   UNL     1       2.404  -1.122   2.572  0.00  0.00    +0.123 A 
ATOM     25  N   UNL     1       1.197  -1.261   3.197  0.00  0.00    -0.272 N 
ATOM     26  H   UNL     1       1.055  -1.584   4.101  0.00  0.00    +0.189 HD
ATOM     27  N   UNL     1       0.203  -0.849   2.301  0.00  0.00    -0.178 NA
BRANCH  22  29
ATOM     28  C   UNL     1       0.027   1.553  -0.024  0.00  0.00    +0.014 C 
ATOM     29  C   UNL     1       0.052   0.023  -0.044  0.00  0.00    +0.033 C 
ATOM     30  C   UNL     1       0.782  -0.459  -1.300  0.00  0.00    +0.014 C 
ENDBRANCH  22  29
ENDBRANCH  17  24
ENDBRANCH   1  19
TORSDOF 6
