REMARK  Name = ZINC29465462
REMARK  16 active torsions:
REMARK  status: ('A' for Active; 'I' for Inactive)
REMARK    1  A    between atoms: C_1  and  C_2
REMARK    2  A    between atoms: C_2  and  N_3
REMARK    3  A    between atoms: N_3  and  C_4
REMARK    4  A    between atoms: C_4  and  C_5
REMARK    5  A    between atoms: C_6  and  C_8
REMARK    6  A    between atoms: C_14  and  C_26
REMARK    7  A    between atoms: C_15  and  C_18
REMARK    8  A    between atoms: C_20  and  C_25
REMARK    9  A    between atoms: C_22  and  C_24
REMARK   10  A    between atoms: C_26  and  C_27
REMARK   11  A    between atoms: C_27  and  N_28
REMARK   12  A    between atoms: N_28  and  C_29
REMARK   13  A    between atoms: C_29  and  C_30
REMARK   14  A    between atoms: C_30  and  C_31
REMARK   15  A    between atoms: C_31  and  C_32
REMARK   16  A    between atoms: C_32  and  C_33
REMARK                            x       y       z     vdW  Elec       q    Type
REMARK                         _______ _______ _______ _____ _____    ______ ____
ROOT
ATOM      1  C   UNL     1      -0.588   6.149   0.884  0.00  0.00    +0.038 A 
ATOM      2  C   UNL     1       0.626   5.847   0.251  0.00  0.00    +0.015 A 
ATOM      3  C   UNL     1       1.300   4.699   0.549  0.00  0.00    +0.027 A 
ATOM      4  C   UNL     1       0.788   3.809   1.491  0.00  0.00    +0.047 A 
ATOM      5  C   UNL     1      -0.431   4.101   2.135  0.00  0.00    +0.004 A 
ATOM      6  C   UNL     1      -1.118   5.275   1.828  0.00  0.00    +0.023 A 
ATOM      7  C   UNL     1      -0.691   2.986   3.046  0.00  0.00    -0.016 A 
ATOM      8  C   UNL     1       0.345   2.122   2.915  0.00  0.00    +0.051 A 
ATOM      9  N   UNL     1       1.234   2.606   1.983  0.00  0.00    -0.354 N 
ATOM     10  H   UNL     1       2.179   2.179   1.617  0.00  0.00    +0.166 HD
ENDROOT
BRANCH   8  11
ATOM     11  C   UNL     1       0.494   0.851   3.656  0.00  0.00    -0.001 A 
ATOM     12  C   UNL     1      -0.597  -0.008   3.800  0.00  0.00    +0.013 A 
ATOM     13  C   UNL     1      -0.450  -1.195   4.488  0.00  0.00    -0.050 A 
ATOM     14  C   UNL     1       0.772  -1.530   5.043  0.00  0.00    +0.006 A 
ATOM     15  C   UNL     1       1.856  -0.680   4.909  0.00  0.00    -0.050 A 
ATOM     16  C   UNL     1       1.724   0.508   4.219  0.00  0.00    +0.013 A 
ATOM     17  C   UNL     1       3.183  -1.052   5.517  0.00  0.00    +0.044 C 
ATOM     18  C   UNL     1      -1.625  -2.126   4.640  0.00  0.00    +0.044 C 
ENDBRANCH   8  11
BRANCH   1  20
ATOM     19  N   UNL     1      -0.614   8.484   0.153  0.00  0.00    -0.298 N 
ATOM     20  C   UNL     1      -1.304   7.396   0.548  0.00  0.00    +0.247 C 
ATOM     21  O   UNL     1      -2.517   7.441   0.629  0.00  0.00    -0.270 OA
BRANCH  19  23
ATOM     22  C   UNL     1      -1.418  10.489   1.300  0.00  0.00    +0.024 C 
ATOM     23  C   UNL     1      -1.307   9.760  -0.041  0.00  0.00    +0.104 C 
ENDBRANCH  19  23
BRANCH  19  24
ATOM     24  C   UNL     1       0.829   8.390  -0.084  0.00  0.00    +0.104 C 
ATOM     25  C   UNL     1       1.091   8.245  -1.584  0.00  0.00    +0.024 C 
ENDBRANCH  19  24
ENDBRANCH   1  20
BRANCH   7  26
ATOM     26  C   UNL     1      -1.881   2.830   3.957  0.00  0.00    +0.019 C 
BRANCH  26  27
ATOM     27  C   UNL     1      -1.574   3.470   5.312  0.00  0.00    -0.078 C 
BRANCH  27  28
ATOM     28  N   UNL     1      -2.734   3.318   6.201  0.00  0.00    +0.379 N 
ATOM     29  H   UNL     1      -3.607   3.813   5.751  0.00  0.00    -0.086 HD
ATOM     30  H   UNL     1      -2.950   2.248   6.341  0.00  0.00    -0.086 HD
BRANCH  28  31
ATOM     31  C   UNL     1      -2.474   3.922   7.514  0.00  0.00    -0.083 C 
BRANCH  31  32
ATOM     32  C   UNL     1      -3.702   3.744   8.409  0.00  0.00    -0.019 C 
BRANCH  32  33
ATOM     33  C   UNL     1      -3.432   4.373   9.777  0.00  0.00    +0.003 C 
BRANCH  33  34
ATOM     34  C   UNL     1      -4.660   4.195  10.673  0.00  0.00    +0.035 C 
BRANCH  34  35
ATOM     35  C   UNL     1      -4.393   4.815  12.020  0.00  0.00    -0.045 A 
ATOM     36  C   UNL     1      -3.837   4.068  13.048  0.00  0.00    +0.023 A 
ATOM     37  C   UNL     1      -3.603   4.671  14.269  0.00  0.00    +0.111 A 
ATOM     38  N   UNL     1      -3.911   5.939  14.465  0.00  0.00    -0.263 NA
ATOM     39  C   UNL     1      -4.445   6.678  13.512  0.00  0.00    +0.111 A 
ATOM     40  C   UNL     1      -4.704   6.144  12.264  0.00  0.00    +0.023 A 
ENDBRANCH  34  35
ENDBRANCH  33  34
ENDBRANCH  32  33
ENDBRANCH  31  32
ENDBRANCH  28  31
ENDBRANCH  27  28
ENDBRANCH  26  27
ENDBRANCH   7  26
TORSDOF 12
