REMARK  Name = ZINC13121569
REMARK  5 active torsions:
REMARK  status: ('A' for Active; 'I' for Inactive)
REMARK    1  A    between atoms: C_4  and  S_25
REMARK    2  A    between atoms: C_5  and  N_7
REMARK    3  A    between atoms: C_8  and  C_10
REMARK    4  A    between atoms: S_25  and  C_26
REMARK    5  A    between atoms: C_26  and  C_27
REMARK                            x       y       z     vdW  Elec       q    Type
REMARK                         _______ _______ _______ _____ _____    ______ ____
ROOT
ATOM      1  N   UNL     1       3.475   4.049  -1.972  0.00  0.00    -0.284 N 
ATOM      2  C   UNL     1       3.031   3.177  -1.045  0.00  0.00    +0.220 C 
ATOM      3  O   UNL     1       3.726   2.902  -0.090  0.00  0.00    -0.275 OA
ATOM      4  H   UNL     1       2.877   4.244  -2.875  0.00  0.00    +0.155 HD
ENDROOT
BRANCH   2   5
ATOM      5  C   UNL     1       1.665   2.542  -1.196  0.00  0.00    +0.076 C 
ATOM      6  C   UNL     1       1.428   1.608  -0.014  0.00  0.00    +0.018 C 
ATOM      7  C   UNL     1       0.002   1.059  -0.009  0.00  0.00    +0.016 C 
ATOM      8  C   UNL     1      -0.710   1.542   1.263  0.00  0.00    +0.006 C 
ATOM      9  C   UNL     1      -0.787   3.069   1.264  0.00  0.00    +0.001 C 
ATOM     10  C   UNL     1      -1.522   3.572   0.022  0.00  0.00    +0.006 C 
ATOM     11  C   UNL     1      -0.801   3.078  -1.241  0.00  0.00    +0.016 C 
ATOM     12  C   UNL     1       0.616   3.647  -1.254  0.00  0.00    +0.018 C 
ATOM     13  C   UNL     1      -0.772   1.560  -1.215  0.00  0.00    +0.068 C 
ATOM     14  S   UNL     1      -2.484   0.900  -1.179  0.00  0.00    -0.142 S 
ATOM     15  C   UNL     1      -2.805   0.537  -2.950  0.00  0.00    +0.081 C 
ATOM     16  C   UNL     1      -1.495  -0.104  -3.474  0.00  0.00    +0.081 C 
ATOM     17  S   UNL     1      -0.116   0.871  -2.770  0.00  0.00    -0.142 S 
ENDBRANCH   2   5
BRANCH   1  22
ATOM     18  C   UNL     1       6.955   4.710  -0.978  0.00  0.00    +0.002 A 
ATOM     19  C   UNL     1       7.116   6.011  -1.416  0.00  0.00    +0.001 A 
ATOM     20  C   UNL     1       6.072   6.669  -2.039  0.00  0.00    +0.016 A 
ATOM     21  C   UNL     1       4.858   6.022  -2.227  0.00  0.00    +0.030 A 
ATOM     22  C   UNL     1       4.697   4.708  -1.785  0.00  0.00    +0.047 A 
ATOM     23  C   UNL     1       5.748   4.059  -1.156  0.00  0.00    +0.024 A 
BRANCH  21  24
ATOM     24  S   UNL     1       3.525   6.857  -3.021  0.00  0.00    -0.114 S 
BRANCH  24  25
ATOM     25  C   UNL     1       4.200   8.497  -3.403  0.00  0.00    +0.169 C 
BRANCH  25  26
ATOM     26  C   UNL     1       3.148   9.325  -4.094  0.00  0.00    +0.221 C 
ATOM     27  O   UNL     1       2.050   8.855  -4.308  0.00  0.00    -0.275 OA
ATOM     28  N   UNL     1       3.426  10.588  -4.475  0.00  0.00    -0.329 N 
ATOM     29  H   UNL     1       2.658  11.192  -4.979  0.00  0.00    +0.145 HD
ATOM     30  H   UNL     1       4.421  11.014  -4.281  0.00  0.00    +0.145 HD
ENDBRANCH  25  26
ENDBRANCH  24  25
ENDBRANCH  21  24
ENDBRANCH   1  22
TORSDOF 5
