REMARK  Name = ZINC64502513
REMARK  12 active torsions:
REMARK  status: ('A' for Active; 'I' for Inactive)
REMARK    1  A    between atoms: C_1  and  C_2
REMARK    2  A    between atoms: C_2  and  C_3
REMARK    3  A    between atoms: C_2  and  C_4
REMARK    4  A    between atoms: C_4  and  C_5
REMARK    5  A    between atoms: C_9  and  C_12
REMARK    6  A    between atoms: N_14  and  C_15
REMARK    7  A    between atoms: C_19  and  C_21
REMARK    8  A    between atoms: N_23  and  C_24
REMARK    9  A    between atoms: C_24  and  C_25
REMARK   10  A    between atoms: C_25  and  C_26
REMARK   11  A    between atoms: C_29  and  O_35
REMARK   12  A    between atoms: O_35  and  C_36
REMARK                            x       y       z     vdW  Elec       q    Type
REMARK                         _______ _______ _______ _____ _____    ______ ____
ROOT
ATOM      1  C   UNL     1      -2.119  -7.450   0.205  0.00  0.00    +0.034 A 
ATOM      2  C   UNL     1      -0.806  -7.608  -0.223  0.00  0.00    +0.023 A 
ATOM      3  C   UNL     1      -0.395  -8.804  -0.780  0.00  0.00    +0.003 A 
ATOM      4  C   UNL     1      -1.285  -9.850  -0.916  0.00  0.00    +0.013 A 
ATOM      5  C   UNL     1      -2.606  -9.702  -0.489  0.00  0.00    +0.038 A 
ATOM      6  C   UNL     1      -3.019  -8.497   0.079  0.00  0.00    +0.036 A 
ENDROOT
BRANCH   1   9
ATOM      7  C   UNL     1      -3.430  -6.231   1.772  0.00  0.00    +0.254 C 
ATOM      8  O   UNL     1      -3.948  -7.268   2.129  0.00  0.00    -0.272 OA
ATOM      9  N   UNL     1      -2.530  -6.237   0.768  0.00  0.00    -0.283 N 
ATOM     10  H   UNL     1      -2.168  -5.401   0.437  0.00  0.00    +0.155 HD
BRANCH   7  14
ATOM     11  C   UNL     1      -3.889  -5.184   5.165  0.00  0.00    +0.187 C 
ATOM     12  N   UNL     1      -2.725  -4.551   4.505  0.00  0.00    -0.177 NA
ATOM     13  N   UNL     1      -2.682  -4.439   3.296  0.00  0.00    -0.167 NA
ATOM     14  C   UNL     1      -3.793  -4.935   2.451  0.00  0.00    +0.272 C 
ATOM     15  S   UNL     1      -5.082  -5.194   3.752  0.00  0.00    -0.095 S 
BRANCH  11  16
ATOM     16  C   UNL     1      -4.406  -4.330   6.324  0.00  0.00    +0.042 C 
BRANCH  16  18
ATOM     17  C   UNL     1      -5.325  -6.324   7.518  0.00  0.00    +0.007 C 
ATOM     18  C   UNL     1      -5.672  -4.967   6.902  0.00  0.00    -0.014 C 
ATOM     19  C   UNL     1      -6.256  -4.052   7.981  0.00  0.00    +0.007 C 
ENDBRANCH  16  18
ENDBRANCH  11  16
ENDBRANCH   7  14
ENDBRANCH   1   9
BRANCH   5  20
ATOM     20  C   UNL     1      -3.562 -10.821  -0.632  0.00  0.00    +0.244 C 
ATOM     21  O   UNL     1      -4.711 -10.690  -0.260  0.00  0.00    -0.270 OA
ATOM     22  N   UNL     1      -3.159 -11.986  -1.176  0.00  0.00    -0.311 N 
ATOM     23  H   UNL     1      -2.241 -12.091  -1.474  0.00  0.00    +0.149 HD
BRANCH  22  24
ATOM     24  C   UNL     1      -4.106 -13.095  -1.319  0.00  0.00    +0.109 C 
BRANCH  24  25
ATOM     25  C   UNL     1      -3.399 -14.290  -1.960  0.00  0.00    +0.052 C 
BRANCH  25  26
ATOM     26  C   UNL     1      -4.373 -15.431  -2.106  0.00  0.00    -0.040 C 
ATOM     27  C   UNL     1      -5.102 -15.741  -3.202  0.00  0.00    +0.002 A 
ATOM     28  C   UNL     1      -5.204 -15.136  -4.534  0.00  0.00    +0.055 A 
ATOM     29  C   UNL     1      -6.041 -15.678  -5.451  0.00  0.00    +0.121 A 
ATOM     30  C   UNL     1      -6.824 -16.812  -5.174  0.00  0.00    +0.047 A 
ATOM     31  C   UNL     1      -6.799 -17.439  -3.978  0.00  0.00    +0.029 A 
ATOM     32  C   UNL     1      -5.928 -16.936  -2.911  0.00  0.00    +0.043 A 
ATOM     33  N   UNL     1      -5.718 -17.347  -1.686  0.00  0.00    -0.380 N 
ATOM     34  C   UNL     1      -4.728 -16.463  -1.059  0.00  0.00    +0.144 C 
ATOM     35  H   UNL     1      -6.143 -18.110  -1.264  0.00  0.00    +0.160 HD
BRANCH  29  36
ATOM     36  O   UNL     1      -6.126 -15.106  -6.681  0.00  0.00    -0.495 OA
ATOM     37  C   UNL     1      -7.020 -15.710  -7.617  0.00  0.00    +0.277 C 
ENDBRANCH  29  36
ENDBRANCH  25  26
ENDBRANCH  24  25
ENDBRANCH  22  24
ENDBRANCH   5  20
TORSDOF 9
