REMARK  Name = ZINC44159935
REMARK  4 active torsions:
REMARK  status: ('A' for Active; 'I' for Inactive)
REMARK    1  A    between atoms: C_1  and  C_2
REMARK    2  A    between atoms: C_2  and  C_21
REMARK    3  A    between atoms: N_4  and  C_8
REMARK    4  A    between atoms: C_14  and  O_16
REMARK                            x       y       z     vdW  Elec       q    Type
REMARK                         _______ _______ _______ _____ _____    ______ ____
ROOT
ATOM      1  C   UNL     1      -2.767  -2.557   0.049  0.00  0.00    +0.090 C 
ATOM      2  C   UNL     1      -2.699  -4.084   0.123  0.00  0.00    +0.086 C 
ATOM      3  C   UNL     1      -4.115  -4.660   0.077  0.00  0.00    +0.172 C 
ATOM      4  C   UNL     1      -4.803  -4.240  -1.223  0.00  0.00    +0.067 C 
ATOM      5  C   UNL     1      -4.868  -2.713  -1.296  0.00  0.00    +0.038 C 
ATOM      6  C   UNL     1      -3.450  -2.140  -1.256  0.00  0.00    +0.132 C 
ATOM      7  O   UNL     1      -4.051  -6.093   0.143  0.00  0.00    -0.346 OA
ATOM      8  C   UNL     1      -4.238  -6.408   1.544  0.00  0.00    +0.191 C 
ATOM      9  C   UNL     1      -5.260  -5.326   1.975  0.00  0.00    +0.191 C 
ATOM     10  O   UNL     1      -4.868  -4.177   1.197  0.00  0.00    -0.346 OA
ENDROOT
BRANCH   1  14
ATOM     11  C   UNL     1      -0.019   1.526   0.010  0.00  0.00    +0.042 C 
ATOM     12  C   UNL     1       0.002  -0.004   0.002  0.00  0.00    +0.077 C 
ATOM     13  C   UNL     1      -1.434  -0.535   0.018  0.00  0.00    +0.119 C 
ATOM     14  N   UNL     1      -1.407  -2.003   0.088  0.00  0.00    -0.292 NA
ATOM     15  C   UNL     1      -0.689  -2.455   1.289  0.00  0.00    +0.113 C 
ATOM     16  C   UNL     1       0.739  -1.905   1.260  0.00  0.00    +0.176 C 
ATOM     17  O   UNL     1       0.694  -0.479   1.160  0.00  0.00    -0.371 OA
ATOM     18  C   UNL     1       0.716  -0.498  -1.258  0.00  0.00    +0.042 C 
ENDBRANCH   1  14
BRANCH   6  19
ATOM     19  O   UNL     1      -2.703  -2.641  -2.366  0.00  0.00    -0.390 OA
ATOM     20  H   UNL     1      -3.078  -2.414  -3.227  0.00  0.00    +0.210 HD
ENDBRANCH   6  19
TORSDOF 2
