REMARK  Name = ZINC66377869
REMARK  0 active torsions:
REMARK  status: ('A' for Active; 'I' for Inactive)
REMARK                            x       y       z     vdW  Elec       q    Type
REMARK                         _______ _______ _______ _____ _____    ______ ____
ROOT
ATOM      1  C   UNL     1      -0.019   1.556   0.011  0.00  0.00    +0.004 C 
ATOM      2  C   UNL     1       1.515   1.820  -0.003  0.00  0.00    +0.004 C 
ATOM      3  C   UNL     1       2.013   0.342  -0.015  0.00  0.00    -0.004 C 
ATOM      4  C   UNL     1       1.116  -0.478  -0.998  0.00  0.00    -0.004 C 
ATOM      5  C   UNL     1       0.002  -0.004   0.002  0.00  0.00    -0.004 C 
ATOM      6  C   UNL     1       1.114  -0.362   1.040  0.00  0.00    -0.004 C 
ATOM      7  C   UNL     1       1.471  -1.874   0.884  0.00  0.00    +0.004 C 
ATOM      8  C   UNL     1       1.472  -1.961  -0.670  0.00  0.00    +0.004 C 
ENDROOT
TORSDOF 0
