REMARK  Name = ZINC01003181
REMARK  10 active torsions:
REMARK  status: ('A' for Active; 'I' for Inactive)
REMARK    1  A    between atoms: C_1  and  C_2
REMARK    2  A    between atoms: C_2  and  C_32
REMARK    3  A    between atoms: C_6  and  C_14
REMARK    4  A    between atoms: C_8  and  C_12
REMARK    5  A    between atoms: C_9  and  N_11
REMARK    6  A    between atoms: C_17  and  C_19
REMARK    7  A    between atoms: C_19  and  O_20
REMARK    8  A    between atoms: O_20  and  C_21
REMARK    9  A    between atoms: C_24  and  O_27
REMARK   10  A    between atoms: O_27  and  C_28
REMARK                            x       y       z     vdW  Elec       q    Type
REMARK                         _______ _______ _______ _____ _____    ______ ____
ROOT
ATOM      1  C   UNL     1       3.320   9.543   3.130  0.00  0.00    +0.012 C 
ATOM      2  C   UNL     1       4.527  10.203   3.799  0.00  0.00    -0.021 C 
ATOM      3  C   UNL     1       5.271   9.171   4.649  0.00  0.00    +0.081 C 
ATOM      4  C   UNL     1       5.768   8.049   3.768  0.00  0.00    +0.115 C 
ATOM      5  C   UNL     1       6.112   8.282   2.490  0.00  0.00    +0.049 C 
ATOM      6  C   UNL     1       6.628   7.165   1.615  0.00  0.00    +0.137 C 
ATOM      7  C   UNL     1       7.087   6.014   2.466  0.00  0.00    +0.101 C 
ATOM      8  C   UNL     1       6.678   5.909   3.754  0.00  0.00    +0.198 C 
ATOM      9  O   UNL     1       5.856   6.817   4.303  0.00  0.00    -0.445 OA
ATOM     10  C   UNL     1       6.006   9.570   1.925  0.00  0.00    +0.164 C 
ATOM     11  O   UNL     1       6.340   9.744   0.770  0.00  0.00    -0.292 OA
ATOM     12  C   UNL     1       5.485  10.731   2.727  0.00  0.00    +0.086 C 
ATOM     13  C   UNL     1       4.056  11.356   4.687  0.00  0.00    +0.012 C 
ENDROOT
BRANCH   6  14
ATOM     14  C   UNL     1       5.527   6.701   0.697  0.00  0.00    +0.118 A 
ATOM     15  C   UNL     1       5.560   6.727  -0.648  0.00  0.00    +0.046 A 
ATOM     16  C   UNL     1       4.329   6.197  -1.098  0.00  0.00    +0.048 A 
ATOM     17  C   UNL     1       3.614   5.886  -0.002  0.00  0.00    +0.142 A 
ATOM     18  O   UNL     1       4.346   6.190   1.082  0.00  0.00    -0.460 OA
BRANCH  17  19
ATOM     19  C   UNL     1       2.229   5.291   0.008  0.00  0.00    +0.303 C 
BRANCH  19  20
ATOM     20  O   UNL     1       2.324   3.865   0.000  0.00  0.00    -0.484 OA
BRANCH  20  21
ATOM     21  C   UNL     1       1.155   3.170   0.008  0.00  0.00    +0.121 A 
ATOM     22  C   UNL     1       1.174   1.783   0.000  0.00  0.00    +0.049 A 
ATOM     23  C   UNL     1      -0.013   1.076   0.008  0.00  0.00    +0.049 A 
ATOM     24  C   UNL     1      -1.223   1.753   0.017  0.00  0.00    +0.120 A 
ATOM     25  C   UNL     1      -1.242   3.140   0.030  0.00  0.00    +0.049 A 
ATOM     26  C   UNL     1      -0.055   3.847   0.023  0.00  0.00    +0.049 A 
BRANCH  24  27
ATOM     27  O   UNL     1      -2.391   1.057   0.019  0.00  0.00    -0.495 OA
ATOM     28  C   UNL     1      -3.600   1.819   0.029  0.00  0.00    +0.277 C 
ENDBRANCH  24  27
ENDBRANCH  20  21
ENDBRANCH  19  20
ENDBRANCH  17  19
ENDBRANCH   6  14
BRANCH   8  29
ATOM     29  N   UNL     1       7.114   4.851   4.513  0.00  0.00    -0.328 N 
ATOM     30  H   UNL     1       7.708   4.189   4.126  0.00  0.00    +0.145 HD
ATOM     31  H   UNL     1       6.828   4.766   5.435  0.00  0.00    +0.145 HD
ENDBRANCH   8  29
BRANCH   7  32
ATOM     32  C   UNL     1       7.960   5.023   1.912  0.00  0.00    +0.101 C 
ATOM     33  N   UNL     1       8.652   4.237   1.474  0.00  0.00    -0.191 NA
ENDBRANCH   7  32
TORSDOF 7
