REMARK  Name = ZINC36017099
REMARK  14 active torsions:
REMARK  status: ('A' for Active; 'I' for Inactive)
REMARK    1  A    between atoms: C_1  and  C_2
REMARK    2  A    between atoms: C_2  and  N_3
REMARK    3  A    between atoms: C_4  and  C_23
REMARK    4  A    between atoms: C_5  and  C_18
REMARK    5  A    between atoms: C_6  and  C_11
REMARK    6  A    between atoms: C_18  and  O_20
REMARK    7  A    between atoms: O_20  and  C_21
REMARK    8  A    between atoms: C_21  and  C_22
REMARK    9  A    between atoms: C_23  and  N_24
REMARK   10  A    between atoms: C_28  and  C_31
REMARK   11  A    between atoms: N_34  and  C_35
REMARK   12  A    between atoms: C_35  and  C_36
REMARK   13  A    between atoms: C_35  and  C_37
REMARK   14  A    between atoms: C_35  and  C_38
REMARK                            x       y       z     vdW  Elec       q    Type
REMARK                         _______ _______ _______ _____ _____    ______ ____
ROOT
ATOM      1  N   UNL     1       0.773  -0.523  -0.984  0.00  0.00    -0.258 N 
ATOM      2  C   UNL     1       0.318  -0.507  -2.272  0.00  0.00    +0.041 C 
ATOM      3  C   UNL     1       1.126  -0.842  -3.300  0.00  0.00    +0.080 C 
ATOM      4  C   UNL     1       2.553  -1.234  -2.977  0.00  0.00    +0.144 C 
ATOM      5  N   UNL     1       2.945  -1.218  -1.558  0.00  0.00    -0.288 N 
ATOM      6  C   UNL     1       2.024  -0.856  -0.643  0.00  0.00    +0.307 C 
ATOM      7  O   UNL     1       2.338  -0.836   0.531  0.00  0.00    -0.252 OA
ATOM      8  H   UNL     1       3.845  -1.459  -1.288  0.00  0.00    +0.151 HD
ENDROOT
BRANCH   4   9
ATOM      9  C   UNL     1       2.784  -2.626  -3.506  0.00  0.00    -0.021 A 
ATOM     10  C   UNL     1       2.332  -3.721  -2.792  0.00  0.00    +0.006 A 
ATOM     11  C   UNL     1       2.543  -4.998  -3.277  0.00  0.00    +0.002 A 
ATOM     12  C   UNL     1       3.206  -5.182  -4.476  0.00  0.00    +0.020 A 
ATOM     13  C   UNL     1       3.658  -4.087  -5.191  0.00  0.00    +0.041 A 
ATOM     14  C   UNL     1       3.442  -2.809  -4.708  0.00  0.00    +0.025 A 
ATOM     15 CL   UNL     1       4.491  -4.317  -6.696  0.00  0.00    -0.084 Cl
ENDBRANCH   4   9
BRANCH   1  17
ATOM     16  C   UNL     1      -0.080   1.360   0.323  0.00  0.00    +0.025 C 
ATOM     17  C   UNL     1      -0.159  -0.149   0.083  0.00  0.00    +0.111 C 
ENDBRANCH   1  17
BRANCH   3  18
ATOM     18  C   UNL     1       0.656  -0.827  -4.635  0.00  0.00    +0.339 C 
ATOM     19  O   UNL     1       0.285  -1.860  -5.161  0.00  0.00    -0.245 OA
BRANCH  18  20
ATOM     20  O   UNL     1       0.618   0.333  -5.324  0.00  0.00    -0.462 OA
BRANCH  20  21
ATOM     21  C   UNL     1       0.131   0.274  -6.666  0.00  0.00    +0.229 C 
ATOM     22  C   UNL     1       0.162   1.675  -7.281  0.00  0.00    +0.048 C 
ENDBRANCH  20  21
ENDBRANCH  18  20
ENDBRANCH   3  18
BRANCH   2  23
ATOM     23  C   UNL     1      -1.110  -0.111  -2.549  0.00  0.00    +0.136 C 
BRANCH  23  24
ATOM     24  N   UNL     1      -2.016  -1.125  -1.993  0.00  0.00    -0.294 NA
ATOM     25  C   UNL     1      -1.861  -2.408  -2.690  0.00  0.00    +0.104 C 
ATOM     26  C   UNL     1      -2.685  -3.480  -1.969  0.00  0.00    +0.125 C 
ATOM     27  N   UNL     1      -4.070  -3.002  -1.848  0.00  0.00    -0.280 N 
ATOM     28  C   UNL     1      -4.297  -1.663  -1.283  0.00  0.00    +0.088 C 
ATOM     29  C   UNL     1      -3.410  -0.662  -2.032  0.00  0.00    +0.107 C 
ATOM     30  C   UNL     1      -5.768  -1.277  -1.451  0.00  0.00    +0.029 C 
ATOM     31  C   UNL     1      -5.104  -3.770  -2.243  0.00  0.00    +0.303 C 
ATOM     32  O   UNL     1      -6.236  -3.327  -2.217  0.00  0.00    -0.253 OA
ATOM     33  N   UNL     1      -4.884  -5.031  -2.667  0.00  0.00    -0.294 N 
ATOM     34  H   UNL     1      -3.992  -5.408  -2.622  0.00  0.00    +0.151 HD
BRANCH  33  35
ATOM     35  C   UNL     1      -5.992  -5.830  -3.195  0.00  0.00    +0.028 C 
ATOM     36  C   UNL     1      -6.590  -5.129  -4.416  0.00  0.00    +0.031 C 
ATOM     37  C   UNL     1      -5.476  -7.212  -3.602  0.00  0.00    +0.031 C 
ATOM     38  C   UNL     1      -7.068  -5.985  -2.118  0.00  0.00    +0.031 C 
ENDBRANCH  33  35
ENDBRANCH  23  24
ENDBRANCH   2  23
TORSDOF 8
