REMARK  Name = ZINC11829929
REMARK  7 active torsions:
REMARK  status: ('A' for Active; 'I' for Inactive)
REMARK    1  A    between atoms: C_9  and  O_14
REMARK    2  A    between atoms: C_10  and  C_11
REMARK    3  A    between atoms: C_11  and  N_13
REMARK    4  A    between atoms: O_14  and  C_15
REMARK    5  A    between atoms: C_15  and  C_16
REMARK    6  A    between atoms: C_16  and  O_17
REMARK    7  A    between atoms: O_17  and  C_18
REMARK                            x       y       z     vdW  Elec       q    Type
REMARK                         _______ _______ _______ _____ _____    ______ ____
ROOT
ATOM      1  C   UNL     1      -0.019   1.074  -0.021  0.00  0.00    +0.001 A 
ATOM      2  C   UNL     1      -1.239   1.745  -0.012  0.00  0.00    +0.001 A 
ATOM      3  C   UNL     1      -1.289   3.107   0.010  0.00  0.00    +0.009 A 
ATOM      4  C   UNL     1      -0.098   3.843   0.013  0.00  0.00    -0.005 A 
ATOM      5  C   UNL     1       1.145   3.164  -0.002  0.00  0.00    -0.017 A 
ATOM      6  C   UNL     1       1.158   1.760  -0.020  0.00  0.00    +0.008 A 
ATOM      7  C   UNL     1       2.340   3.905   0.000  0.00  0.00    +0.012 A 
ATOM      8  C   UNL     1       2.317   5.263   0.017  0.00  0.00    +0.047 A 
ATOM      9  C   UNL     1       1.119   5.978   0.033  0.00  0.00    +0.131 A 
ATOM     10  C   UNL     1      -0.105   5.305   0.031  0.00  0.00    +0.052 A 
ENDROOT
BRANCH  10  11
ATOM     11  C   UNL     1      -1.371   6.050   0.047  0.00  0.00    +0.081 C 
ATOM     12  S   UNL     1      -2.056   6.604  -1.421  0.00  0.00    -0.035 S 
BRANCH  11  13
ATOM     13  N   UNL     1      -1.993   6.296   1.217  0.00  0.00    -0.352 N 
ATOM     14  H   UNL     1      -1.569   6.048   2.053  0.00  0.00    +0.143 HD
ATOM     15  H   UNL     1      -2.864   6.723   1.222  0.00  0.00    +0.143 HD
ENDBRANCH  11  13
ENDBRANCH  10  11
BRANCH   9  16
ATOM     16  O   UNL     1       1.142   7.334   0.049  0.00  0.00    -0.488 OA
BRANCH  16  17
ATOM     17  C   UNL     1       2.427   7.960   0.050  0.00  0.00    +0.270 C 
BRANCH  17  18
ATOM     18  C   UNL     1       2.253   9.480   0.069  0.00  0.00    +0.270 C 
BRANCH  18  19
ATOM     19  O   UNL     1       1.639   9.874   1.298  0.00  0.00    -0.487 OA
BRANCH  19  20
ATOM     20  C   UNL     1       1.412  11.202   1.476  0.00  0.00    +0.140 A 
ATOM     21  C   UNL     1       1.778  12.108   0.492  0.00  0.00    +0.067 A 
ATOM     22  C   UNL     1       1.542  13.458   0.674  0.00  0.00    +0.045 A 
ATOM     23  C   UNL     1       0.950  13.906   1.842  0.00  0.00    +0.021 A 
ATOM     24  C   UNL     1       0.590  13.006   2.827  0.00  0.00    +0.025 A 
ATOM     25  C   UNL     1       0.820  11.655   2.647  0.00  0.00    +0.083 A 
ATOM     26 CL   UNL     1       0.367  10.525   3.885  0.00  0.00    -0.080 Cl
ATOM     27 CL   UNL     1       1.993  14.591  -0.561  0.00  0.00    -0.083 Cl
ENDBRANCH  19  20
ENDBRANCH  18  19
ENDBRANCH  17  18
ENDBRANCH  16  17
ENDBRANCH   9  16
TORSDOF 7
