REMARK  Name = ZINC22844116
REMARK  12 active torsions:
REMARK  status: ('A' for Active; 'I' for Inactive)
REMARK    1  A    between atoms: C_1  and  C_2
REMARK    2  A    between atoms: C_8  and  N_10
REMARK    3  A    between atoms: C_11  and  C_13
REMARK    4  A    between atoms: C_13  and  C_15
REMARK    5  A    between atoms: C_13  and  S_16
REMARK    6  A    between atoms: S_16  and  C_17
REMARK    7  A    between atoms: C_20  and  C_29
REMARK    8  A    between atoms: N_21  and  C_22
REMARK    9  A    between atoms: C_29  and  C_31
REMARK   10  A    between atoms: C_29  and  N_32
REMARK   11  A    between atoms: N_32  and  C_33
REMARK   12  A    between atoms: N_32  and  C_34
REMARK                            x       y       z     vdW  Elec       q    Type
REMARK                         _______ _______ _______ _____ _____    ______ ____
ROOT
ATOM      1  C   UNL     1       7.188  -1.027   2.676  0.00  0.00    +0.197 A 
ATOM      2  N   UNL     1       6.488  -1.722   3.542  0.00  0.00    -0.122 NA
ATOM      3  N   UNL     1       7.206  -1.985   4.575  0.00  0.00    -0.135 NA
ATOM      4  C   UNL     1       8.398  -1.478   4.434  0.00  0.00    +0.125 A 
ATOM      5  N   UNL     1       8.433  -0.853   3.216  0.00  0.00    -0.275 N 
ENDROOT
BRANCH   5   6
ATOM      6  C   UNL     1       9.518  -0.173   2.643  0.00  0.00    +0.050 A 
ATOM      7  C   UNL     1      10.672  -0.866   2.305  0.00  0.00    +0.028 A 
ATOM      8  C   UNL     1      11.737  -0.196   1.736  0.00  0.00    +0.022 A 
ATOM      9  C   UNL     1      11.659   1.168   1.514  0.00  0.00    +0.041 A 
ATOM     10  C   UNL     1      10.511   1.862   1.855  0.00  0.00    +0.022 A 
ATOM     11  C   UNL     1       9.441   1.195   2.419  0.00  0.00    +0.028 A 
ATOM     12 CL   UNL     1      13.002   2.009   0.804  0.00  0.00    -0.084 Cl
ENDBRANCH   5   6
BRANCH   4  13
ATOM     13  C   UNL     1       9.530  -1.568   5.425  0.00  0.00    -0.003 C 
ATOM     14  C   UNL     1       9.263  -0.614   6.591  0.00  0.00    -0.005 C 
BRANCH  13  15
ATOM     15  N   UNL     1       9.630  -2.943   5.931  0.00  0.00    +0.382 N 
ATOM     16  C   UNL     1       9.792  -3.900   4.828  0.00  0.00    -0.096 C 
ATOM     17  C   UNL     1      10.725  -3.069   6.902  0.00  0.00    -0.096 C 
ATOM     18  H   UNL     1       8.690  -3.182   6.450  0.00  0.00    -0.082 HD
ENDBRANCH  13  15
ENDBRANCH   4  13
BRANCH   1  19
ATOM     19  S   UNL     1       6.632  -0.436   1.112  0.00  0.00    -0.073 S 
BRANCH  19  20
ATOM     20  C   UNL     1       4.934  -1.063   1.125  0.00  0.00    +0.137 C 
ATOM     21  C   UNL     1       4.955  -2.593   1.117  0.00  0.00    +0.029 C 
BRANCH  20  23
ATOM     22  N   UNL     1       2.862  -0.453  -0.081  0.00  0.00    -0.311 N 
ATOM     23  C   UNL     1       4.205  -0.564  -0.096  0.00  0.00    +0.226 C 
ATOM     24  O   UNL     1       4.827  -0.261  -1.092  0.00  0.00    -0.275 OA
ATOM     25  H   UNL     1       2.298  -0.728   0.823  0.00  0.00    +0.149 HD
BRANCH  22  32
ATOM     26  C   UNL     1       0.739  -2.027  -1.265  0.00  0.00    +0.009 C 
ATOM     27  C   UNL     1       0.718  -0.497  -1.257  0.00  0.00    +0.006 C 
ATOM     28  C   UNL     1       0.002  -0.004   0.002  0.00  0.00    +0.005 C 
ATOM     29  C   UNL     1      -0.019   1.526   0.010  0.00  0.00    +0.000 C 
ATOM     30  C   UNL     1       1.417   2.055  -0.000  0.00  0.00    +0.002 C 
ATOM     31  C   UNL     1       2.133   1.562  -1.259  0.00  0.00    +0.022 C 
ATOM     32  C   UNL     1       2.154   0.032  -1.268  0.00  0.00    +0.076 C 
ENDBRANCH  22  32
ENDBRANCH  20  23
ENDBRANCH  19  20
ENDBRANCH   1  19
TORSDOF 7
