REMARK  Name = ZINC29150507
REMARK  14 active torsions:
REMARK  status: ('A' for Active; 'I' for Inactive)
REMARK    1  A    between atoms: C_1  and  C_2
REMARK    2  A    between atoms: C_2  and  O_3
REMARK    3  A    between atoms: O_3  and  C_4
REMARK    4  A    between atoms: C_7  and  C_13
REMARK    5  A    between atoms: C_9  and  O_10
REMARK    6  A    between atoms: O_10  and  C_11
REMARK    7  A    between atoms: C_11  and  C_12
REMARK    8  A    between atoms: C_13  and  C_15
REMARK    9  A    between atoms: C_13  and  N_18
REMARK   10  A    between atoms: C_15  and  C_16
REMARK   11  A    between atoms: C_15  and  C_17
REMARK   12  A    between atoms: N_18  and  C_19
REMARK   13  A    between atoms: C_19  and  C_20
REMARK   14  A    between atoms: N_22  and  C_23
REMARK                            x       y       z     vdW  Elec       q    Type
REMARK                         _______ _______ _______ _____ _____    ______ ____
ROOT
ATOM      1  N   UNL     1      -4.162   3.210   5.833  0.00  0.00    +0.389 N 
ATOM      2  H   UNL     1      -4.439   2.805   6.817  0.00  0.00    -0.084 HD
ATOM      3  H   UNL     1      -4.026   4.299   5.908  0.00  0.00    -0.084 HD
ENDROOT
BRANCH   1   4
ATOM      4  C   UNL     1      -2.909   2.590   5.383  0.00  0.00    -0.038 C 
BRANCH   4   8
ATOM      5  C   UNL     1      -1.100   5.053   2.391  0.00  0.00    +0.162 A 
ATOM      6  C   UNL     1      -1.703   5.631   3.497  0.00  0.00    +0.049 A 
ATOM      7  C   UNL     1      -2.287   4.832   4.462  0.00  0.00    +0.006 A 
ATOM      8  C   UNL     1      -2.271   3.456   4.327  0.00  0.00    -0.057 A 
ATOM      9  C   UNL     1      -1.675   2.873   3.224  0.00  0.00    +0.051 A 
ATOM     10  C   UNL     1      -1.083   3.668   2.256  0.00  0.00    +0.162 A 
BRANCH   5  11
ATOM     11  O   UNL     1      -0.525   5.838   1.440  0.00  0.00    -0.489 OA
BRANCH  11  13
ATOM     12  C   UNL     1       0.112   7.962   0.481  0.00  0.00    +0.048 C 
ATOM     13  C   UNL     1      -0.580   7.251   1.645  0.00  0.00    +0.226 C 
ENDBRANCH  11  13
ENDBRANCH   5  11
BRANCH  10  14
ATOM     14  O   UNL     1      -0.492   3.096   1.173  0.00  0.00    -0.489 OA
BRANCH  14  15
ATOM     15  C   UNL     1      -0.513   1.669   1.100  0.00  0.00    +0.226 C 
ATOM     16  C   UNL     1       0.193   1.213  -0.178  0.00  0.00    +0.048 C 
ENDBRANCH  14  15
ENDBRANCH  10  14
ENDBRANCH   4   8
BRANCH   4  17
ATOM     17  C   UNL     1      -1.955   2.447   6.571  0.00  0.00    -0.027 C 
ATOM     18  C   UNL     1      -2.547   1.466   7.584  0.00  0.00    +0.006 C 
ATOM     19  C   UNL     1      -0.605   1.922   6.080  0.00  0.00    +0.006 C 
ENDBRANCH   4  17
ENDBRANCH   1   4
BRANCH   1  20
ATOM     20  C   UNL     1      -5.254   2.936   4.888  0.00  0.00    +0.016 C 
BRANCH  20  21
ATOM     21  C   UNL     1      -6.488   3.688   5.316  0.00  0.00    +0.200 C 
ATOM     22  O   UNL     1      -6.462   4.382   6.309  0.00  0.00    -0.278 OA
ATOM     23  N   UNL     1      -7.622   3.587   4.594  0.00  0.00    -0.286 N 
ATOM     24  H   UNL     1      -7.627   3.015   3.654  0.00  0.00    +0.155 HD
BRANCH  23  25
ATOM     25  C   UNL     1      -8.795   4.211   5.040  0.00  0.00    +0.056 A 
ATOM     26  C   UNL     1      -8.722   5.426   5.711  0.00  0.00    +0.074 A 
ATOM     27  C   UNL     1      -9.884   6.037   6.149  0.00  0.00    +0.164 A 
ATOM     28  C   UNL     1     -11.115   5.440   5.919  0.00  0.00    +0.163 A 
ATOM     29  C   UNL     1     -11.188   4.229   5.252  0.00  0.00    +0.071 A 
ATOM     30  C   UNL     1     -10.029   3.618   4.807  0.00  0.00    +0.066 A 
ATOM     31 CL   UNL     1     -10.116   2.104   3.962  0.00  0.00    -0.082 Cl
ATOM     32  O   UNL     1     -12.254   6.053   6.357  0.00  0.00    -0.488 OA
ATOM     33  C   UNL     1     -12.428   6.112   7.774  0.00  0.00    +0.232 C 
ATOM     34  C   UNL     1     -11.693   7.308   8.358  0.00  0.00    +0.082 C 
ATOM     35  C   UNL     1     -10.185   7.200   8.190  0.00  0.00    +0.232 C 
ATOM     36  O   UNL     1      -9.826   7.231   6.808  0.00  0.00    -0.488 OA
ENDBRANCH  23  25
ENDBRANCH  20  21
ENDBRANCH   1  20
TORSDOF 10
