REMARK  Name = ZINC13636980
REMARK  3 active torsions:
REMARK  status: ('A' for Active; 'I' for Inactive)
REMARK    1  A    between atoms: C_3  and  O_27
REMARK    2  A    between atoms: C_6  and  C_7
REMARK    3  A    between atoms: C_17  and  N_24
REMARK                            x       y       z     vdW  Elec       q    Type
REMARK                         _______ _______ _______ _____ _____    ______ ____
ROOT
ATOM      1  C   UNL     1       2.382  -2.688   0.517  0.00  0.00    +0.105 C 
ATOM      2  C   UNL     1       3.782  -2.780  -0.097  0.00  0.00    +0.029 C 
ATOM      3  C   UNL     1       4.645  -3.695   0.831  0.00  0.00    +0.033 C 
ATOM      4  C   UNL     1       5.109  -2.762   1.931  0.00  0.00    -0.030 C 
ATOM      5  C   UNL     1       5.039  -1.515   1.537  0.00  0.00    -0.023 C 
ATOM      6  C   UNL     1       4.511  -1.437   0.123  0.00  0.00    +0.051 C 
ATOM      7  C   UNL     1       3.579  -0.272  -0.032  0.00  0.00    +0.014 A 
ATOM      8  C   UNL     1       4.127   1.005  -0.041  0.00  0.00    +0.132 A 
ATOM      9  C   UNL     1       3.321   2.116  -0.175  0.00  0.00    +0.036 A 
ATOM     10  C   UNL     1       1.952   1.967  -0.301  0.00  0.00    +0.042 A 
ATOM     11  C   UNL     1       1.397   0.704  -0.295  0.00  0.00    +0.145 A 
ATOM     12  C   UNL     1       2.211  -0.423  -0.162  0.00  0.00    +0.069 A 
ATOM     13  N   UNL     1       1.598  -1.678  -0.170  0.00  0.00    -0.334 N 
ATOM     14  F   UNL     1       0.060   0.556  -0.419  0.00  0.00    -0.204 F 
ATOM     15  H   UNL     1       0.660  -1.624   0.198  0.00  0.00    +0.147 HD
ENDROOT
BRANCH   1  21
ATOM     16  C   UNL     1       2.813  -3.256   2.916  0.00  0.00    +0.009 A 
ATOM     17  C   UNL     1       2.923  -2.901   4.247  0.00  0.00    +0.046 A 
ATOM     18  C   UNL     1       2.702  -1.588   4.634  0.00  0.00    +0.117 A 
ATOM     19  C   UNL     1       2.377  -0.632   3.682  0.00  0.00    +0.046 A 
ATOM     20  C   UNL     1       2.274  -0.990   2.352  0.00  0.00    +0.009 A 
ATOM     21  C   UNL     1       2.495  -2.300   1.968  0.00  0.00    -0.027 A 
BRANCH  18  22
ATOM     22  O   UNL     1       2.804  -1.238   5.943  0.00  0.00    -0.507 OA
ATOM     23  H   UNL     1       1.976  -1.314   6.436  0.00  0.00    +0.292 HD
ENDBRANCH  18  22
ENDBRANCH   1  21
BRANCH   8  24
ATOM     24  N   UNL     1       5.591   1.175   0.094  0.00  0.00    +0.057 N 
ATOM     25  O   UNL     1       6.078   2.291   0.087  0.00  0.00    -0.126 OA
ATOM     26  O   UNL     1       6.309   0.198   0.212  0.00  0.00    -0.126 OA
ENDBRANCH   8  24
TORSDOF 3
