REMARK  Name = ZINC38831864
REMARK  8 active torsions:
REMARK  status: ('A' for Active; 'I' for Inactive)
REMARK    1  A    between atoms: C_1  and  C_2
REMARK    2  A    between atoms: N_8  and  S_34
REMARK    3  A    between atoms: C_10  and  C_13
REMARK    4  A    between atoms: N_15  and  C_16
REMARK    5  A    between atoms: C_16  and  C_17
REMARK    6  A    between atoms: C_21  and  C_23
REMARK    7  A    between atoms: C_23  and  N_24
REMARK    8  A    between atoms: S_34  and  C_37
REMARK                            x       y       z     vdW  Elec       q    Type
REMARK                         _______ _______ _______ _____ _____    ______ ____
ROOT
ATOM      1  C   UNL     1       0.198  -6.291   1.004  0.00  0.00    +0.256 C 
ATOM      2  O   UNL     1      -0.422  -6.706   0.048  0.00  0.00    -0.272 OA
ATOM      3  N   UNL     1       0.615  -7.146   1.959  0.00  0.00    -0.308 N 
ATOM      4  H   UNL     1       1.110  -6.815   2.724  0.00  0.00    +0.149 HD
ENDROOT
BRANCH   1  14
ATOM      5  C   UNL     1      -0.018   1.503   0.010  0.00  0.00    +0.044 C 
ATOM      6  C   UNL     1       0.002  -0.004   0.002  0.00  0.00    -0.048 A 
ATOM      7  C   UNL     1       0.006  -0.688  -1.199  0.00  0.00    +0.007 A 
ATOM      8  C   UNL     1       0.024  -2.070  -1.215  0.00  0.00    +0.048 A 
ATOM      9  C   UNL     1       0.038  -2.778  -0.022  0.00  0.00    +0.144 A 
ATOM     10  C   UNL     1       0.037  -2.087   1.186  0.00  0.00    +0.093 A 
ATOM     11  C   UNL     1       0.023  -0.701   1.196  0.00  0.00    +0.031 A 
ATOM     12  N   UNL     1       0.060  -2.799   2.396  0.00  0.00    -0.200 N 
ATOM     13  C   UNL     1      -0.229  -4.242   2.346  0.00  0.00    +0.185 C 
ATOM     14  C   UNL     1       0.501  -4.820   1.125  0.00  0.00    +0.277 C 
ATOM     15  O   UNL     1       0.051  -4.137  -0.047  0.00  0.00    -0.476 OA
BRANCH  12  16
ATOM     16  S   UNL     1       0.400  -2.043   3.829  0.00  0.00    +0.043 S 
ATOM     17  O   UNL     1       0.931  -3.065   4.661  0.00  0.00    -0.155 OA
ATOM     18  O   UNL     1       1.192  -0.919   3.467  0.00  0.00    -0.155 OA
ATOM     19  C   UNL     1      -1.210  -1.495   4.461  0.00  0.00    +0.218 C 
ENDBRANCH  12  16
ENDBRANCH   1  14
BRANCH   3  20
ATOM     20  C   UNL     1       0.320  -8.576   1.841  0.00  0.00    +0.139 C 
BRANCH  20  21
ATOM     21  C   UNL     1       0.891  -9.307   3.029  0.00  0.00    -0.030 A 
ATOM     22  C   UNL     1       2.182  -9.800   2.982  0.00  0.00    +0.005 A 
ATOM     23  C   UNL     1       2.707 -10.470   4.071  0.00  0.00    +0.001 A 
ATOM     24  C   UNL     1       1.941 -10.646   5.208  0.00  0.00    +0.002 A 
ATOM     25  C   UNL     1       0.651 -10.152   5.256  0.00  0.00    -0.064 A 
ATOM     26  C   UNL     1       0.128  -9.479   4.168  0.00  0.00    +0.007 A 
BRANCH  25  27
ATOM     27  C   UNL     1      -0.184 -10.345   6.496  0.00  0.00    -0.043 C 
BRANCH  27  28
ATOM     28  N   UNL     1       0.021  -9.211   7.406  0.00  0.00    +0.385 N 
ATOM     29  C   UNL     1      -0.708  -9.449   8.661  0.00  0.00    -0.073 C 
ATOM     30  C   UNL     1      -0.241  -8.425   9.697  0.00  0.00    +0.017 C 
ATOM     31  C   UNL     1      -0.318  -7.038   9.114  0.00  0.00    -0.048 A 
ATOM     32  C   UNL     1      -0.275  -5.951   9.974  0.00  0.00    +0.004 A 
ATOM     33  C   UNL     1      -0.339  -4.665   9.475  0.00  0.00    +0.000 A 
ATOM     34  C   UNL     1      -0.446  -4.461   8.112  0.00  0.00    +0.000 A 
ATOM     35  C   UNL     1      -0.490  -5.542   7.255  0.00  0.00    +0.002 A 
ATOM     36  C   UNL     1      -0.427  -6.835   7.755  0.00  0.00    -0.061 A 
ATOM     37  C   UNL     1      -0.487  -7.985   6.784  0.00  0.00    -0.042 C 
ATOM     38  H   UNL     1       1.006  -9.108   7.600  0.00  0.00    -0.081 HD
ENDBRANCH  27  28
ENDBRANCH  25  27
ENDBRANCH  20  21
ENDBRANCH   3  20
TORSDOF 6
