REMARK  Name = ZINC12710974
REMARK  5 active torsions:
REMARK  status: ('A' for Active; 'I' for Inactive)
REMARK    1  A    between atoms: C_5  and  N_7
REMARK    2  A    between atoms: N_10  and  C_11
REMARK    3  A    between atoms: N_10  and  C_19
REMARK    4  A    between atoms: C_11  and  C_12
REMARK    5  A    between atoms: C_19  and  C_20
REMARK                            x       y       z     vdW  Elec       q    Type
REMARK                         _______ _______ _______ _____ _____    ______ ____
ROOT
ATOM      1  N   UNL     1      -1.179   4.040   1.416  0.00  0.00    -0.267 N 
ATOM      2  C   UNL     1      -0.009   4.273   2.043  0.00  0.00    +0.307 C 
ATOM      3  O   UNL     1      -0.004   4.680   3.189  0.00  0.00    -0.252 OA
ATOM      4  N   UNL     1       1.155   4.056   1.399  0.00  0.00    -0.277 N 
ATOM      5  H   UNL     1      -1.186   3.794   0.478  0.00  0.00    +0.156 HD
ENDROOT
BRANCH   1  10
ATOM      6  C   UNL     1      -3.593   4.104   4.191  0.00  0.00    +0.002 A 
ATOM      7  C   UNL     1      -4.768   4.370   3.512  0.00  0.00    +0.003 A 
ATOM      8  C   UNL     1      -4.756   4.528   2.138  0.00  0.00    +0.040 A 
ATOM      9  C   UNL     1      -3.567   4.419   1.439  0.00  0.00    +0.145 A 
ATOM     10  C   UNL     1      -2.385   4.151   2.120  0.00  0.00    +0.070 A 
ATOM     11  C   UNL     1      -2.403   3.988   3.498  0.00  0.00    +0.026 A 
ATOM     12  F   UNL     1      -3.555   4.572   0.097  0.00  0.00    -0.204 F 
ENDBRANCH   1  10
BRANCH   4  13
ATOM     13  C   UNL     1       1.149   3.567   0.019  0.00  0.00    +0.144 C 
BRANCH  13  14
ATOM     14  C   UNL     1       1.160   2.060   0.020  0.00  0.00    -0.030 A 
ATOM     15  C   UNL     1      -0.033   1.360   0.030  0.00  0.00    +0.008 A 
ATOM     16  C   UNL     1      -0.024  -0.022   0.031  0.00  0.00    +0.038 A 
ATOM     17  C   UNL     1       1.180  -0.706   0.023  0.00  0.00    +0.123 A 
ATOM     18  C   UNL     1       2.373  -0.004   0.014  0.00  0.00    +0.038 A 
ATOM     19  C   UNL     1       2.362   1.377   0.013  0.00  0.00    +0.008 A 
ATOM     20  F   UNL     1       1.189  -2.057   0.025  0.00  0.00    -0.205 F 
ENDBRANCH  13  14
ENDBRANCH   4  13
BRANCH   4  21
ATOM     21  C   UNL     1       2.427   4.311   2.080  0.00  0.00    +0.150 C 
BRANCH  21  22
ATOM     22  C   UNL     1       2.850   5.737   1.839  0.00  0.00    +0.035 A 
ATOM     23  C   UNL     1       2.542   6.696   2.748  0.00  0.00    +0.020 A 
ATOM     24  C   UNL     1       2.968   8.071   2.486  0.00  0.00    +0.003 A 
ATOM     25  C   UNL     1       2.680   9.101   3.390  0.00  0.00    +0.059 A 
ATOM     26  C   UNL     1       3.094  10.386   3.115  0.00  0.00    +0.167 A 
ATOM     27  C   UNL     1       3.800  10.663   1.938  0.00  0.00    +0.168 A 
ATOM     28  C   UNL     1       4.089   9.652   1.040  0.00  0.00    +0.075 A 
ATOM     29  C   UNL     1       3.679   8.351   1.303  0.00  0.00    +0.053 A 
ATOM     30  N   UNL     1       3.959   7.329   0.419  0.00  0.00    -0.322 N 
ATOM     31  H   UNL     1       4.449   7.523  -0.396  0.00  0.00    +0.169 HD
ATOM     32  C   UNL     1       3.569   6.068   0.673  0.00  0.00    +0.254 A 
ATOM     33  O   UNL     1       3.839   5.189  -0.128  0.00  0.00    -0.268 OA
ATOM     34  O   UNL     1       4.089  11.996   1.911  0.00  0.00    -0.453 OA
ATOM     35  C   UNL     1       3.918  12.456   3.264  0.00  0.00    +0.466 C 
ATOM     36  O   UNL     1       2.946  11.549   3.816  0.00  0.00    -0.453 OA
ENDBRANCH  21  22
ENDBRANCH   4  21
TORSDOF 5
