REMARK  Name = ZINC04543287
REMARK  3 active torsions:
REMARK  status: ('A' for Active; 'I' for Inactive)
REMARK    1  A    between atoms: C_1  and  C_2
REMARK    2  A    between atoms: C_14  and  C_17
REMARK    3  A    between atoms: C_18  and  C_19
REMARK                            x       y       z     vdW  Elec       q    Type
REMARK                         _______ _______ _______ _____ _____    ______ ____
ROOT
ATOM      1  C   UNL     1       2.586   7.630  -0.604  0.00  0.00    +0.008 C 
ATOM      2  C   UNL     1       2.155   6.236  -0.146  0.00  0.00    -0.009 C 
ATOM      3  C   UNL     1       0.992   5.747  -1.015  0.00  0.00    +0.008 C 
ATOM      4  C   UNL     1       0.396   4.473  -0.415  0.00  0.00    +0.037 C 
ATOM      5  C   UNL     1       1.517   3.466  -0.186  0.00  0.00    -0.023 A 
ATOM      6  C   UNL     1       2.808   3.864  -0.142  0.00  0.00    -0.004 A 
ATOM      7  S   UNL     1       3.736   2.378   0.137  0.00  0.00    -0.078 S 
ATOM      8  C   UNL     1       2.441   1.260   0.191  0.00  0.00    +0.080 A 
ATOM      9  C   UNL     1       1.292   2.041   0.001  0.00  0.00    +0.068 A 
ATOM     10  C   UNL     1      -0.016   1.346   0.009  0.00  0.00    +0.248 C 
ATOM     11  O   UNL     1      -1.064   1.966   0.018  0.00  0.00    -0.270 OA
ATOM     12  N   UNL     1       0.002  -0.004   0.002  0.00  0.00    -0.290 N 
ATOM     13  C   UNL     1       1.215  -0.795  -0.175  0.00  0.00    +0.183 C 
ATOM     14  N   UNL     1       2.395  -0.099   0.369  0.00  0.00    -0.317 N 
ATOM     15  C   UNL     1       3.330   5.258  -0.298  0.00  0.00    +0.046 C 
ATOM     16  H   UNL     1      -0.838  -0.474   0.121  0.00  0.00    +0.151 HD
ATOM     17  H   UNL     1       3.102  -0.577   0.830  0.00  0.00    +0.149 HD
ENDROOT
BRANCH  13  18
ATOM     18  C   UNL     1       1.428  -1.048  -1.645  0.00  0.00    +0.018 C 
ATOM     19  C   UNL     1       1.464  -2.295  -2.107  0.00  0.00    +0.045 C 
BRANCH  19  20
ATOM     20  C   UNL     1       1.672  -2.542  -3.542  0.00  0.00    +0.127 A 
ATOM     21  C   UNL     1       1.729  -3.763  -4.144  0.00  0.00    +0.049 A 
ATOM     22  C   UNL     1       1.941  -3.529  -5.516  0.00  0.00    +0.042 A 
ATOM     23  C   UNL     1       2.002  -2.193  -5.685  0.00  0.00    +0.195 A 
ATOM     24  O   UNL     1       1.834  -1.600  -4.492  0.00  0.00    -0.464 OA
ENDBRANCH  19  20
ENDBRANCH  13  18
TORSDOF 2
