REMARK  Name = ZINC17252224
REMARK  7 active torsions:
REMARK  status: ('A' for Active; 'I' for Inactive)
REMARK    1  A    between atoms: C_6  and  N_7
REMARK    2  A    between atoms: C_10  and  C_11
REMARK    3  A    between atoms: N_12  and  C_13
REMARK    4  A    between atoms: C_13  and  C_14
REMARK    5  A    between atoms: C_14  and  C_15
REMARK    6  A    between atoms: C_22  and  O_25
REMARK    7  A    between atoms: C_26  and  O_30
REMARK                            x       y       z     vdW  Elec       q    Type
REMARK                         _______ _______ _______ _____ _____    ______ ____
ROOT
ATOM      1  N   UNL     1      -1.207  -0.720  -0.004  0.00  0.00    -0.192 N 
ATOM      2  C   UNL     1      -1.178  -2.063  -0.139  0.00  0.00    +0.245 C 
ATOM      3  O   UNL     1      -0.128  -2.656  -0.306  0.00  0.00    -0.274 OA
ATOM      4  C   UNL     1      -2.459  -2.788  -0.073  0.00  0.00    +0.199 C 
ATOM      5  C   UNL     1      -3.672  -1.983   0.125  0.00  0.00    +0.198 C 
ATOM      6  N   UNL     1      -3.547  -0.670   0.236  0.00  0.00    -0.131 NA
ATOM      7  C   UNL     1      -2.364  -0.066   0.174  0.00  0.00    +0.339 C 
ATOM      8  O   UNL     1      -2.330   1.147   0.285  0.00  0.00    -0.250 OA
ENDROOT
BRANCH   1  14
ATOM      9  C   UNL     1       0.946  -0.156   0.938  0.00  0.00    +0.025 A 
ATOM     10  C   UNL     1       2.127   0.558   0.883  0.00  0.00    +0.017 A 
ATOM     11  C   UNL     1       2.360   1.433  -0.164  0.00  0.00    +0.018 A 
ATOM     12  C   UNL     1       1.411   1.594  -1.157  0.00  0.00    +0.017 A 
ATOM     13  C   UNL     1       0.228   0.882  -1.107  0.00  0.00    +0.025 A 
ATOM     14  C   UNL     1      -0.008   0.004  -0.058  0.00  0.00    +0.046 A 
ATOM     15 BR   UNL     1       3.978   2.409  -0.236  0.00  0.00    -0.050 Br
ENDBRANCH   1  14
BRANCH   4  16
ATOM     16  C   UNL     1      -2.518  -4.168  -0.197  0.00  0.00    +0.099 C 
ATOM     17  N   UNL     1      -3.711  -4.786  -0.285  0.00  0.00    -0.294 NA
BRANCH  17  18
ATOM     18  C   UNL     1      -3.773  -6.243  -0.416  0.00  0.00    +0.146 C 
BRANCH  18  19
ATOM     19  C   UNL     1      -5.235  -6.686  -0.496  0.00  0.00    +0.060 C 
BRANCH  19  20
ATOM     20  C   UNL     1      -5.299  -8.186  -0.631  0.00  0.00    -0.021 A 
ATOM     21  C   UNL     1      -5.397  -8.881  -1.776  0.00  0.00    +0.087 A 
ATOM     22  N   UNL     1      -5.429 -10.222  -1.506  0.00  0.00    -0.360 N 
ATOM     23  H   UNL     1      -5.497 -10.923  -2.173  0.00  0.00    +0.165 HD
ATOM     24  C   UNL     1      -5.350 -10.428  -0.145  0.00  0.00    +0.047 A 
ATOM     25  C   UNL     1      -5.260  -9.162   0.461  0.00  0.00    +0.006 A 
ATOM     26  C   UNL     1      -5.161  -9.058   1.850  0.00  0.00    +0.055 A 
ATOM     27  C   UNL     1      -5.149 -10.204   2.620  0.00  0.00    +0.118 A 
ATOM     28  C   UNL     1      -5.237 -11.456   2.017  0.00  0.00    +0.047 A 
ATOM     29  C   UNL     1      -5.341 -11.569   0.649  0.00  0.00    +0.030 A 
BRANCH  27  30
ATOM     30  O   UNL     1      -5.054 -10.109   3.973  0.00  0.00    -0.507 OA
ATOM     31  H   UNL     1      -5.907 -10.050   4.425  0.00  0.00    +0.292 HD
ENDBRANCH  27  30
ENDBRANCH  19  20
ENDBRANCH  18  19
ENDBRANCH  17  18
ENDBRANCH   4  16
BRANCH   5  32
ATOM     32  O   UNL     1      -4.886  -2.569   0.193  0.00  0.00    -0.496 OA
ATOM     33  H   UNL     1      -5.616  -1.948   0.325  0.00  0.00    +0.293 HD
ENDBRANCH   5  32
TORSDOF 7
