REMARK  Name = ZINC22503187
REMARK  4 active torsions:
REMARK  status: ('A' for Active; 'I' for Inactive)
REMARK    1  A    between atoms: C_4  and  C_7
REMARK    2  A    between atoms: C_9  and  C_13
REMARK    3  A    between atoms: C_19  and  C_21
REMARK    4  A    between atoms: C_22  and  C_23
REMARK                            x       y       z     vdW  Elec       q    Type
REMARK                         _______ _______ _______ _____ _____    ______ ____
ROOT
ATOM      1  C   UNL     1      -5.005   2.064   0.037  0.00  0.00    +0.203 A 
ATOM      2  N   UNL     1      -5.474   3.293   0.045  0.00  0.00    -0.125 NA
ATOM      3  N   UNL     1      -4.498   4.133   0.045  0.00  0.00    -0.120 NA
ATOM      4  C   UNL     1      -3.368   3.491   0.036  0.00  0.00    +0.219 A 
ATOM      5  N   UNL     1      -3.618   2.141   0.030  0.00  0.00    -0.184 N 
ATOM      6  N   UNL     1      -2.511   1.302   0.016  0.00  0.00    -0.156 NA
ATOM      7  C   UNL     1      -1.292   1.791   0.018  0.00  0.00    +0.125 A 
ATOM      8  S   UNL     1      -1.593   3.552   0.028  0.00  0.00    -0.027 S 
ENDROOT
BRANCH   1  11
ATOM      9  C   UNL     1      -7.508  -0.625  -0.138  0.00  0.00    +0.093 A 
ATOM     10  C   UNL     1      -7.151   0.729  -0.248  0.00  0.00    +0.061 A 
ATOM     11  C   UNL     1      -5.807   0.828   0.033  0.00  0.00    +0.105 A 
ATOM     12  N   UNL     1      -5.354  -0.432   0.303  0.00  0.00    -0.273 N 
ATOM     13  H   UNL     1      -4.294  -0.594   0.551  0.00  0.00    +0.189 HD
ATOM     14  N   UNL     1      -6.436  -1.313   0.194  0.00  0.00    -0.173 NA
BRANCH   9  18
ATOM     15  C   UNL     1     -11.396  -2.231  -0.767  0.00  0.00    +0.000 A 
ATOM     16  C   UNL     1     -10.352  -3.069  -0.421  0.00  0.00    +0.001 A 
ATOM     17  C   UNL     1      -9.088  -2.554  -0.216  0.00  0.00    +0.010 A 
ATOM     18  C   UNL     1      -8.865  -1.186  -0.358  0.00  0.00    +0.002 A 
ATOM     19  C   UNL     1      -9.922  -0.345  -0.701  0.00  0.00    +0.010 A 
ATOM     20  C   UNL     1     -11.180  -0.872  -0.909  0.00  0.00    +0.001 A 
ENDBRANCH   9  18
ENDBRANCH   1  11
BRANCH   7  21
ATOM     21  C   UNL     1      -0.013   1.076   0.008  0.00  0.00    +0.040 C 
ATOM     22  C   UNL     1       1.148   1.767   0.001  0.00  0.00    +0.049 C 
BRANCH  22  23
ATOM     23  C   UNL     1       2.425   1.053  -0.015  0.00  0.00    +0.128 A 
ATOM     24  C   UNL     1       3.665   1.626  -0.030  0.00  0.00    +0.049 A 
ATOM     25  C   UNL     1       4.597   0.572  -0.039  0.00  0.00    +0.042 A 
ATOM     26  C   UNL     1       3.894  -0.580  -0.039  0.00  0.00    +0.195 A 
ATOM     27  O   UNL     1       2.583  -0.286  -0.025  0.00  0.00    -0.464 OA
ENDBRANCH  22  23
ENDBRANCH   7  21
TORSDOF 4
