REMARK  Name = ZINC13640603
REMARK  12 active torsions:
REMARK  status: ('A' for Active; 'I' for Inactive)
REMARK    1  A    between atoms: C_1  and  O_2
REMARK    2  A    between atoms: O_2  and  C_3
REMARK    3  A    between atoms: C_6  and  N_9
REMARK    4  A    between atoms: N_9  and  S_10
REMARK    5  A    between atoms: S_10  and  C_13
REMARK    6  A    between atoms: C_26  and  C_29
REMARK    7  A    between atoms: C_31  and  O_39
REMARK    8  A    between atoms: C_32  and  O_37
REMARK    9  A    between atoms: C_33  and  O_35
REMARK   10  A    between atoms: O_35  and  C_36
REMARK   11  A    between atoms: O_37  and  C_38
REMARK   12  A    between atoms: O_39  and  C_40
REMARK                            x       y       z     vdW  Elec       q    Type
REMARK                         _______ _______ _______ _____ _____    ______ ____
ROOT
ATOM      1  C   UNL     1       4.035   3.289  -0.381  0.00  0.00    +0.109 A 
ATOM      2  C   UNL     1       5.122   3.407   0.465  0.00  0.00    +0.030 A 
ATOM      3  C   UNL     1       5.487   4.643   0.957  0.00  0.00    +0.025 A 
ATOM      4  C   UNL     1       4.765   5.778   0.608  0.00  0.00    +0.031 A 
ATOM      5  C   UNL     1       3.659   5.650  -0.240  0.00  0.00    -0.018 A 
ATOM      6  C   UNL     1       3.310   4.412  -0.736  0.00  0.00    +0.034 A 
ATOM      7  C   UNL     1       2.904   6.878  -0.567  0.00  0.00    +0.049 C 
ATOM      8  C   UNL     1       2.118   7.008  -1.821  0.00  0.00    -0.023 C 
ATOM      9  C   UNL     1       2.122   8.281  -2.195  0.00  0.00    -0.030 C 
ATOM     10  C   UNL     1       2.956   9.111  -1.216  0.00  0.00    +0.033 C 
ATOM     11  C   UNL     1       3.921   8.055  -0.661  0.00  0.00    +0.029 C 
ATOM     12  C   UNL     1       4.450   8.246   0.750  0.00  0.00    +0.105 C 
ATOM     13  N   UNL     1       5.174   7.026   1.093  0.00  0.00    -0.336 N 
ATOM     14  H   UNL     1       5.957   7.082   1.662  0.00  0.00    +0.147 HD
ENDROOT
BRANCH  12  15
ATOM     15  C   UNL     1       5.373   9.435   0.803  0.00  0.00    -0.020 A 
ATOM     16  C   UNL     1       6.683   9.310   0.380  0.00  0.00    +0.055 A 
ATOM     17  C   UNL     1       7.535  10.404   0.422  0.00  0.00    +0.165 A 
ATOM     18  C   UNL     1       7.072  11.624   0.901  0.00  0.00    +0.204 A 
ATOM     19  C   UNL     1       5.756  11.744   1.330  0.00  0.00    +0.165 A 
ATOM     20  C   UNL     1       4.909  10.647   1.279  0.00  0.00    +0.055 A 
BRANCH  19  21
ATOM     21  O   UNL     1       5.299  12.936   1.800  0.00  0.00    -0.491 OA
ATOM     22  C   UNL     1       3.935  12.986   2.224  0.00  0.00    +0.277 C 
ENDBRANCH  19  21
BRANCH  18  23
ATOM     23  O   UNL     1       7.906  12.698   0.950  0.00  0.00    -0.488 OA
ATOM     24  C   UNL     1       8.658  12.882   2.151  0.00  0.00    +0.277 C 
ENDBRANCH  18  23
BRANCH  17  25
ATOM     25  O   UNL     1       8.822  10.282   0.001  0.00  0.00    -0.491 OA
ATOM     26  C   UNL     1       9.228   8.998  -0.479  0.00  0.00    +0.277 C 
ENDBRANCH  17  25
ENDBRANCH  12  15
BRANCH   1  27
ATOM     27  S   UNL     1       3.576   1.709  -1.013  0.00  0.00    +0.072 S 
ATOM     28  O   UNL     1       4.710   0.866  -0.859  0.00  0.00    -0.150 OA
ATOM     29  O   UNL     1       2.963   1.938  -2.275  0.00  0.00    -0.150 OA
BRANCH  27  30
ATOM     30  N   UNL     1       2.399   1.106  -0.017  0.00  0.00    -0.216 N 
ATOM     31  H   UNL     1       1.515   0.919  -0.369  0.00  0.00    +0.174 HD
BRANCH  30  35
ATOM     32  C   UNL     1       3.235   0.393   4.004  0.00  0.00    +0.120 A 
ATOM     33  C   UNL     1       2.071   1.056   3.645  0.00  0.00    +0.047 A 
ATOM     34  C   UNL     1       1.790   1.288   2.312  0.00  0.00    +0.028 A 
ATOM     35  C   UNL     1       2.679   0.866   1.333  0.00  0.00    +0.048 A 
ATOM     36  C   UNL     1       3.848   0.207   1.693  0.00  0.00    +0.028 A 
ATOM     37  C   UNL     1       4.124  -0.028   3.026  0.00  0.00    +0.047 A 
BRANCH  32  39
ATOM     38  C   UNL     1       2.549   0.622   6.269  0.00  0.00    +0.277 C 
ATOM     39  O   UNL     1       3.508   0.161   5.316  0.00  0.00    -0.495 OA
ENDBRANCH  32  39
ENDBRANCH  30  35
ENDBRANCH  27  30
ENDBRANCH   1  27
TORSDOF 8
