REMARK  Name = ZINC39675834
REMARK  13 active torsions:
REMARK  status: ('A' for Active; 'I' for Inactive)
REMARK    1  A    between atoms: C_1  and  C_2
REMARK    2  A    between atoms: C_4  and  C_11
REMARK    3  A    between atoms: N_5  and  C_7
REMARK    4  A    between atoms: C_7  and  C_8
REMARK    5  A    between atoms: C_7  and  C_9
REMARK    6  A    between atoms: C_7  and  C_10
REMARK    7  A    between atoms: C_15  and  C_24
REMARK    8  A    between atoms: N_26  and  C_27
REMARK    9  A    between atoms: C_27  and  C_28
REMARK   10  A    between atoms: C_28  and  C_30
REMARK   11  A    between atoms: C_28  and  N_36
REMARK   12  A    between atoms: N_36  and  C_37
REMARK   13  A    between atoms: N_36  and  C_38
REMARK                            x       y       z     vdW  Elec       q    Type
REMARK                         _______ _______ _______ _____ _____    ______ ____
ROOT
ATOM      1  C   UNL     1      -3.394  -4.635   0.489  0.00  0.00    +0.265 C 
ATOM      2  O   UNL     1      -4.397  -4.264  -0.092  0.00  0.00    -0.268 OA
ATOM      3  N   UNL     1      -3.377  -4.691   1.835  0.00  0.00    -0.295 N 
ATOM      4  C   UNL     1      -2.492  -3.949   2.764  0.00  0.00    +0.121 C 
ATOM      5  C   UNL     1      -3.407  -3.559   3.946  0.00  0.00    +0.100 C 
ATOM      6  C   UNL     1      -4.550  -4.588   3.914  0.00  0.00    -0.004 C 
ATOM      7  C   UNL     1      -4.243  -5.505   2.722  0.00  0.00    +0.115 C 
ATOM      8  C   UNL     1      -5.887  -3.885   3.701  0.00  0.00    -0.010 C 
ATOM      9  C   UNL     1      -7.013  -4.923   3.730  0.00  0.00    -0.082 C 
ATOM     10  N   UNL     1      -7.005  -5.621   5.021  0.00  0.00    +0.379 N 
ATOM     11  C   UNL     1      -5.752  -6.370   5.178  0.00  0.00    -0.082 C 
ATOM     12  C   UNL     1      -4.572  -5.394   5.210  0.00  0.00    -0.010 C 
ATOM     13  H   UNL     1      -7.087  -4.947   5.767  0.00  0.00    -0.086 HD
ATOM     14  H   UNL     1      -7.784  -6.260   5.062  0.00  0.00    -0.086 HD
ENDROOT
BRANCH   1  18
ATOM     15  C   UNL     1      -0.118  -7.044  -2.542  0.00  0.00    +0.067 C 
ATOM     16  C   UNL     1      -0.760  -6.061  -1.598  0.00  0.00    +0.061 A 
ATOM     17  C   UNL     1      -2.062  -6.130  -1.097  0.00  0.00    +0.057 A 
ATOM     18  C   UNL     1      -2.200  -5.023  -0.279  0.00  0.00    +0.124 A 
ATOM     19  N   UNL     1      -1.006  -4.360  -0.329  0.00  0.00    -0.254 N 
ATOM     20  N   UNL     1      -0.194  -4.992  -1.098  0.00  0.00    -0.175 NA
BRANCH  19  21
ATOM     21  C   UNL     1      -0.698  -3.122   0.390  0.00  0.00    +0.056 C 
ATOM     22  C   UNL     1       0.090  -3.452   1.660  0.00  0.00    +0.036 C 
ATOM     23  C   UNL     1       0.139  -2.207  -0.506  0.00  0.00    +0.036 C 
ATOM     24  C   UNL     1      -2.000  -2.413   0.768  0.00  0.00    +0.036 C 
ENDBRANCH  19  21
ENDBRANCH   1  18
BRANCH   5  25
ATOM     25  C   UNL     1      -2.651  -3.651   5.247  0.00  0.00    +0.218 C 
ATOM     26  O   UNL     1      -1.695  -4.391   5.342  0.00  0.00    -0.275 OA
ATOM     27  N   UNL     1      -3.038  -2.911   6.305  0.00  0.00    -0.316 N 
ATOM     28  H   UNL     1      -3.845  -2.375   6.253  0.00  0.00    +0.149 HD
BRANCH  27  29
ATOM     29  C   UNL     1      -2.241  -2.917   7.534  0.00  0.00    +0.093 C 
BRANCH  29  30
ATOM     30  C   UNL     1      -2.958  -2.101   8.611  0.00  0.00    -0.021 C 
BRANCH  30  31
ATOM     31  C   UNL     1      -4.209  -2.826   9.039  0.00  0.00    -0.059 A 
ATOM     32  C   UNL     1      -4.128  -3.871   9.940  0.00  0.00    +0.002 A 
ATOM     33  C   UNL     1      -5.275  -4.535  10.333  0.00  0.00    +0.000 A 
ATOM     34  C   UNL     1      -6.503  -4.154   9.825  0.00  0.00    +0.000 A 
ATOM     35  C   UNL     1      -6.584  -3.108   8.925  0.00  0.00    +0.000 A 
ATOM     36  C   UNL     1      -5.437  -2.441   8.536  0.00  0.00    +0.002 A 
ENDBRANCH  30  31
BRANCH  30  37
ATOM     37  N   UNL     1      -2.071  -1.931   9.769  0.00  0.00    +0.382 N 
ATOM     38  C   UNL     1      -0.906  -1.125   9.379  0.00  0.00    -0.096 C 
ATOM     39  C   UNL     1      -2.798  -1.250  10.848  0.00  0.00    -0.096 C 
ATOM     40  H   UNL     1      -1.761  -2.836  10.091  0.00  0.00    -0.082 HD
ENDBRANCH  30  37
ENDBRANCH  29  30
ENDBRANCH  27  29
ENDBRANCH   5  25
TORSDOF 7
