REMARK  Name = ZINC20166675
REMARK  2 active torsions:
REMARK  status: ('A' for Active; 'I' for Inactive)
REMARK    1  A    between atoms: C_9  and  C_12
REMARK    2  A    between atoms: C_23  and  C_25
REMARK                            x       y       z     vdW  Elec       q    Type
REMARK                         _______ _______ _______ _____ _____    ______ ____
ROOT
ATOM      1  C   UNL     1      -0.014   1.209   0.009  0.00  0.00    +0.257 C 
ATOM      2  O   UNL     1       0.071   0.007   0.152  0.00  0.00    -0.272 OA
ATOM      3  N   UNL     1      -1.220   1.780  -0.183  0.00  0.00    -0.284 N 
ATOM      4  C   UNL     1      -1.336   3.218  -0.467  0.00  0.00    +0.115 C 
ATOM      5  C   UNL     1      -1.917   3.402  -1.880  0.00  0.00    +0.076 C 
ATOM      6  C   UNL     1      -3.090   2.469  -2.049  0.00  0.00    +0.066 A 
ATOM      7  C   UNL     1      -3.328   1.393  -1.267  0.00  0.00    +0.065 A 
ATOM      8  N   UNL     1      -4.460   0.800  -1.730  0.00  0.00    -0.346 N 
ATOM      9  H   UNL     1      -4.846  -0.107  -1.241  0.00  0.00    +0.167 HD
ATOM     10  C   UNL     1      -4.888   1.534  -2.784  0.00  0.00    +0.197 A 
ATOM     11  N   UNL     1      -4.061   2.531  -2.965  0.00  0.00    -0.240 NA
ATOM     12  C   UNL     1      -2.456   0.980  -0.107  0.00  0.00    +0.173 C 
ENDROOT
BRANCH   1  21
ATOM     13  C   UNL     1       6.079   2.911   0.783  0.00  0.00    +0.000 A 
ATOM     14  C   UNL     1       5.984   1.668   0.185  0.00  0.00    +0.004 A 
ATOM     15  C   UNL     1       4.745   1.115  -0.062  0.00  0.00    +0.046 A 
ATOM     16  C   UNL     1       3.588   1.805   0.288  0.00  0.00    +0.125 A 
ATOM     17  C   UNL     1       3.686   3.050   0.883  0.00  0.00    -0.006 A 
ATOM     18  C   UNL     1       4.933   3.600   1.130  0.00  0.00    +0.007 A 
ATOM     19  C   UNL     1       2.458   3.836   1.268  0.00  0.00    +0.043 C 
ATOM     20  C   UNL     1       1.245   2.904   1.321  0.00  0.00    +0.059 C 
ATOM     21  C   UNL     1       1.228   2.062   0.039  0.00  0.00    +0.259 C 
ATOM     22  O   UNL     1       2.386   1.226   0.033  0.00  0.00    -0.479 OA
ENDBRANCH   1  21
BRANCH  12  23
ATOM     23  C   UNL     1      -3.167   1.257   1.192  0.00  0.00    +0.068 A 
ATOM     24  C   UNL     1      -4.022   0.307   1.720  0.00  0.00    +0.025 A 
ATOM     25  C   UNL     1      -4.667   0.569   2.918  0.00  0.00    +0.003 A 
ATOM     26  C   UNL     1      -4.436   1.788   3.539  0.00  0.00    +0.020 A 
ATOM     27  C   UNL     1      -3.572   2.691   2.950  0.00  0.00    +0.111 A 
ATOM     28  N   UNL     1      -2.971   2.405   1.811  0.00  0.00    -0.258 NA
ENDBRANCH  12  23
TORSDOF 2
