REMARK  Name = ZINC35761394
REMARK  12 active torsions:
REMARK  status: ('A' for Active; 'I' for Inactive)
REMARK    1  A    between atoms: C_1  and  C_2
REMARK    2  A    between atoms: C_2  and  C_3
REMARK    3  A    between atoms: C_3  and  N_4
REMARK    4  A    between atoms: N_4  and  C_5
REMARK    5  A    between atoms: C_5  and  C_6
REMARK    6  A    between atoms: N_8  and  C_9
REMARK    7  A    between atoms: N_8  and  C_21
REMARK    8  A    between atoms: C_9  and  C_10
REMARK    9  A    between atoms: C_10  and  C_11
REMARK   10  A    between atoms: C_21  and  C_22
REMARK   11  A    between atoms: C_25  and  C_28
REMARK   12  A    between atoms: C_29  and  C_31
REMARK                            x       y       z     vdW  Elec       q    Type
REMARK                         _______ _______ _______ _____ _____    ______ ____
ROOT
ATOM      1  C   UNL     1       0.046  -2.920  -3.797  0.00  0.00    +0.233 C 
ATOM      2  O   UNL     1       0.971  -2.611  -4.517  0.00  0.00    -0.274 OA
ATOM      3  N   UNL     1      -1.094  -3.399  -4.332  0.00  0.00    -0.296 N 
ENDROOT
BRANCH   1   4
ATOM      4  C   UNL     1       0.172  -2.769  -2.302  0.00  0.00    +0.203 C 
BRANCH   4   5
ATOM      5  N   UNL     1       1.489  -2.218  -1.976  0.00  0.00    -0.289 N 
ATOM      6  C   UNL     1       2.529  -3.046  -1.753  0.00  0.00    +0.248 C 
ATOM      7  O   UNL     1       2.398  -4.244  -1.913  0.00  0.00    -0.270 OA
BRANCH   6   8
ATOM      8  C   UNL     1       3.827  -2.498  -1.315  0.00  0.00    +0.045 A 
ATOM      9  C   UNL     1       4.512  -1.594  -2.114  0.00  0.00    +0.014 A 
ATOM     10  C   UNL     1       5.734  -1.075  -1.707  0.00  0.00    +0.001 A 
ATOM     11  C   UNL     1       6.294  -1.436  -0.518  0.00  0.00    +0.008 A 
ATOM     12  C   UNL     1       5.635  -2.349   0.324  0.00  0.00    -0.017 A 
ATOM     13  C   UNL     1       4.385  -2.885  -0.071  0.00  0.00    -0.006 A 
ATOM     14  C   UNL     1       3.726  -3.792   0.770  0.00  0.00    +0.009 A 
ATOM     15  C   UNL     1       4.292  -4.142   1.959  0.00  0.00    +0.001 A 
ATOM     16  C   UNL     1       5.519  -3.611   2.353  0.00  0.00    +0.001 A 
ATOM     17  C   UNL     1       6.192  -2.738   1.554  0.00  0.00    +0.008 A 
ENDBRANCH   6   8
BRANCH   5  18
ATOM     18  C   UNL     1       1.677  -0.767  -1.893  0.00  0.00    +0.108 C 
BRANCH  18  20
ATOM     19  C   UNL     1       1.540   1.224  -0.390  0.00  0.00    +0.005 C 
ATOM     20  C   UNL     1       1.345  -0.291  -0.477  0.00  0.00    +0.016 C 
ENDBRANCH  18  20
ENDBRANCH   5  18
ENDBRANCH   4   5
ENDBRANCH   1   4
BRANCH   3  21
ATOM     21  C   UNL     1      -1.253  -3.454  -5.787  0.00  0.00    +0.113 C 
BRANCH  21  22
ATOM     22  C   UNL     1      -0.746  -4.802  -6.305  0.00  0.00    +0.056 C 
BRANCH  22  23
ATOM     23  C   UNL     1      -0.909  -4.859  -7.802  0.00  0.00    -0.021 A 
ATOM     24  C   UNL     1      -1.945  -5.388  -8.472  0.00  0.00    +0.087 A 
ATOM     25  N   UNL     1      -1.745  -5.258  -9.819  0.00  0.00    -0.360 N 
ATOM     26  H   UNL     1      -2.357  -5.565 -10.506  0.00  0.00    +0.165 HD
ATOM     27  C   UNL     1      -0.544  -4.625 -10.055  0.00  0.00    +0.047 A 
ATOM     28  C   UNL     1       0.028  -4.342  -8.801  0.00  0.00    +0.003 A 
ATOM     29  C   UNL     1       1.261  -3.691  -8.730  0.00  0.00    +0.010 A 
ATOM     30  C   UNL     1       1.904  -3.327  -9.880  0.00  0.00    +0.001 A 
ATOM     31  C   UNL     1       1.341  -3.600 -11.118  0.00  0.00    +0.002 A 
ATOM     32  C   UNL     1       0.130  -4.251 -11.212  0.00  0.00    +0.026 A 
ENDBRANCH  22  23
ENDBRANCH  21  22
ENDBRANCH   3  21
BRANCH   3  33
ATOM     33  C   UNL     1      -2.175  -3.864  -3.459  0.00  0.00    +0.143 C 
BRANCH  33  34
ATOM     34  C   UNL     1      -3.154  -2.741  -3.229  0.00  0.00    -0.030 A 
ATOM     35  C   UNL     1      -3.045  -1.948  -2.102  0.00  0.00    +0.005 A 
ATOM     36  C   UNL     1      -3.942  -0.919  -1.892  0.00  0.00    +0.003 A 
ATOM     37  C   UNL     1      -4.949  -0.681  -2.809  0.00  0.00    -0.050 A 
ATOM     38  C   UNL     1      -5.058  -1.473  -3.937  0.00  0.00    +0.003 A 
ATOM     39  C   UNL     1      -4.157  -2.500  -4.149  0.00  0.00    +0.005 A 
ATOM     40  C   UNL     1      -5.928   0.441  -2.579  0.00  0.00    +0.044 C 
ENDBRANCH  33  34
ENDBRANCH   3  33
TORSDOF 10
