REMARK  Name = ZINC45834592
REMARK  5 active torsions:
REMARK  status: ('A' for Active; 'I' for Inactive)
REMARK    1  A    between atoms: C_1  and  C_2
REMARK    2  A    between atoms: C_2  and  C_4
REMARK    3  A    between atoms: C_2  and  N_14
REMARK    4  A    between atoms: C_7  and  N_10
REMARK    5  A    between atoms: C_15  and  C_17
REMARK                            x       y       z     vdW  Elec       q    Type
REMARK                         _______ _______ _______ _____ _____    ______ ____
ROOT
ATOM      1  C   UNL     1      -0.191   1.534  -0.099  0.00  0.00    +0.033 C 
ATOM      2  C   UNL     1       0.012   0.021  -0.002  0.00  0.00    +0.100 C 
ENDROOT
BRANCH   2   3
ATOM      3  C   UNL     1       0.715  -0.472  -1.241  0.00  0.00    -0.027 A 
ATOM      4  C   UNL     1       2.086  -0.335  -1.357  0.00  0.00    +0.007 A 
ATOM      5  C   UNL     1       2.733  -0.785  -2.491  0.00  0.00    +0.023 A 
ATOM      6  C   UNL     1       2.005  -1.376  -3.515  0.00  0.00    +0.035 A 
ATOM      7  C   UNL     1       0.628  -1.513  -3.396  0.00  0.00    +0.023 A 
ATOM      8  C   UNL     1      -0.012  -1.065  -2.257  0.00  0.00    +0.007 A 
BRANCH   6   9
ATOM      9  N   UNL     1       2.658  -1.833  -4.666  0.00  0.00    -0.270 N 
ATOM     10  C   UNL     1       3.907  -2.331  -4.579  0.00  0.00    +0.301 C 
ATOM     11  O   UNL     1       4.431  -2.473  -3.491  0.00  0.00    -0.253 OA
ATOM     12  N   UNL     1       4.576  -2.671  -5.699  0.00  0.00    -0.313 N 
ATOM     13  H   UNL     1       2.211  -1.792  -5.526  0.00  0.00    +0.156 HD
ATOM     14  H   UNL     1       4.158  -2.558  -6.567  0.00  0.00    +0.146 HD
ATOM     15  H   UNL     1       5.475  -3.030  -5.636  0.00  0.00    +0.146 HD
ENDBRANCH   6   9
ENDBRANCH   2   3
BRANCH   2  16
ATOM     16  N   UNL     1       0.826  -0.288   1.176  0.00  0.00    -0.304 N 
ATOM     17  C   UNL     1       0.241  -0.420   2.383  0.00  0.00    +0.251 C 
ATOM     18  O   UNL     1      -0.964  -0.282   2.494  0.00  0.00    -0.270 OA
ATOM     19  H   UNL     1       1.785  -0.398   1.088  0.00  0.00    +0.150 HD
BRANCH  17  20
ATOM     20  C   UNL     1       1.028  -0.719   3.524  0.00  0.00    +0.078 A 
ATOM     21  C   UNL     1       0.623  -0.898   4.834  0.00  0.00    +0.049 A 
ATOM     22  C   UNL     1       1.569  -1.188   5.803  0.00  0.00    +0.082 A 
ATOM     23  C   UNL     1       2.899  -1.280   5.376  0.00  0.00    +0.128 A 
ATOM     24  S   UNL     1       2.792  -0.968   3.631  0.00  0.00    -0.063 S 
ATOM     25  N   UNL     1       3.674  -1.560   6.415  0.00  0.00    -0.214 NA
ATOM     26  C   UNL     1       2.936  -1.655   7.489  0.00  0.00    +0.179 A 
ATOM     27  N   UNL     1       1.617  -1.439   7.201  0.00  0.00    -0.293 N 
ATOM     28  C   UNL     1       0.726  -1.510   8.249  0.00  0.00    +0.101 A 
ATOM     29  C   UNL     1       1.148  -1.779   9.484  0.00  0.00    +0.067 A 
ATOM     30  S   UNL     1       2.908  -1.958   9.242  0.00  0.00    -0.058 S 
ENDBRANCH  17  20
ENDBRANCH   2  16
TORSDOF 4
