REMARK  Name = ZINC09239400
REMARK  6 active torsions:
REMARK  status: ('A' for Active; 'I' for Inactive)
REMARK    1  A    between atoms: C_1  and  C_2
REMARK    2  A    between atoms: C_2  and  C_3
REMARK    3  A    between atoms: C_3  and  C_4
REMARK    4  A    between atoms: C_10  and  C_25
REMARK    5  A    between atoms: C_12  and  C_15
REMARK    6  A    between atoms: N_17  and  C_18
REMARK                            x       y       z     vdW  Elec       q    Type
REMARK                         _______ _______ _______ _____ _____    ______ ____
ROOT
ATOM      1  C   UNL     1       2.797   6.240  -1.937  0.00  0.00    +0.151 A 
ATOM      2  N   UNL     1       2.669   7.487  -1.577  0.00  0.00    -0.132 NA
ATOM      3  N   UNL     1       2.086   7.561  -0.431  0.00  0.00    -0.121 NA
ATOM      4  C   UNL     1       1.810   6.359  -0.006  0.00  0.00    +0.209 A 
ATOM      5  N   UNL     1       2.259   5.473  -0.944  0.00  0.00    -0.225 N 
ATOM      6  N   UNL     1       2.186   4.118  -0.890  0.00  0.00    -0.272 N 
ATOM      7  C   UNL     1       1.147   3.619   0.012  0.00  0.00    +0.140 C 
ATOM      8  C   UNL     1       1.400   4.115   1.442  0.00  0.00    +0.166 C 
ATOM      9  S   UNL     1       1.003   5.890   1.492  0.00  0.00    -0.069 S 
ATOM     10  H   UNL     1       2.083   3.724  -1.813  0.00  0.00    +0.167 HD
ENDROOT
BRANCH   7  11
ATOM     11  C   UNL     1       1.157   2.112  -0.001  0.00  0.00    -0.024 A 
ATOM     12  C   UNL     1      -0.036   1.413   0.005  0.00  0.00    +0.007 A 
ATOM     13  C   UNL     1      -0.028   0.031  -0.008  0.00  0.00    +0.020 A 
ATOM     14  C   UNL     1       1.175  -0.653  -0.027  0.00  0.00    +0.041 A 
ATOM     15  C   UNL     1       2.368   0.047  -0.033  0.00  0.00    +0.020 A 
ATOM     16  C   UNL     1       2.358   1.429  -0.020  0.00  0.00    +0.007 A 
ATOM     17 CL   UNL     1       1.186  -2.389  -0.042  0.00  0.00    -0.084 Cl
ENDBRANCH   7  11
BRANCH   8  18
ATOM     18  C   UNL     1       2.846   3.901   1.808  0.00  0.00    +0.233 C 
ATOM     19  O   UNL     1       3.709   4.022   0.965  0.00  0.00    -0.274 OA
ATOM     20  N   UNL     1       3.179   3.575   3.072  0.00  0.00    -0.282 N 
ATOM     21  H   UNL     1       2.497   3.542   3.761  0.00  0.00    +0.155 HD
BRANCH  20  22
ATOM     22  C   UNL     1       4.512   3.285   3.392  0.00  0.00    +0.069 A 
ATOM     23  C   UNL     1       5.543   3.958   2.752  0.00  0.00    +0.026 A 
ATOM     24  C   UNL     1       6.856   3.673   3.073  0.00  0.00    +0.002 A 
ATOM     25  C   UNL     1       7.145   2.712   4.024  0.00  0.00    +0.003 A 
ATOM     26  C   UNL     1       6.121   2.035   4.661  0.00  0.00    +0.040 A 
ATOM     27  C   UNL     1       4.804   2.319   4.348  0.00  0.00    +0.144 A 
ATOM     28  F   UNL     1       3.804   1.658   4.971  0.00  0.00    -0.204 F 
ENDBRANCH  20  22
ENDBRANCH   8  18
BRANCH   1  29
ATOM     29  C   UNL     1       3.424   5.738  -3.213  0.00  0.00    +0.078 C 
BRANCH  29  31
ATOM     30  C   UNL     1       2.987   5.115  -5.592  0.00  0.00    +0.004 C 
ATOM     31  C   UNL     1       2.351   5.624  -4.297  0.00  0.00    +0.004 C 
ENDBRANCH  29  31
ENDBRANCH   1  29
TORSDOF 5
