REMARK  Name = ZINC39685165
REMARK  9 active torsions:
REMARK  status: ('A' for Active; 'I' for Inactive)
REMARK    1  A    between atoms: C_1  and  C_2
REMARK    2  A    between atoms: C_4  and  C_7
REMARK    3  A    between atoms: C_8  and  C_13
REMARK    4  A    between atoms: C_9  and  C_12
REMARK    5  A    between atoms: C_17  and  C_26
REMARK    6  A    between atoms: N_28  and  C_29
REMARK    7  A    between atoms: C_29  and  C_30
REMARK    8  A    between atoms: C_30  and  O_31
REMARK    9  A    between atoms: O_31  and  C_32
REMARK                            x       y       z     vdW  Elec       q    Type
REMARK                         _______ _______ _______ _____ _____    ______ ____
ROOT
ATOM      1  C   UNL     1       0.498  -5.209   0.017  0.00  0.00    +0.252 C 
ATOM      2  O   UNL     1       1.120  -5.355   1.052  0.00  0.00    -0.270 OA
ATOM      3  N   UNL     1       1.117  -5.371  -1.169  0.00  0.00    -0.296 N 
ATOM      4  C   UNL     1       0.534  -5.231  -2.524  0.00  0.00    +0.121 C 
ATOM      5  C   UNL     1       1.637  -4.536  -3.353  0.00  0.00    +0.100 C 
ATOM      6  C   UNL     1       2.948  -4.869  -2.620  0.00  0.00    -0.004 C 
ATOM      7  C   UNL     1       2.536  -5.724  -1.413  0.00  0.00    +0.115 C 
ATOM      8  C   UNL     1       3.879  -5.659  -3.535  0.00  0.00    -0.010 C 
ATOM      9  C   UNL     1       5.197  -5.928  -2.804  0.00  0.00    -0.082 C 
ATOM     10  N   UNL     1       5.817  -4.653  -2.424  0.00  0.00    +0.379 N 
ATOM     11  C   UNL     1       4.957  -3.942  -1.471  0.00  0.00    -0.082 C 
ATOM     12  C   UNL     1       3.628  -3.589  -2.146  0.00  0.00    -0.010 C 
ATOM     13  H   UNL     1       6.714  -4.831  -1.997  0.00  0.00    -0.086 HD
ATOM     14  H   UNL     1       5.947  -4.084  -3.248  0.00  0.00    -0.086 HD
ENDROOT
BRANCH   1  16
ATOM     15  C   UNL     1      -1.461  -3.574   0.076  0.00  0.00    +0.201 A 
ATOM     16  C   UNL     1      -0.931  -4.856   0.060  0.00  0.00    +0.108 A 
ATOM     17  C   UNL     1      -2.020  -5.761   0.092  0.00  0.00    +0.093 A 
ATOM     18  N   UNL     1      -3.120  -5.071   0.125  0.00  0.00    -0.082 NA
ATOM     19  O   UNL     1      -2.797  -3.694   0.121  0.00  0.00    -0.352 OA
ATOM     20  C   UNL     1      -1.920  -7.265   0.089  0.00  0.00    +0.070 C 
BRANCH  15  24
ATOM     21  C   UNL     1      -0.350   1.377   0.053  0.00  0.00    +0.089 C 
ATOM     22  C   UNL     1      -0.222  -0.124   0.045  0.00  0.00    +0.135 A 
ATOM     23  C   UNL     1      -1.241  -1.001   0.076  0.00  0.00    +0.079 A 
ATOM     24  C   UNL     1      -0.695  -2.309   0.054  0.00  0.00    +0.152 A 
ATOM     25  N   UNL     1       0.612  -2.196   0.011  0.00  0.00    -0.075 NA
ATOM     26  O   UNL     1       0.927  -0.815  -0.001  0.00  0.00    -0.359 OA
ENDBRANCH  15  24
ENDBRANCH   1  16
BRANCH   5  27
ATOM     27  C   UNL     1       1.664  -5.086  -4.756  0.00  0.00    +0.218 C 
ATOM     28  O   UNL     1       1.342  -6.237  -4.963  0.00  0.00    -0.275 OA
ATOM     29  N   UNL     1       2.045  -4.298  -5.782  0.00  0.00    -0.312 N 
ATOM     30  H   UNL     1       2.302  -3.378  -5.617  0.00  0.00    +0.149 HD
BRANCH  29  31
ATOM     31  C   UNL     1       2.070  -4.833  -7.146  0.00  0.00    +0.145 C 
BRANCH  31  32
ATOM     32  C   UNL     1       2.535  -3.742  -8.112  0.00  0.00    +0.248 C 
BRANCH  32  33
ATOM     33  O   UNL     1       3.889  -3.390  -7.818  0.00  0.00    -0.488 OA
BRANCH  33  34
ATOM     34  C   UNL     1       4.459  -2.428  -8.591  0.00  0.00    +0.156 A 
ATOM     35  C   UNL     1       3.728  -1.830  -9.607  0.00  0.00    +0.048 A 
ATOM     36  C   UNL     1       4.309  -0.852 -10.391  0.00  0.00    +0.004 A 
ATOM     37  C   UNL     1       5.618  -0.469 -10.165  0.00  0.00    +0.003 A 
ATOM     38  C   UNL     1       6.350  -1.062  -9.154  0.00  0.00    +0.042 A 
ATOM     39  C   UNL     1       5.772  -2.037  -8.361  0.00  0.00    +0.165 A 
ATOM     40  F   UNL     1       6.485  -2.613  -7.369  0.00  0.00    -0.202 F 
ENDBRANCH  33  34
ENDBRANCH  32  33
ENDBRANCH  31  32
ENDBRANCH  29  31
ENDBRANCH   5  27
TORSDOF 7
