REMARK  Name = ZINC39662831
REMARK  5 active torsions:
REMARK  status: ('A' for Active; 'I' for Inactive)
REMARK    1  A    between atoms: C_3  and  C_8
REMARK    2  A    between atoms: C_12  and  C_21
REMARK    3  A    between atoms: N_23  and  C_24
REMARK    4  A    between atoms: C_24  and  C_25
REMARK    5  A    between atoms: C_28  and  C_31
REMARK                            x       y       z     vdW  Elec       q    Type
REMARK                         _______ _______ _______ _____ _____    ______ ____
ROOT
ATOM      1  C   UNL     1       3.693   2.048  -1.238  0.00  0.00    +0.219 C 
ATOM      2  O   UNL     1       4.014   3.013  -0.578  0.00  0.00    -0.275 OA
ATOM      3  N   UNL     1       4.517   1.585  -2.200  0.00  0.00    -0.300 N 
ATOM      4  C   UNL     1       4.298   0.433  -3.106  0.00  0.00    +0.121 C 
ATOM      5  C   UNL     1       4.854   0.899  -4.471  0.00  0.00    +0.100 C 
ATOM      6  C   UNL     1       5.869   2.001  -4.125  0.00  0.00    -0.004 C 
ATOM      7  C   UNL     1       5.843   2.119  -2.595  0.00  0.00    +0.115 C 
ATOM      8  C   UNL     1       7.263   1.603  -4.602  0.00  0.00    -0.010 C 
ATOM      9  C   UNL     1       8.244   2.739  -4.299  0.00  0.00    -0.082 C 
ATOM     10  N   UNL     1       7.804   3.963  -4.980  0.00  0.00    +0.379 N 
ATOM     11  C   UNL     1       6.503   4.391  -4.450  0.00  0.00    -0.082 C 
ATOM     12  C   UNL     1       5.449   3.324  -4.758  0.00  0.00    -0.010 C 
ATOM     13  H   UNL     1       8.483   4.693  -4.829  0.00  0.00    -0.086 HD
ATOM     14  H   UNL     1       7.720   3.784  -5.969  0.00  0.00    -0.086 HD
ENDROOT
BRANCH   1  17
ATOM     15  C   UNL     1       0.229   1.486   0.266  0.00  0.00    +0.027 C 
ATOM     16  C   UNL     1       1.634   2.081   0.153  0.00  0.00    +0.017 C 
ATOM     17  C   UNL     1       2.374   1.365  -0.983  0.00  0.00    +0.079 C 
ATOM     18  C   UNL     1       2.615  -0.087  -0.565  0.00  0.00    +0.039 C 
ATOM     19  C   UNL     1       1.340  -0.697  -0.058  0.00  0.00    -0.030 C 
ATOM     20  C   UNL     1       0.304  -0.013   0.307  0.00  0.00    -0.031 C 
ENDBRANCH   1  17
BRANCH   5  21
ATOM     21  C   UNL     1       5.536  -0.244  -5.177  0.00  0.00    +0.218 C 
ATOM     22  O   UNL     1       6.079  -1.117  -4.534  0.00  0.00    -0.275 OA
ATOM     23  N   UNL     1       5.543  -0.295  -6.524  0.00  0.00    -0.315 N 
ATOM     24  H   UNL     1       5.109   0.403  -7.038  0.00  0.00    +0.149 HD
BRANCH  23  25
ATOM     25  C   UNL     1       6.206  -1.406  -7.211  0.00  0.00    +0.107 C 
BRANCH  25  26
ATOM     26  C   UNL     1       6.068  -1.225  -8.724  0.00  0.00    +0.006 C 
ATOM     27  C   UNL     1       4.593  -1.328  -9.118  0.00  0.00    +0.006 C 
ATOM     28  C   UNL     1       4.053  -2.703  -8.718  0.00  0.00    +0.015 C 
ATOM     29  C   UNL     1       4.850  -3.793  -9.437  0.00  0.00    +0.102 C 
ATOM     30  C   UNL     1       6.325  -3.690  -9.043  0.00  0.00    +0.015 C 
ATOM     31  C   UNL     1       6.865  -2.316  -9.443  0.00  0.00    +0.006 C 
BRANCH  29  32
ATOM     32  C   UNL     1       4.318  -5.147  -9.042  0.00  0.00    +0.359 C 
ATOM     33  O   UNL     1       4.213  -6.027  -9.879  0.00  0.00    -0.246 OA
ATOM     34  O   UNL     1       3.993  -5.361  -7.887  0.00  0.00    -0.246 OA
ENDBRANCH  29  32
ENDBRANCH  25  26
ENDBRANCH  23  25
ENDBRANCH   5  21
TORSDOF 5
