REMARK  Name = ZINC01871634
REMARK  11 active torsions:
REMARK  status: ('A' for Active; 'I' for Inactive)
REMARK    1  A    between atoms: C_1  and  C_2
REMARK    2  A    between atoms: C_1  and  C_7
REMARK    3  A    between atoms: C_2  and  C_3
REMARK    4  A    between atoms: N_13  and  C_14
REMARK    5  A    between atoms: N_13  and  C_16
REMARK    6  A    between atoms: C_14  and  O_15
REMARK    7  A    between atoms: C_16  and  O_17
REMARK    8  A    between atoms: N_18  and  C_19
REMARK    9  A    between atoms: N_18  and  C_21
REMARK   10  A    between atoms: C_19  and  O_20
REMARK   11  A    between atoms: C_21  and  O_22
REMARK                            x       y       z     vdW  Elec       q    Type
REMARK                         _______ _______ _______ _____ _____    ______ ____
ROOT
ATOM      1  C   UNL     1      -0.718   1.572   1.248  0.00  0.00    +0.136 A 
ATOM      2  N   UNL     1      -0.374   2.726   1.792  0.00  0.00    -0.199 NA
ATOM      3  C   UNL     1      -0.998   3.161   2.885  0.00  0.00    +0.226 A 
ATOM      4  N   UNL     1      -1.961   2.428   3.434  0.00  0.00    -0.181 NA
ATOM      5  C   UNL     1      -2.300   1.266   2.887  0.00  0.00    +0.226 A 
ATOM      6  N   UNL     1      -1.675   0.840   1.791  0.00  0.00    -0.199 NA
ATOM      7  N   UNL     1      -3.299   0.501   3.454  0.00  0.00    -0.253 N 
ATOM      8  N   UNL     1      -0.642   4.369   3.449  0.00  0.00    -0.253 N 
ENDROOT
BRANCH   1   9
ATOM      9  C   UNL     1      -0.013   1.086   0.008  0.00  0.00    +0.079 C 
BRANCH   9  10
ATOM     10  C   UNL     1      -0.753   1.593  -1.232  0.00  0.00    +0.049 C 
BRANCH  10  11
ATOM     11  C   UNL     1      -0.037   1.099  -2.490  0.00  0.00    +0.135 C 
ATOM     12 BR   UNL     1      -0.010  -0.867  -2.501  0.00  0.00    -0.060 Br
ATOM     13 BR   UNL     1      -0.987   1.750  -4.083  0.00  0.00    -0.060 Br
ATOM     14 BR   UNL     1       1.808   1.780  -2.504  0.00  0.00    -0.060 Br
ENDBRANCH  10  11
ENDBRANCH   9  10
ENDBRANCH   1   9
BRANCH   7  15
ATOM     15  C   UNL     1      -3.986   0.970   4.659  0.00  0.00    +0.269 C 
BRANCH  15  16
ATOM     16  O   UNL     1      -5.290   1.441   4.311  0.00  0.00    -0.377 OA
ATOM     17  H   UNL     1      -5.803   1.768   5.063  0.00  0.00    +0.211 HD
ENDBRANCH  15  16
ENDBRANCH   7  15
BRANCH   7  18
ATOM     18  C   UNL     1      -3.672  -0.781   2.850  0.00  0.00    +0.269 C 
BRANCH  18  19
ATOM     19  O   UNL     1      -2.670  -1.756   3.144  0.00  0.00    -0.377 OA
ATOM     20  H   UNL     1      -2.852  -2.631   2.775  0.00  0.00    +0.211 HD
ENDBRANCH  18  19
ENDBRANCH   7  18
BRANCH   8  21
ATOM     21  C   UNL     1      -1.325   4.843   4.655  0.00  0.00    +0.269 C 
BRANCH  21  22
ATOM     22  O   UNL     1      -0.467   4.679   5.785  0.00  0.00    -0.377 OA
ATOM     23  H   UNL     1      -0.855   4.973   6.620  0.00  0.00    +0.211 HD
ENDBRANCH  21  22
ENDBRANCH   8  21
BRANCH   8  24
ATOM     24  C   UNL     1       0.420   5.176   2.843  0.00  0.00    +0.269 C 
BRANCH  24  25
ATOM     25  O   UNL     1      -0.076   5.803   1.658  0.00  0.00    -0.377 OA
ATOM     26  H   UNL     1       0.575   6.354   1.203  0.00  0.00    +0.211 HD
ENDBRANCH  24  25
ENDBRANCH   8  24
TORSDOF 11
