REMARK  Name = ZINC13638771
REMARK  6 active torsions:
REMARK  status: ('A' for Active; 'I' for Inactive)
REMARK    1  A    between atoms: C_1  and  C_2
REMARK    2  A    between atoms: C_5  and  N_9
REMARK    3  A    between atoms: C_6  and  C_8
REMARK    4  A    between atoms: N_9  and  S_10
REMARK    5  A    between atoms: S_10  and  C_13
REMARK    6  A    between atoms: C_26  and  C_29
REMARK                            x       y       z     vdW  Elec       q    Type
REMARK                         _______ _______ _______ _____ _____    ______ ____
ROOT
ATOM      1  C   UNL     1       0.105  -2.878   0.149  0.00  0.00    +0.109 A 
ATOM      2  C   UNL     1      -1.059  -2.133   0.194  0.00  0.00    +0.030 A 
ATOM      3  C   UNL     1      -1.000  -0.757   0.267  0.00  0.00    +0.025 A 
ATOM      4  C   UNL     1       0.229  -0.108   0.293  0.00  0.00    +0.031 A 
ATOM      5  C   UNL     1       1.403  -0.867   0.234  0.00  0.00    -0.018 A 
ATOM      6  C   UNL     1       1.333  -2.242   0.169  0.00  0.00    +0.034 A 
ATOM      7  C   UNL     1       2.689  -0.136   0.222  0.00  0.00    +0.049 C 
ATOM      8  C   UNL     1       3.946  -0.752   0.719  0.00  0.00    -0.023 C 
ATOM      9  C   UNL     1       4.715   0.204   1.225  0.00  0.00    -0.030 C 
ATOM     10  C   UNL     1       4.001   1.554   1.132  0.00  0.00    +0.033 C 
ATOM     11  C   UNL     1       2.528   1.125   1.123  0.00  0.00    +0.029 C 
ATOM     12  C   UNL     1       1.548   2.024   0.392  0.00  0.00    +0.105 C 
ATOM     13  N   UNL     1       0.264   1.289   0.383  0.00  0.00    -0.336 N 
ATOM     14  H   UNL     1      -0.568   1.784   0.436  0.00  0.00    +0.147 HD
ENDROOT
BRANCH  12  15
ATOM     15  C   UNL     1       1.394   3.331   1.125  0.00  0.00    -0.027 A 
ATOM     16  C   UNL     1       0.630   3.393   2.275  0.00  0.00    +0.006 A 
ATOM     17  C   UNL     1       0.493   4.591   2.951  0.00  0.00    +0.015 A 
ATOM     18  C   UNL     1       1.111   5.731   2.469  0.00  0.00    +0.018 A 
ATOM     19  C   UNL     1       1.872   5.670   1.315  0.00  0.00    +0.015 A 
ATOM     20  C   UNL     1       2.013   4.470   0.643  0.00  0.00    +0.006 A 
ATOM     21 BR   UNL     1       0.918   7.372   3.388  0.00  0.00    -0.050 Br
ENDBRANCH  12  15
BRANCH   1  22
ATOM     22  S   UNL     1       0.025  -4.636   0.067  0.00  0.00    +0.072 S 
ATOM     23  O   UNL     1       1.255  -5.124   0.585  0.00  0.00    -0.150 OA
ATOM     24  O   UNL     1      -1.233  -5.011   0.611  0.00  0.00    -0.150 OA
BRANCH  22  25
ATOM     25  N   UNL     1      -0.011  -5.050  -1.536  0.00  0.00    -0.216 N 
ATOM     26  H   UNL     1      -0.769  -5.538  -1.894  0.00  0.00    +0.174 HD
BRANCH  25  31
ATOM     27  C   UNL     1       4.297  -3.610  -4.932  0.00  0.00    +0.044 C 
ATOM     28  C   UNL     1       3.152  -3.994  -4.030  0.00  0.00    -0.050 A 
ATOM     29  C   UNL     1       3.398  -4.352  -2.717  0.00  0.00    +0.005 A 
ATOM     30  C   UNL     1       2.351  -4.699  -1.886  0.00  0.00    +0.025 A 
ATOM     31  C   UNL     1       1.050  -4.696  -2.373  0.00  0.00    +0.051 A 
ATOM     32  C   UNL     1       0.806  -4.335  -3.692  0.00  0.00    -0.028 A 
ATOM     33  C   UNL     1       1.858  -3.986  -4.516  0.00  0.00    +0.008 A 
ATOM     34  C   UNL     1      -0.604  -4.325  -4.222  0.00  0.00    +0.046 C 
ENDBRANCH  25  31
ENDBRANCH  22  25
ENDBRANCH   1  22
TORSDOF 4
