REMARK  Name = ZINC14466080
REMARK  6 active torsions:
REMARK  status: ('A' for Active; 'I' for Inactive)
REMARK    1  A    between atoms: C_1  and  C_2
REMARK    2  A    between atoms: C_4  and  C_35
REMARK    3  A    between atoms: C_6  and  N_8
REMARK    4  A    between atoms: N_8  and  S_9
REMARK    5  A    between atoms: S_9  and  C_12
REMARK    6  A    between atoms: C_25  and  C_28
REMARK                            x       y       z     vdW  Elec       q    Type
REMARK                         _______ _______ _______ _____ _____    ______ ____
ROOT
ATOM      1  C   UNL     1      -4.739   4.547  -2.815  0.00  0.00    +0.109 A 
ATOM      2  C   UNL     1      -4.809   5.321  -3.960  0.00  0.00    +0.030 A 
ATOM      3  C   UNL     1      -3.680   5.534  -4.723  0.00  0.00    +0.025 A 
ATOM      4  C   UNL     1      -2.464   4.973  -4.348  0.00  0.00    +0.031 A 
ATOM      5  C   UNL     1      -2.403   4.180  -3.197  0.00  0.00    -0.018 A 
ATOM      6  C   UNL     1      -3.536   3.979  -2.438  0.00  0.00    +0.034 A 
ATOM      7  C   UNL     1      -1.097   3.583  -2.848  0.00  0.00    +0.049 C 
ATOM      8  C   UNL     1      -0.744   3.220  -1.452  0.00  0.00    -0.023 C 
ATOM      9  C   UNL     1       0.569   3.357  -1.297  0.00  0.00    -0.030 C 
ATOM     10  C   UNL     1       1.198   3.864  -2.596  0.00  0.00    +0.033 C 
ATOM     11  C   UNL     1       0.017   4.597  -3.247  0.00  0.00    +0.029 C 
ATOM     12  C   UNL     1       0.003   4.675  -4.763  0.00  0.00    +0.106 C 
ATOM     13  N   UNL     1      -1.324   5.234  -5.118  0.00  0.00    -0.336 N 
ATOM     14  H   UNL     1      -1.397   5.806  -5.898  0.00  0.00    +0.147 HD
ENDROOT
BRANCH  12  15
ATOM     15  C   UNL     1       1.113   5.572  -5.248  0.00  0.00    -0.009 A 
ATOM     16  C   UNL     1       0.859   6.904  -5.514  0.00  0.00    +0.007 A 
ATOM     17  C   UNL     1       1.876   7.727  -5.960  0.00  0.00    +0.000 A 
ATOM     18  C   UNL     1       3.149   7.217  -6.139  0.00  0.00    +0.001 A 
ATOM     19  C   UNL     1       3.404   5.885  -5.873  0.00  0.00    +0.020 A 
ATOM     20  C   UNL     1       2.387   5.063  -5.422  0.00  0.00    +0.046 A 
ATOM     21 CL   UNL     1       2.709   3.391  -5.081  0.00  0.00    -0.083 Cl
ENDBRANCH  12  15
BRANCH   1  22
ATOM     22  S   UNL     1      -6.182   4.285  -1.839  0.00  0.00    +0.072 S 
ATOM     23  O   UNL     1      -7.290   4.356  -2.725  0.00  0.00    -0.150 OA
ATOM     24  O   UNL     1      -5.924   3.144  -1.031  0.00  0.00    -0.150 OA
BRANCH  22  25
ATOM     25  N   UNL     1      -6.316   5.574  -0.808  0.00  0.00    -0.216 N 
ATOM     26  H   UNL     1      -7.081   6.168  -0.872  0.00  0.00    +0.174 HD
BRANCH  25  32
ATOM     27  C   UNL     1      -4.218   4.383   3.473  0.00  0.00    +0.044 C 
ATOM     28  C   UNL     1      -4.288   5.244   2.239  0.00  0.00    -0.048 A 
ATOM     29  C   UNL     1      -3.375   6.266   2.056  0.00  0.00    +0.006 A 
ATOM     30  C   UNL     1      -3.436   7.059   0.925  0.00  0.00    -0.048 A 
ATOM     31  C   UNL     1      -4.410   6.832  -0.027  0.00  0.00    +0.028 A 
ATOM     32  C   UNL     1      -5.329   5.806   0.153  0.00  0.00    +0.049 A 
ATOM     33  C   UNL     1      -5.268   5.015   1.293  0.00  0.00    +0.028 A 
ATOM     34  C   UNL     1      -2.439   8.172   0.731  0.00  0.00    +0.044 C 
ENDBRANCH  25  32
ENDBRANCH  22  25
ENDBRANCH   1  22
TORSDOF 4
