REMARK  Name = ZINC64502514
REMARK  12 active torsions:
REMARK  status: ('A' for Active; 'I' for Inactive)
REMARK    1  A    between atoms: C_1  and  C_2
REMARK    2  A    between atoms: C_2  and  C_3
REMARK    3  A    between atoms: C_2  and  C_4
REMARK    4  A    between atoms: C_4  and  C_5
REMARK    5  A    between atoms: C_9  and  C_12
REMARK    6  A    between atoms: N_14  and  C_15
REMARK    7  A    between atoms: C_19  and  C_21
REMARK    8  A    between atoms: N_23  and  C_24
REMARK    9  A    between atoms: C_24  and  C_25
REMARK   10  A    between atoms: C_25  and  C_26
REMARK   11  A    between atoms: C_29  and  O_35
REMARK   12  A    between atoms: O_35  and  C_36
REMARK                            x       y       z     vdW  Elec       q    Type
REMARK                         _______ _______ _______ _____ _____    ______ ____
ROOT
ATOM      1  C   UNL     1      -3.815  -4.575  -5.294  0.00  0.00    +0.034 A 
ATOM      2  C   UNL     1      -3.210  -3.648  -6.134  0.00  0.00    +0.023 A 
ATOM      3  C   UNL     1      -3.565  -3.581  -7.468  0.00  0.00    +0.003 A 
ATOM      4  C   UNL     1      -4.524  -4.436  -7.975  0.00  0.00    +0.013 A 
ATOM      5  C   UNL     1      -5.137  -5.371  -7.140  0.00  0.00    +0.038 A 
ATOM      6  C   UNL     1      -4.774  -5.442  -5.795  0.00  0.00    +0.036 A 
ENDROOT
BRANCH   1   9
ATOM      7  C   UNL     1      -3.417  -5.827  -3.310  0.00  0.00    +0.254 C 
ATOM      8  O   UNL     1      -3.781  -6.832  -3.885  0.00  0.00    -0.272 OA
ATOM      9  N   UNL     1      -3.452  -4.638  -3.944  0.00  0.00    -0.283 N 
ATOM     10  H   UNL     1      -3.226  -3.826  -3.464  0.00  0.00    +0.155 HD
BRANCH   7  14
ATOM     11  C   UNL     1      -1.350  -7.617  -0.461  0.00  0.00    +0.187 C 
ATOM     12  N   UNL     1      -0.760  -6.460  -1.173  0.00  0.00    -0.177 NA
ATOM     13  N   UNL     1      -1.463  -5.699  -1.809  0.00  0.00    -0.167 NA
ATOM     14  C   UNL     1      -2.927  -5.909  -1.888  0.00  0.00    +0.272 C 
ATOM     15  S   UNL     1      -3.029  -7.637  -1.235  0.00  0.00    -0.095 S 
BRANCH  11  16
ATOM     16  C   UNL     1      -0.583  -8.906  -0.761  0.00  0.00    +0.042 C 
BRANCH  16  18
ATOM     17  C   UNL     1      -0.610 -11.393  -0.521  0.00  0.00    +0.007 C 
ATOM     18  C   UNL     1      -1.306 -10.091  -0.118  0.00  0.00    -0.014 C 
ATOM     19  C   UNL     1      -1.272  -9.944   1.405  0.00  0.00    +0.007 C 
ENDBRANCH  16  18
ENDBRANCH  11  16
ENDBRANCH   7  14
ENDBRANCH   1   9
BRANCH   5  20
ATOM     20  C   UNL     1      -6.164  -6.287  -7.681  0.00  0.00    +0.244 C 
ATOM     21  O   UNL     1      -6.697  -7.101  -6.952  0.00  0.00    -0.270 OA
ATOM     22  N   UNL     1      -6.509  -6.220  -8.982  0.00  0.00    -0.311 N 
ATOM     23  H   UNL     1      -6.083  -5.571  -9.564  0.00  0.00    +0.149 HD
BRANCH  22  24
ATOM     24  C   UNL     1      -7.526  -7.128  -9.518  0.00  0.00    +0.109 C 
BRANCH  24  25
ATOM     25  C   UNL     1      -7.728  -6.846 -11.008  0.00  0.00    +0.052 C 
BRANCH  25  26
ATOM     26  C   UNL     1      -8.775  -7.780 -11.559  0.00  0.00    -0.040 C 
ATOM     27  C   UNL     1     -10.094  -7.526 -11.706  0.00  0.00    +0.002 A 
ATOM     28  C   UNL     1     -10.921  -6.351 -11.409  0.00  0.00    +0.055 A 
ATOM     29  C   UNL     1     -12.250  -6.387 -11.669  0.00  0.00    +0.121 A 
ATOM     30  C   UNL     1     -12.877  -7.519 -12.218  0.00  0.00    +0.047 A 
ATOM     31  C   UNL     1     -12.201  -8.647 -12.524  0.00  0.00    +0.029 A 
ATOM     32  C   UNL     1     -10.756  -8.718 -12.284  0.00  0.00    +0.043 A 
ATOM     33  N   UNL     1      -9.880  -9.671 -12.486  0.00  0.00    -0.380 N 
ATOM     34  C   UNL     1      -8.560  -9.189 -12.065  0.00  0.00    +0.144 C 
ATOM     35  H   UNL     1     -10.072 -10.546 -12.856  0.00  0.00    +0.160 HD
BRANCH  29  36
ATOM     36  O   UNL     1     -13.004  -5.291 -11.388  0.00  0.00    -0.495 OA
ATOM     37  C   UNL     1     -14.401  -5.373 -11.678  0.00  0.00    +0.277 C 
ENDBRANCH  29  36
ENDBRANCH  25  26
ENDBRANCH  24  25
ENDBRANCH  22  24
ENDBRANCH   5  20
TORSDOF 9
