REMARK  Name = ZINC66354564
REMARK  7 active torsions:
REMARK  status: ('A' for Active; 'I' for Inactive)
REMARK    1  A    between atoms: C_1  and  C_2
REMARK    2  A    between atoms: C_2  and  C_3
REMARK    3  A    between atoms: C_3  and  C_31
REMARK    4  A    between atoms: C_16  and  S_18
REMARK    5  A    between atoms: S_18  and  C_19
REMARK    6  A    between atoms: C_19  and  C_20
REMARK    7  A    between atoms: N_22  and  C_23
REMARK                            x       y       z     vdW  Elec       q    Type
REMARK                         _______ _______ _______ _____ _____    ______ ____
ROOT
ATOM      1  C   UNL     1       0.686  -0.473  -1.252  0.00  0.00    +0.071 C 
ATOM      2  C   UNL     1       0.600  -2.000  -1.325  0.00  0.00    +0.067 C 
ATOM      3  C   UNL     1       1.530  -2.481  -2.435  0.00  0.00    -0.042 C 
ATOM      4  C   UNL     1       2.474  -1.669  -2.908  0.00  0.00    +0.013 C 
ATOM      5  C   UNL     1       2.756  -0.273  -2.437  0.00  0.00    +0.202 C 
ATOM      6  O   UNL     1       2.057  -0.067  -1.201  0.00  0.00    -0.368 OA
ATOM      7  S   UNL     1       3.311  -2.552  -4.205  0.00  0.00    -0.099 S 
ATOM      8  C   UNL     1       2.035  -3.865  -4.467  0.00  0.00    +0.184 C 
ATOM      9  C   UNL     1       1.449  -3.862  -3.029  0.00  0.00    +0.114 C 
ATOM     10  C   UNL     1       0.029  -4.345  -3.066  0.00  0.00    +0.105 C 
ATOM     11  N   UNL     1      -0.719  -4.150  -4.117  0.00  0.00    -0.211 NA
ATOM     12  C   UNL     1      -0.240  -3.482  -5.194  0.00  0.00    +0.187 C 
ATOM     13  N   UNL     1       1.050  -3.345  -5.413  0.00  0.00    -0.244 NA
ATOM     14  N   UNL     1      -0.486  -4.997  -1.989  0.00  0.00    -0.346 N 
ATOM     15  C   UNL     1       0.022   0.132  -2.492  0.00  0.00    +0.042 C 
ATOM     16  H   UNL     1       0.065  -5.146  -1.204  0.00  0.00    +0.143 HD
ATOM     17  H   UNL     1      -1.403  -5.312  -2.005  0.00  0.00    +0.143 HD
ENDROOT
BRANCH   1  19
ATOM     18  C   UNL     1      -0.068   1.548   0.008  0.00  0.00    +0.007 C 
ATOM     19  C   UNL     1      -0.038   0.018   0.003  0.00  0.00    +0.032 C 
ENDBRANCH   1  19
BRANCH  12  20
ATOM     20  S   UNL     1      -1.375  -2.794  -6.353  0.00  0.00    -0.077 S 
BRANCH  20  21
ATOM     21  C   UNL     1      -0.312  -2.013  -7.598  0.00  0.00    +0.173 C 
BRANCH  21  22
ATOM     22  C   UNL     1      -1.169  -1.378  -8.663  0.00  0.00    +0.227 C 
ATOM     23  O   UNL     1      -2.377  -1.445  -8.589  0.00  0.00    -0.275 OA
ATOM     24  N   UNL     1      -0.592  -0.735  -9.697  0.00  0.00    -0.285 N 
ATOM     25  H   UNL     1       0.371  -0.623  -9.722  0.00  0.00    +0.155 HD
BRANCH  24  26
ATOM     26  C   UNL     1      -1.382  -0.229 -10.736  0.00  0.00    +0.033 A 
ATOM     27  C   UNL     1      -0.909  -0.245 -12.041  0.00  0.00    +0.025 A 
ATOM     28  C   UNL     1      -1.692   0.255 -13.064  0.00  0.00    +0.022 A 
ATOM     29  C   UNL     1      -2.945   0.772 -12.789  0.00  0.00    +0.041 A 
ATOM     30  C   UNL     1      -3.419   0.789 -11.488  0.00  0.00    +0.022 A 
ATOM     31  C   UNL     1      -2.643   0.285 -10.463  0.00  0.00    +0.025 A 
ATOM     32 CL   UNL     1      -3.925   1.400 -14.076  0.00  0.00    -0.084 Cl
ENDBRANCH  24  26
ENDBRANCH  21  22
ENDBRANCH  20  21
ENDBRANCH  12  20
TORSDOF 5
