REMARK  Name = ZINC09528444
REMARK  11 active torsions:
REMARK  status: ('A' for Active; 'I' for Inactive)
REMARK    1  A    between atoms: C_1  and  C_2
REMARK    2  A    between atoms: C_2  and  C_3
REMARK    3  A    between atoms: C_2  and  C_4
REMARK    4  A    between atoms: C_4  and  C_6
REMARK    5  A    between atoms: C_4  and  N_23
REMARK    6  A    between atoms: N_8  and  C_9
REMARK    7  A    between atoms: C_9  and  C_10
REMARK    8  A    between atoms: C_15  and  C_16
REMARK    9  A    between atoms: C_15  and  N_61
REMARK   10  A    between atoms: N_23  and  S_24
REMARK   11  A    between atoms: S_24  and  C_27
REMARK                            x       y       z     vdW  Elec       q    Type
REMARK                         _______ _______ _______ _____ _____    ______ ____
ROOT
ATOM      1  C   UNL     1      -1.067   5.791   7.251  0.00  0.00    +0.232 C 
ATOM      2  O   UNL     1      -0.072   5.902   7.935  0.00  0.00    -0.274 OA
ATOM      3  N   UNL     1      -0.955   5.654   5.915  0.00  0.00    -0.314 N 
ATOM      4  H   UNL     1      -1.746   5.493   5.376  0.00  0.00    +0.149 HD
ENDROOT
BRANCH   1   5
ATOM      5  C   UNL     1      -2.430   5.807   7.895  0.00  0.00    +0.165 C 
BRANCH   5   7
ATOM      6  C   UNL     1      -1.992   3.563   8.904  0.00  0.00    +0.009 C 
ATOM      7  C   UNL     1      -2.949   4.373   8.026  0.00  0.00    +0.010 C 
ATOM      8  C   UNL     1      -4.338   4.390   8.667  0.00  0.00    +0.009 C 
ENDBRANCH   5   7
BRANCH   5   9
ATOM      9  N   UNL     1      -2.335   6.415   9.225  0.00  0.00    -0.177 NA
ATOM     10  H   UNL     1      -2.074   5.875   9.987  0.00  0.00    +0.149 HD
BRANCH   9  11
ATOM     11  S   UNL     1      -2.671   8.024   9.425  0.00  0.00    +0.065 S 
ATOM     12  O   UNL     1      -2.583   8.287  10.818  0.00  0.00    -0.153 OA
ATOM     13  O   UNL     1      -1.891   8.725   8.466  0.00  0.00    -0.153 OA
BRANCH  11  14
ATOM     14  C   UNL     1      -4.358   8.263   8.973  0.00  0.00    +0.142 A 
ATOM     15  C   UNL     1      -5.460   8.267   9.761  0.00  0.00    +0.036 A 
ATOM     16  C   UNL     1      -6.697   8.479   9.182  0.00  0.00    +0.010 A 
ATOM     17  C   UNL     1      -6.771   8.676   7.843  0.00  0.00    +0.047 A 
ATOM     18  S   UNL     1      -5.056   8.572   7.359  0.00  0.00    -0.077 S 
ENDBRANCH  11  14
ENDBRANCH   9  11
ENDBRANCH   5   9
ENDBRANCH   1   5
BRANCH   3  19
ATOM     19  C   UNL     1       0.360   5.747   5.277  0.00  0.00    +0.107 C 
BRANCH  19  20
ATOM     20  C   UNL     1       0.209   5.556   3.767  0.00  0.00    +0.003 C 
ATOM     21  C   UNL     1       1.562   5.777   3.085  0.00  0.00    -0.014 C 
ATOM     22  C   UNL     1       1.418   5.526   1.582  0.00  0.00    -0.078 C 
ATOM     23  C   UNL     1      -0.365   3.929   1.962  0.00  0.00    -0.078 C 
ATOM     24  C   UNL     1      -0.274   4.133   3.476  0.00  0.00    -0.014 C 
ATOM     25  N   UNL     1       0.975   4.132   1.369  0.00  0.00    +0.382 N 
ATOM     26  H   UNL     1       1.640   3.497   1.826  0.00  0.00    -0.081 HD
BRANCH  25  27
ATOM     27  C   UNL     1       0.937   3.830  -0.076  0.00  0.00    -0.043 C 
BRANCH  27  28
ATOM     28  C   UNL     1       0.697   2.353  -0.258  0.00  0.00    -0.064 A 
ATOM     29  C   UNL     1      -0.594   1.872  -0.370  0.00  0.00    +0.003 A 
ATOM     30  C   UNL     1      -0.815   0.517  -0.536  0.00  0.00    +0.020 A 
ATOM     31  C   UNL     1       0.257  -0.356  -0.590  0.00  0.00    +0.041 A 
ATOM     32  C   UNL     1       1.548   0.126  -0.478  0.00  0.00    +0.020 A 
ATOM     33  C   UNL     1       1.768   1.480  -0.311  0.00  0.00    +0.003 A 
ATOM     34 CL   UNL     1      -0.020  -2.058  -0.799  0.00  0.00    -0.084 Cl
ENDBRANCH  27  28
ENDBRANCH  25  27
ENDBRANCH  19  20
ENDBRANCH   3  19
TORSDOF 9
