REMARK  Name = ZINC63269903
REMARK  9 active torsions:
REMARK  status: ('A' for Active; 'I' for Inactive)
REMARK    1  A    between atoms: C_1  and  C_2
REMARK    2  A    between atoms: C_13  and  O_15
REMARK    3  A    between atoms: N_21  and  O_22
REMARK    4  A    between atoms: O_22  and  C_23
REMARK    5  A    between atoms: C_23  and  C_24
REMARK    6  A    between atoms: N_26  and  C_27
REMARK    7  A    between atoms: C_27  and  C_28
REMARK    8  A    between atoms: C_28  and  C_29
REMARK    9  A    between atoms: C_41  and  C_42
REMARK                            x       y       z     vdW  Elec       q    Type
REMARK                         _______ _______ _______ _____ _____    ______ ____
ROOT
ATOM      1  C   UNL     1      -0.019   1.522   0.010  0.00  0.00    +0.014 C 
ATOM      2  C   UNL     1       0.002  -0.004   0.002  0.00  0.00    -0.003 C 
ATOM      3  C   UNL     1      -1.410  -0.536  -0.057  0.00  0.00    +0.010 C 
ATOM      4  C   UNL     1      -2.132  -0.129   1.244  0.00  0.00    +0.005 C 
ATOM      5  C   UNL     1      -1.411  -0.676   2.460  0.00  0.00    +0.002 C 
ATOM      6  C   UNL     1       0.065  -0.307   2.527  0.00  0.00    -0.003 C 
ATOM      7  C   UNL     1       0.727  -0.625   1.212  0.00  0.00    +0.001 C 
ATOM      8  C   UNL     1       2.165  -0.136   0.995  0.00  0.00    +0.007 C 
ATOM      9  C   UNL     1       2.354  -0.327  -0.537  0.00  0.00    +0.032 C 
ATOM     10  C   UNL     1       0.931  -0.440  -1.145  0.00  0.00    +0.121 C 
ATOM     11  C   UNL     1       0.387   1.077   3.043  0.00  0.00    +0.008 C 
ATOM     12  C   UNL     1      -0.829   1.772   3.653  0.00  0.00    +0.031 C 
ATOM     13  C   UNL     1      -1.549   0.741   4.489  0.00  0.00    -0.062 C 
ATOM     14  C   UNL     1      -1.649   0.870   5.800  0.00  0.00    +0.026 C 
ATOM     15  C   UNL     1      -2.317  -0.156   6.610  0.00  0.00    +0.080 C 
ATOM     16  N   UNL     1      -2.540   0.063   7.869  0.00  0.00    -0.089 NA
ATOM     17  C   UNL     1      -2.731  -1.466   5.991  0.00  0.00    +0.059 C 
ATOM     18  C   UNL     1      -2.000  -1.681   4.667  0.00  0.00    +0.017 C 
ATOM     19  C   UNL     1      -2.144  -0.445   3.771  0.00  0.00    -0.007 C 
ATOM     20  C   UNL     1      -3.632  -0.177   3.530  0.00  0.00    +0.016 C 
ENDROOT
BRANCH  10  21
ATOM     21  O   UNL     1       0.786   0.448  -2.251  0.00  0.00    -0.391 OA
ATOM     22  H   UNL     1       1.345   0.228  -3.008  0.00  0.00    +0.210 HD
ENDBRANCH  10  21
BRANCH  16  23
ATOM     23  O   UNL     1      -2.139   1.287   8.457  0.00  0.00    -0.384 OA
BRANCH  23  24
ATOM     24  C   UNL     1      -2.447   1.392   9.849  0.00  0.00    +0.358 C 
BRANCH  24  25
ATOM     25  C   UNL     1      -1.979   2.727  10.368  0.00  0.00    +0.253 C 
ATOM     26  O   UNL     1      -1.435   3.511   9.619  0.00  0.00    -0.272 OA
ATOM     27  N   UNL     1      -2.164   3.049  11.663  0.00  0.00    -0.312 N 
ATOM     28  H   UNL     1      -2.599   2.421  12.261  0.00  0.00    +0.149 HD
BRANCH  27  29
ATOM     29  C   UNL     1      -1.709   4.347  12.168  0.00  0.00    +0.106 C 
BRANCH  29  30
ATOM     30  C   UNL     1      -2.038   4.459  13.658  0.00  0.00    +0.047 C 
BRANCH  30  31
ATOM     31  C   UNL     1      -1.563   5.814  14.184  0.00  0.00    +0.104 C 
ATOM     32  C   UNL     1      -1.823   5.916  15.671  0.00  0.00    +0.007 C 
ATOM     33  C   UNL     1      -2.664   6.964  15.832  0.00  0.00    -0.004 A 
ATOM     34  C   UNL     1      -3.282   7.568  17.018  0.00  0.00    +0.010 A 
ATOM     35  C   UNL     1      -4.099   8.635  16.861  0.00  0.00    +0.001 A 
ATOM     36  C   UNL     1      -4.369   9.176  15.596  0.00  0.00    +0.002 A 
ATOM     37  C   UNL     1      -3.838   8.675  14.461  0.00  0.00    +0.026 A 
ATOM     38  C   UNL     1      -2.965   7.554  14.509  0.00  0.00    +0.043 A 
ATOM     39  N   UNL     1      -2.334   6.897  13.564  0.00  0.00    -0.378 N 
ATOM     40  H   UNL     1      -2.371   7.093  12.614  0.00  0.00    +0.160 HD
ENDBRANCH  30  31
ENDBRANCH  29  30
ENDBRANCH  27  29
ENDBRANCH  24  25
ENDBRANCH  23  24
ENDBRANCH  16  23
TORSDOF 7
