REMARK  Name = ZINC09296398
REMARK  8 active torsions:
REMARK  status: ('A' for Active; 'I' for Inactive)
REMARK    1  A    between atoms: C_1  and  C_2
REMARK    2  A    between atoms: C_2  and  C_27
REMARK    3  A    between atoms: C_6  and  C_14
REMARK    4  A    between atoms: C_8  and  C_12
REMARK    5  A    between atoms: C_9  and  N_11
REMARK    6  A    between atoms: C_19  and  O_20
REMARK    7  A    between atoms: O_20  and  C_21
REMARK    8  A    between atoms: C_21  and  C_22
REMARK                            x       y       z     vdW  Elec       q    Type
REMARK                         _______ _______ _______ _____ _____    ______ ____
ROOT
ATOM      1  C   UNL     1      -3.398  -0.832   6.002  0.00  0.00    +0.012 C 
ATOM      2  C   UNL     1      -4.698  -0.103   5.657  0.00  0.00    -0.021 C 
ATOM      3  C   UNL     1      -4.623   1.343   6.150  0.00  0.00    +0.081 C 
ATOM      4  C   UNL     1      -3.481   2.055   5.464  0.00  0.00    +0.115 C 
ATOM      5  C   UNL     1      -3.117   1.724   4.214  0.00  0.00    +0.046 C 
ATOM      6  C   UNL     1      -1.988   2.448   3.520  0.00  0.00    +0.104 C 
ATOM      7  C   UNL     1      -1.717   3.756   4.209  0.00  0.00    +0.098 C 
ATOM      8  C   UNL     1      -2.162   3.971   5.471  0.00  0.00    +0.198 C 
ATOM      9  O   UNL     1      -2.846   3.031   6.141  0.00  0.00    -0.445 OA
ATOM     10  C   UNL     1      -3.771   0.691   3.509  0.00  0.00    +0.164 C 
ATOM     11  O   UNL     1      -3.423   0.428   2.376  0.00  0.00    -0.292 OA
ATOM     12  C   UNL     1      -4.894  -0.089   4.137  0.00  0.00    +0.086 C 
ATOM     13  C   UNL     1      -5.878  -0.813   6.325  0.00  0.00    +0.012 C 
ENDROOT
BRANCH   6  14
ATOM     14  C   UNL     1      -0.747   1.594   3.561  0.00  0.00    +0.007 A 
ATOM     15  C   UNL     1      -0.203   1.222   4.776  0.00  0.00    +0.008 A 
ATOM     16  C   UNL     1       0.936   0.440   4.814  0.00  0.00    +0.001 A 
ATOM     17  C   UNL     1       1.534   0.027   3.637  0.00  0.00    +0.004 A 
ATOM     18  C   UNL     1       0.991   0.392   2.421  0.00  0.00    +0.046 A 
ATOM     19  C   UNL     1      -0.149   1.182   2.380  0.00  0.00    +0.126 A 
BRANCH  19  20
ATOM     20  O   UNL     1      -0.682   1.547   1.184  0.00  0.00    -0.477 OA
BRANCH  20  21
ATOM     21  C   UNL     1      -0.013   1.086   0.008  0.00  0.00    +0.346 C 
BRANCH  21  22
ATOM     22  C   UNL     1      -0.725   1.573  -1.185  0.00  0.00    +0.104 C 
ATOM     23  N   UNL     1      -1.274   1.950  -2.105  0.00  0.00    -0.193 NA
ENDBRANCH  21  22
ENDBRANCH  20  21
ENDBRANCH  19  20
ENDBRANCH   6  14
BRANCH   8  24
ATOM     24  N   UNL     1      -1.905   5.176   6.078  0.00  0.00    -0.328 N 
ATOM     25  H   UNL     1      -1.411   5.862   5.603  0.00  0.00    +0.145 HD
ATOM     26  H   UNL     1      -2.219   5.340   6.981  0.00  0.00    +0.145 HD
ENDBRANCH   8  24
BRANCH   7  27
ATOM     27  C   UNL     1      -0.985   4.781   3.528  0.00  0.00    +0.101 C 
ATOM     28  N   UNL     1      -0.405   5.594   2.987  0.00  0.00    -0.191 NA
ENDBRANCH   7  27
TORSDOF 6
