REMARK  Name = ZINC63572038
REMARK  9 active torsions:
REMARK  status: ('A' for Active; 'I' for Inactive)
REMARK    1  A    between atoms: C_1  and  C_2
REMARK    2  A    between atoms: C_2  and  O_3
REMARK    3  A    between atoms: O_3  and  C_4
REMARK    4  A    between atoms: C_4  and  C_6
REMARK    5  A    between atoms: C_9  and  C_12
REMARK    6  A    between atoms: C_12  and  N_13
REMARK    7  A    between atoms: C_29  and  C_31
REMARK    8  A    between atoms: C_34  and  O_37
REMARK    9  A    between atoms: O_37  and  C_38
REMARK                            x       y       z     vdW  Elec       q    Type
REMARK                         _______ _______ _______ _____ _____    ______ ____
ROOT
ATOM      1  N   UNL     1      -6.401  -6.519  -0.052  0.00  0.00    -0.299 N 
ATOM      2  C   UNL     1      -7.491  -7.165  -0.511  0.00  0.00    +0.303 C 
ATOM      3  O   UNL     1      -8.589  -6.654  -0.404  0.00  0.00    -0.253 OA
ATOM      4  N   UNL     1      -7.365  -8.376  -1.088  0.00  0.00    -0.276 N 
ATOM      5  C   UNL     1      -6.059  -9.043  -1.095  0.00  0.00    +0.114 C 
ATOM      6  C   UNL     1      -5.643  -9.341  -2.548  0.00  0.00    +0.052 C 
ATOM      7  C   UNL     1      -6.855  -9.923  -3.233  0.00  0.00    -0.035 C 
ATOM      8  C   UNL     1      -7.013 -11.035  -3.941  0.00  0.00    -0.001 A 
ATOM      9  C   UNL     1      -6.050 -12.046  -4.406  0.00  0.00    +0.010 A 
ATOM     10  C   UNL     1      -6.568 -13.090  -5.106  0.00  0.00    +0.001 A 
ATOM     11  C   UNL     1      -7.931 -13.228  -5.385  0.00  0.00    +0.002 A 
ATOM     12  C   UNL     1      -8.886 -12.343  -5.003  0.00  0.00    +0.026 A 
ATOM     13  C   UNL     1      -8.463 -11.198  -4.268  0.00  0.00    +0.043 A 
ATOM     14  N   UNL     1      -9.149 -10.195  -3.804  0.00  0.00    -0.375 N 
ATOM     15  C   UNL     1      -8.220  -9.248  -3.185  0.00  0.00    +0.131 C 
ATOM     16  C   UNL     1      -8.539  -9.017  -1.700  0.00  0.00    +0.134 C 
ATOM     17  H   UNL     1      -5.535  -6.957  -0.070  0.00  0.00    +0.150 HD
ATOM     18  H   UNL     1     -10.111 -10.092  -3.860  0.00  0.00    +0.160 HD
ENDROOT
BRANCH  16  19
ATOM     19  C   UNL     1      -9.740  -8.116  -1.567  0.00  0.00    -0.024 A 
ATOM     20  C   UNL     1      -9.777  -6.911  -2.245  0.00  0.00    +0.009 A 
ATOM     21  C   UNL     1     -10.876  -6.083  -2.125  0.00  0.00    +0.046 A 
ATOM     22  C   UNL     1     -11.943  -6.461  -1.323  0.00  0.00    +0.120 A 
ATOM     23  C   UNL     1     -11.904  -7.670  -0.644  0.00  0.00    +0.046 A 
ATOM     24  C   UNL     1     -10.805  -8.497  -0.772  0.00  0.00    +0.009 A 
BRANCH  22  25
ATOM     25  O   UNL     1     -13.025  -5.647  -1.203  0.00  0.00    -0.495 OA
ATOM     26  C   UNL     1     -14.087  -6.100  -0.360  0.00  0.00    +0.277 C 
ENDBRANCH  22  25
ENDBRANCH  16  19
BRANCH   1  27
ATOM     27  C   UNL     1      -6.522  -5.158   0.475  0.00  0.00    +0.109 C 
BRANCH  27  31
ATOM     28  C   UNL     1      -3.389  -3.546   2.987  0.00  0.00    +0.098 C 
ATOM     29  C   UNL     1      -3.877  -2.700   1.810  0.00  0.00    +0.015 C 
ATOM     30  C   UNL     1      -5.251  -3.197   1.359  0.00  0.00    +0.006 C 
ATOM     31  C   UNL     1      -5.147  -4.660   0.926  0.00  0.00    +0.006 C 
ATOM     32  C   UNL     1      -4.660  -5.508   2.103  0.00  0.00    +0.006 C 
ATOM     33  C   UNL     1      -3.285  -5.010   2.554  0.00  0.00    +0.015 C 
BRANCH  28  34
ATOM     34  C   UNL     1      -2.035  -3.057   3.432  0.00  0.00    +0.310 C 
ATOM     35  O   UNL     1      -1.084  -3.802   3.405  0.00  0.00    -0.251 OA
BRANCH  34  36
ATOM     36  O   UNL     1      -1.885  -1.793   3.857  0.00  0.00    -0.465 OA
BRANCH  36  38
ATOM     37  C   UNL     1      -0.599   0.066   4.713  0.00  0.00    +0.048 C 
ATOM     38  C   UNL     1      -0.573  -1.396   4.264  0.00  0.00    +0.229 C 
ENDBRANCH  36  38
ENDBRANCH  34  36
ENDBRANCH  28  34
ENDBRANCH  27  31
ENDBRANCH   1  27
TORSDOF 7
