REMARK  Name = ZINC14274989
REMARK  7 active torsions:
REMARK  status: ('A' for Active; 'I' for Inactive)
REMARK    1  A    between atoms: C_4  and  N_28
REMARK    2  A    between atoms: C_6  and  N_7
REMARK    3  A    between atoms: N_7  and  C_8
REMARK    4  A    between atoms: C_8  and  N_10
REMARK    5  A    between atoms: C_11  and  C_13
REMARK    6  A    between atoms: C_14  and  C_15
REMARK    7  A    between atoms: C_18  and  C_20
REMARK                            x       y       z     vdW  Elec       q    Type
REMARK                         _______ _______ _______ _____ _____    ______ ____
ROOT
ATOM      1  N   UNL     1       4.981  -3.539  -0.475  0.00  0.00    -0.264 N 
ATOM      2  C   UNL     1       3.708  -3.311  -0.853  0.00  0.00    +0.242 C 
ATOM      3  O   UNL     1       2.995  -4.241  -1.187  0.00  0.00    -0.270 OA
ATOM      4  H   UNL     1       5.548  -2.799  -0.209  0.00  0.00    +0.157 HD
ENDROOT
BRANCH   1   5
ATOM      5  C   UNL     1       5.466  -4.797  -0.466  0.00  0.00    +0.141 C 
ATOM      6  S   UNL     1       4.465  -6.104  -0.935  0.00  0.00    -0.018 S 
BRANCH   5   7
ATOM      7  N   UNL     1       6.739  -5.025  -0.087  0.00  0.00    -0.297 N 
ATOM      8  H   UNL     1       7.325  -4.280   0.119  0.00  0.00    +0.154 HD
BRANCH   7  14
ATOM      9  C   UNL     1       7.963  -6.728   1.111  0.00  0.00    +0.025 A 
ATOM     10  C   UNL     1       8.428  -8.025   1.204  0.00  0.00    +0.024 A 
ATOM     11  C   UNL     1       8.161  -8.932   0.194  0.00  0.00    +0.071 A 
ATOM     12  C   UNL     1       7.421  -8.544  -0.909  0.00  0.00    +0.146 A 
ATOM     13  C   UNL     1       6.949  -7.250  -1.005  0.00  0.00    +0.057 A 
ATOM     14  C   UNL     1       7.216  -6.337   0.007  0.00  0.00    +0.035 A 
ATOM     15 CL   UNL     1       8.753 -10.559   0.311  0.00  0.00    -0.081 Cl
BRANCH  12  16
ATOM     16  N   UNL     1       7.136  -9.517  -1.988  0.00  0.00    +0.058 N 
ATOM     17  O   UNL     1       6.485  -9.176  -2.959  0.00  0.00    -0.126 OA
ATOM     18  O   UNL     1       7.553 -10.658  -1.904  0.00  0.00    -0.126 OA
ENDBRANCH  12  16
ENDBRANCH   7  14
ENDBRANCH   5   7
ENDBRANCH   1   5
BRANCH   2  19
ATOM     19  C   UNL     1       3.199  -1.993  -0.863  0.00  0.00    +0.071 C 
ATOM     20  C   UNL     1       1.915  -1.763  -1.244  0.00  0.00    +0.051 C 
BRANCH  20  21
ATOM     21  C   UNL     1       1.407  -0.444  -1.254  0.00  0.00    +0.129 A 
ATOM     22  C   UNL     1       0.126  -0.072  -1.618  0.00  0.00    +0.050 A 
ATOM     23  C   UNL     1       0.054   1.316  -1.480  0.00  0.00    +0.050 A 
ATOM     24  C   UNL     1       1.287   1.741  -1.039  0.00  0.00    +0.136 A 
ATOM     25  O   UNL     1       2.087   0.669  -0.909  0.00  0.00    -0.455 OA
BRANCH  24  26
ATOM     26  C   UNL     1       1.666   3.139  -0.757  0.00  0.00    +0.020 A 
ATOM     27  C   UNL     1       0.739   4.168  -0.939  0.00  0.00    +0.031 A 
ATOM     28  C   UNL     1       1.098   5.473  -0.668  0.00  0.00    +0.043 A 
ATOM     29  C   UNL     1       2.378   5.765  -0.227  0.00  0.00    +0.040 A 
ATOM     30  C   UNL     1       3.304   4.750  -0.049  0.00  0.00    +0.043 A 
ATOM     31  C   UNL     1       2.955   3.440  -0.312  0.00  0.00    +0.031 A 
ATOM     32 CL   UNL     1       4.906   5.126   0.503  0.00  0.00    -0.083 Cl
ATOM     33 CL   UNL     1      -0.054   6.753  -0.888  0.00  0.00    -0.083 Cl
ENDBRANCH  24  26
ENDBRANCH  20  21
ENDBRANCH   2  19
TORSDOF 7
