REMARK  Name = ZINC02380735
REMARK  11 active torsions:
REMARK  status: ('A' for Active; 'I' for Inactive)
REMARK    1  A    between atoms: C_1  and  C_2
REMARK    2  A    between atoms: C_3  and  C_26
REMARK    3  A    between atoms: C_4  and  C_9
REMARK    4  A    between atoms: C_12  and  O_16
REMARK    5  A    between atoms: C_14  and  O_15
REMARK    6  A    between atoms: O_16  and  C_17
REMARK    7  A    between atoms: C_17  and  C_18
REMARK    8  A    between atoms: C_29  and  O_34
REMARK    9  A    between atoms: C_30  and  O_32
REMARK   10  A    between atoms: O_32  and  C_33
REMARK   11  A    between atoms: O_34  and  C_35
REMARK                            x       y       z     vdW  Elec       q    Type
REMARK                         _______ _______ _______ _____ _____    ______ ____
ROOT
ATOM      1  C   UNL     1     -10.385  -3.832   0.606  0.00  0.00    +0.066 C 
ATOM      2  C   UNL     1      -8.989  -4.306   0.296  0.00  0.00    +0.052 A 
ATOM      3  C   UNL     1      -7.951  -3.388   0.133  0.00  0.00    +0.029 A 
ATOM      4  C   UNL     1      -6.665  -3.883  -0.161  0.00  0.00    +0.087 A 
ATOM      5  N   UNL     1      -6.491  -5.199  -0.261  0.00  0.00    -0.214 NA
ATOM      6  C   UNL     1      -7.507  -6.030  -0.093  0.00  0.00    +0.213 A 
ATOM      7  N   UNL     1      -8.730  -5.597   0.179  0.00  0.00    -0.219 NA
ATOM      8  N   UNL     1      -7.286  -7.391  -0.206  0.00  0.00    -0.327 N 
ATOM      9  H   UNL     1      -6.397  -7.724  -0.406  0.00  0.00    +0.145 HD
ATOM     10  H   UNL     1      -8.021  -8.014  -0.086  0.00  0.00    +0.145 HD
ENDROOT
BRANCH   4  11
ATOM     11  C   UNL     1      -5.527  -2.957  -0.348  0.00  0.00    +0.043 A 
ATOM     12  C   UNL     1      -5.646  -1.867  -1.212  0.00  0.00    +0.017 A 
ATOM     13  C   UNL     1      -4.587  -1.002  -1.379  0.00  0.00    +0.046 A 
ATOM     14  C   UNL     1      -3.393  -1.219  -0.700  0.00  0.00    +0.124 A 
ATOM     15  C   UNL     1      -3.265  -2.299   0.160  0.00  0.00    +0.091 A 
ATOM     16  C   UNL     1      -4.326  -3.170   0.340  0.00  0.00    +0.129 A 
BRANCH  16  17
ATOM     17  O   UNL     1      -4.203  -4.229   1.182  0.00  0.00    -0.506 OA
ATOM     18  H   UNL     1      -4.462  -4.038   2.094  0.00  0.00    +0.292 HD
ENDBRANCH  16  17
BRANCH  14  19
ATOM     19  O   UNL     1      -2.351  -0.366  -0.875  0.00  0.00    -0.487 OA
BRANCH  19  20
ATOM     20  C   UNL     1      -2.550   0.726  -1.774  0.00  0.00    +0.266 C 
BRANCH  20  21
ATOM     21  C   UNL     1      -1.295   1.558  -1.840  0.00  0.00    +0.008 A 
ATOM     22  C   UNL     1      -0.191   1.203  -1.089  0.00  0.00    +0.011 A 
ATOM     23  C   UNL     1       0.962   1.962  -1.152  0.00  0.00    +0.039 A 
ATOM     24  C   UNL     1       1.010   3.082  -1.965  0.00  0.00    +0.125 A 
ATOM     25  C   UNL     1      -0.097   3.441  -2.714  0.00  0.00    +0.058 A 
ATOM     26  C   UNL     1      -1.251   2.680  -2.648  0.00  0.00    +0.050 A 
ATOM     27 CL   UNL     1      -2.641   3.129  -3.587  0.00  0.00    -0.083 Cl
ATOM     28  F   UNL     1       2.137   3.824  -2.027  0.00  0.00    -0.205 F 
ENDBRANCH  20  21
ENDBRANCH  19  20
ENDBRANCH  14  19
ENDBRANCH   4  11
BRANCH   3  29
ATOM     29  C   UNL     1      -8.195  -1.932   0.261  0.00  0.00    -0.010 A 
ATOM     30  C   UNL     1      -7.657  -1.225   1.336  0.00  0.00    +0.012 A 
ATOM     31  C   UNL     1      -7.880   0.132   1.451  0.00  0.00    +0.050 A 
ATOM     32  C   UNL     1      -8.650   0.793   0.506  0.00  0.00    +0.162 A 
ATOM     33  C   UNL     1      -9.195   0.091  -0.566  0.00  0.00    +0.162 A 
ATOM     34  C   UNL     1      -8.969  -1.268  -0.689  0.00  0.00    +0.058 A 
BRANCH  33  35
ATOM     35  O   UNL     1      -9.949   0.742  -1.492  0.00  0.00    -0.491 OA
ATOM     36  C   UNL     1     -10.476  -0.040  -2.566  0.00  0.00    +0.277 C 
ENDBRANCH  33  35
BRANCH  32  37
ATOM     37  O   UNL     1      -8.873   2.129   0.626  0.00  0.00    -0.491 OA
ATOM     38  C   UNL     1      -8.283   2.786   1.750  0.00  0.00    +0.277 C 
ENDBRANCH  32  37
ENDBRANCH   3  29
TORSDOF 8
