REMARK  Name = ZINC15228902
REMARK  10 active torsions:
REMARK  status: ('A' for Active; 'I' for Inactive)
REMARK    1  A    between atoms: C_1  and  C_2
REMARK    2  A    between atoms: C_2  and  O_3
REMARK    3  A    between atoms: O_3  and  C_4
REMARK    4  A    between atoms: C_9  and  N_10
REMARK    5  A    between atoms: C_11  and  S_15
REMARK    6  A    between atoms: S_15  and  C_16
REMARK    7  A    between atoms: C_16  and  C_17
REMARK    8  A    between atoms: N_19  and  C_20
REMARK    9  A    between atoms: C_21  and  C_31
REMARK   10  A    between atoms: C_26  and  C_30
REMARK                            x       y       z     vdW  Elec       q    Type
REMARK                         _______ _______ _______ _____ _____    ______ ____
ROOT
ATOM      1  C   UNL     1      -3.769   3.297   7.033  0.00  0.00    +0.173 C 
ENDROOT
BRANCH   1   2
ATOM      2  C   UNL     1      -3.730   3.114   8.529  0.00  0.00    +0.228 C 
ATOM      3  O   UNL     1      -2.845   2.458   9.036  0.00  0.00    -0.275 OA
ATOM      4  N   UNL     1      -4.677   3.681   9.302  0.00  0.00    -0.278 N 
ATOM      5  H   UNL     1      -5.385   4.206   8.896  0.00  0.00    +0.155 HD
BRANCH   4   6
ATOM      6  C   UNL     1      -4.641   3.512  10.679  0.00  0.00    +0.090 A 
ATOM      7  C   UNL     1      -5.513   4.016  11.633  0.00  0.00    +0.084 A 
ATOM      8  C   UNL     1      -5.253   3.686  13.023  0.00  0.00    -0.018 A 
ATOM      9  C   UNL     1      -4.161   2.919  13.238  0.00  0.00    -0.004 A 
ATOM     10  S   UNL     1      -3.489   2.628  11.626  0.00  0.00    -0.077 S 
ATOM     11  C   UNL     1      -3.647   2.429  14.556  0.00  0.00    +0.046 C 
ATOM     12  C   UNL     1      -4.752   2.615  15.606  0.00  0.00    -0.009 C 
ATOM     13  C   UNL     1      -5.319   4.031  15.480  0.00  0.00    +0.008 C 
ATOM     14  C   UNL     1      -6.121   4.158  14.183  0.00  0.00    +0.037 C 
ATOM     15  C   UNL     1      -4.168   2.415  17.006  0.00  0.00    +0.008 C 
BRANCH   7  16
ATOM     16  C   UNL     1      -6.633   4.827  11.259  0.00  0.00    +0.102 C 
ATOM     17  N   UNL     1      -7.521   5.471  10.963  0.00  0.00    -0.191 NA
ENDBRANCH   7  16
ENDBRANCH   4   6
ENDBRANCH   1   2
BRANCH   1  18
ATOM     18  S   UNL     1      -2.374   2.423   6.281  0.00  0.00    -0.075 S 
BRANCH  18  20
ATOM     19  N   UNL     1      -1.905   2.389   3.531  0.00  0.00    -0.184 N 
ATOM     20  C   UNL     1      -2.660   2.795   4.583  0.00  0.00    +0.215 A 
ATOM     21  N   UNL     1      -3.644   3.518   4.095  0.00  0.00    -0.101 NA
ATOM     22  N   UNL     1      -3.558   3.593   2.816  0.00  0.00    -0.022 NA
ATOM     23  N   UNL     1      -2.528   2.941   2.397  0.00  0.00    -0.038 NA
BRANCH  19  29
ATOM     24  C   UNL     1       0.383   1.977   2.849  0.00  0.00    +0.146 A 
ATOM     25  C   UNL     1       1.520   1.186   2.884  0.00  0.00    +0.048 A 
ATOM     26  C   UNL     1       1.534   0.028   3.638  0.00  0.00    +0.004 A 
ATOM     27  C   UNL     1       0.410  -0.352   4.350  0.00  0.00    +0.002 A 
ATOM     28  C   UNL     1      -0.729   0.429   4.316  0.00  0.00    +0.031 A 
ATOM     29  C   UNL     1      -0.749   1.596   3.567  0.00  0.00    +0.111 A 
BRANCH  24  30
ATOM     30  O   UNL     1       0.369   3.120   2.113  0.00  0.00    -0.490 OA
BRANCH  30  32
ATOM     31  C   UNL     1       1.361   4.757   0.638  0.00  0.00    +0.048 C 
ATOM     32  C   UNL     1       1.565   3.448   1.403  0.00  0.00    +0.226 C 
ENDBRANCH  30  32
ENDBRANCH  24  30
ENDBRANCH  19  29
ENDBRANCH  18  20
ENDBRANCH   1  18
TORSDOF 8
