REMARK  Name = ZINC65248810
REMARK  3 active torsions:
REMARK  status: ('A' for Active; 'I' for Inactive)
REMARK    1  A    between atoms: N_10  and  S_12
REMARK    2  A    between atoms: S_12  and  C_15
REMARK    3  A    between atoms: C_18  and  C_21
REMARK                            x       y       z     vdW  Elec       q    Type
REMARK                         _______ _______ _______ _____ _____    ______ ____
ROOT
ATOM      1  C   UNL     1      -0.017   1.379   0.010  0.00  0.00    +0.000 A 
ATOM      2  C   UNL     1       1.173   2.084   0.002  0.00  0.00    +0.002 A 
ATOM      3  C   UNL     1       2.379   1.414  -0.014  0.00  0.00    +0.023 A 
ATOM      4  C   UNL     1       2.407   0.021  -0.024  0.00  0.00    +0.038 A 
ATOM      5  C   UNL     1       1.203  -0.678  -0.014  0.00  0.00    -0.010 A 
ATOM      6  C   UNL     1       0.002  -0.004   0.002  0.00  0.00    +0.006 A 
ATOM      7  C   UNL     1       1.578  -2.129  -0.026  0.00  0.00    +0.089 C 
ATOM      8  C   UNL     1       0.973  -2.872  -1.228  0.00  0.00    +0.039 C 
ATOM      9  C   UNL     1       0.904  -4.333  -0.728  0.00  0.00    +0.111 C 
ATOM     10  N   UNL     1       0.940  -4.295   0.742  0.00  0.00    -0.175 NA
ATOM     11  C   UNL     1       1.004  -2.886   1.180  0.00  0.00    +0.130 C 
ATOM     12  C   UNL     1       3.078  -2.155  -0.046  0.00  0.00    +0.229 C 
ATOM     13  O   UNL     1       3.787  -3.140  -0.062  0.00  0.00    -0.274 OA
ATOM     14  N   UNL     1       3.483  -0.869  -0.042  0.00  0.00    -0.284 N 
ATOM     15  H   UNL     1       4.414  -0.595  -0.051  0.00  0.00    +0.155 HD
ENDROOT
BRANCH  10  16
ATOM     16  S   UNL     1       0.913  -5.615   1.741  0.00  0.00    +0.061 S 
ATOM     17  O   UNL     1       0.408  -5.168   2.992  0.00  0.00    -0.153 OA
ATOM     18  O   UNL     1       0.305  -6.669   1.006  0.00  0.00    -0.153 OA
BRANCH  16  19
ATOM     19  C   UNL     1       2.587  -6.094   2.017  0.00  0.00    +0.106 A 
ATOM     20  C   UNL     1       3.193  -7.000   1.165  0.00  0.00    +0.030 A 
ATOM     21  C   UNL     1       4.503  -7.379   1.375  0.00  0.00    +0.021 A 
ATOM     22  C   UNL     1       5.216  -6.846   2.450  0.00  0.00    +0.052 A 
ATOM     23  C   UNL     1       4.598  -5.932   3.306  0.00  0.00    +0.021 A 
ATOM     24  C   UNL     1       3.290  -5.558   3.081  0.00  0.00    +0.030 A 
BRANCH  22  25
ATOM     25  C   UNL     1       6.576  -7.236   2.674  0.00  0.00    +0.099 C 
ATOM     26  N   UNL     1       7.655  -7.544   2.852  0.00  0.00    -0.191 NA
ENDBRANCH  22  25
ENDBRANCH  16  19
ENDBRANCH  10  16
TORSDOF 3
