REMARK  Name = ZINC39887306
REMARK  8 active torsions:
REMARK  status: ('A' for Active; 'I' for Inactive)
REMARK    1  A    between atoms: C_1  and  C_2
REMARK    2  A    between atoms: C_2  and  C_3
REMARK    3  A    between atoms: C_2  and  C_4
REMARK    4  A    between atoms: C_7  and  N_10
REMARK    5  A    between atoms: C_11  and  C_21
REMARK    6  A    between atoms: C_16  and  C_19
REMARK    7  A    between atoms: C_24  and  C_26
REMARK    8  A    between atoms: C_28  and  C_33
REMARK                            x       y       z     vdW  Elec       q    Type
REMARK                         _______ _______ _______ _____ _____    ______ ____
ROOT
ATOM      1  N   UNL     1      -5.320  -1.967   0.042  0.00  0.00    -0.267 N 
ATOM      2  C   UNL     1      -5.842  -2.729  -1.097  0.00  0.00    +0.234 C 
ATOM      3  N   UNL     1      -7.175  -2.237  -1.452  0.00  0.00    -0.286 N 
ATOM      4  C   UNL     1      -7.990  -1.724  -0.510  0.00  0.00    +0.258 C 
ATOM      5  O   UNL     1      -9.113  -1.356  -0.806  0.00  0.00    -0.269 OA
ATOM      6  C   UNL     1      -7.519  -1.611   0.873  0.00  0.00    +0.142 C 
ATOM      7  C   UNL     1      -6.139  -1.741   1.120  0.00  0.00    +0.103 C 
ATOM      8  S   UNL     1      -5.485  -1.615   2.751  0.00  0.00    -0.033 SA
ATOM      9  H   UNL     1      -7.473  -2.281  -2.374  0.00  0.00    +0.151 HD
ENDROOT
BRANCH   1  13
ATOM     10  C   UNL     1      -1.412  -0.525   0.011  0.00  0.00    -0.045 A 
ATOM     11  C   UNL     1      -1.644  -1.888   0.048  0.00  0.00    +0.006 A 
ATOM     12  C   UNL     1      -2.939  -2.369   0.059  0.00  0.00    +0.024 A 
ATOM     13  C   UNL     1      -4.008  -1.483   0.032  0.00  0.00    +0.037 A 
ATOM     14  C   UNL     1      -3.771  -0.115  -0.005  0.00  0.00    +0.024 A 
ATOM     15  C   UNL     1      -2.474   0.360  -0.010  0.00  0.00    +0.006 A 
BRANCH  10  17
ATOM     16  C   UNL     1       0.729  -0.475   1.262  0.00  0.00    +0.012 C 
ATOM     17  C   UNL     1       0.002  -0.003   0.001  0.00  0.00    +0.013 C 
ATOM     18  C   UNL     1       0.731  -0.532  -1.236  0.00  0.00    +0.012 C 
ENDBRANCH  10  17
ENDBRANCH   1  13
BRANCH   2  19
ATOM     19  C   UNL     1      -5.931  -4.187  -0.725  0.00  0.00    +0.144 A 
ATOM     20  C   UNL     1      -6.822  -5.070  -1.216  0.00  0.00    +0.049 A 
ATOM     21  C   UNL     1      -6.552  -6.312  -0.605  0.00  0.00    +0.050 A 
ATOM     22  C   UNL     1      -5.500  -6.115   0.233  0.00  0.00    +0.137 A 
ATOM     23  O   UNL     1      -5.130  -4.823   0.146  0.00  0.00    -0.456 OA
BRANCH  22  24
ATOM     24  C   UNL     1      -4.868  -7.142   1.088  0.00  0.00    +0.036 A 
ATOM     25  C   UNL     1      -3.482  -7.307   1.078  0.00  0.00    +0.025 A 
ATOM     26  C   UNL     1      -2.899  -8.267   1.878  0.00  0.00    +0.056 A 
ATOM     27  C   UNL     1      -3.684  -9.068   2.689  0.00  0.00    +0.014 A 
ATOM     28  C   UNL     1      -5.059  -8.911   2.704  0.00  0.00    +0.021 A 
ATOM     29  C   UNL     1      -5.655  -7.949   1.913  0.00  0.00    +0.052 A 
ATOM     30 CL   UNL     1      -7.380  -7.748   1.938  0.00  0.00    -0.083 Cl
BRANCH  26  31
ATOM     31  C   UNL     1      -1.403  -8.446   1.869  0.00  0.00    +0.417 C 
ATOM     32  F   UNL     1      -0.828  -7.621   2.841  0.00  0.00    -0.166 F 
ATOM     33  F   UNL     1      -1.091  -9.781   2.146  0.00  0.00    -0.166 F 
ATOM     34  F   UNL     1      -0.900  -8.102   0.609  0.00  0.00    -0.166 F 
ENDBRANCH  26  31
ENDBRANCH  22  24
ENDBRANCH   2  19
BRANCH   6  35
ATOM     35  C   UNL     1      -8.438  -1.377   1.946  0.00  0.00    +0.107 C 
ATOM     36  N   UNL     1      -9.167  -1.192   2.797  0.00  0.00    -0.191 NA
ENDBRANCH   6  35
TORSDOF 6
