REMARK  Name = ZINC01892757
REMARK  8 active torsions:
REMARK  status: ('A' for Active; 'I' for Inactive)
REMARK    1  A    between atoms: C_1  and  C_2
REMARK    2  A    between atoms: C_2  and  O_3
REMARK    3  A    between atoms: O_3  and  C_4
REMARK    4  A    between atoms: C_4  and  C_6
REMARK    5  A    between atoms: C_10  and  N_11
REMARK    6  A    between atoms: C_12  and  C_14
REMARK    7  A    between atoms: C_14  and  N_15
REMARK    8  A    between atoms: C_26  and  C_30
REMARK                            x       y       z     vdW  Elec       q    Type
REMARK                         _______ _______ _______ _____ _____    ______ ____
ROOT
ATOM      1  N   UNL     1      -0.288   1.272  -2.443  0.00  0.00    -0.278 N 
ATOM      2  C   UNL     1      -0.742   1.585  -1.213  0.00  0.00    +0.239 C 
ATOM      3  O   UNL     1      -1.736   2.268  -1.088  0.00  0.00    -0.273 OA
ATOM      4  H   UNL     1       0.507   0.726  -2.543  0.00  0.00    +0.155 HD
ENDROOT
BRANCH   1   9
ATOM      5  C   UNL     1      -0.647   1.522  -4.903  0.00  0.00    +0.091 A 
ATOM      6  C   UNL     1      -1.524   2.116  -5.898  0.00  0.00    -0.021 A 
ATOM      7  C   UNL     1      -2.558   2.829  -5.401  0.00  0.00    -0.004 A 
ATOM      8  S   UNL     1      -2.385   2.712  -3.643  0.00  0.00    -0.077 S 
ATOM      9  C   UNL     1      -0.959   1.732  -3.566  0.00  0.00    +0.086 A 
ATOM     10  C   UNL     1      -3.613   3.554  -6.179  0.00  0.00    +0.043 C 
ATOM     11  C   UNL     1      -3.137   3.684  -7.633  0.00  0.00    +0.005 C 
ATOM     12  C   UNL     1      -2.631   2.320  -8.110  0.00  0.00    +0.005 C 
ATOM     13  C   UNL     1      -1.321   1.974  -7.401  0.00  0.00    +0.037 C 
BRANCH   5  14
ATOM     14  C   UNL     1       0.520   0.730  -5.296  0.00  0.00    +0.342 C 
ATOM     15  O   UNL     1       0.412  -0.470  -5.461  0.00  0.00    -0.245 OA
BRANCH  14  16
ATOM     16  O   UNL     1       1.715   1.330  -5.474  0.00  0.00    -0.461 OA
BRANCH  16  18
ATOM     17  C   UNL     1       4.088   1.335  -6.017  0.00  0.00    +0.048 C 
ATOM     18  C   UNL     1       2.827   0.483  -5.863  0.00  0.00    +0.229 C 
ENDBRANCH  16  18
ENDBRANCH  14  16
ENDBRANCH   5  14
ENDBRANCH   1   9
BRANCH   2  19
ATOM     19  C   UNL     1      -0.013   1.086   0.008  0.00  0.00    +0.245 C 
BRANCH  19  20
ATOM     20  N   UNL     1      -0.698   1.558   1.213  0.00  0.00    -0.201 N 
ATOM     21  C   UNL     1      -1.677   0.811   1.759  0.00  0.00    +0.279 A 
ATOM     22  O   UNL     1      -1.996  -0.255   1.260  0.00  0.00    -0.265 OA
ATOM     23  C   UNL     1      -2.333   1.289   2.942  0.00  0.00    +0.079 A 
ATOM     24  C   UNL     1      -3.407   0.650   3.698  0.00  0.00    -0.023 A 
ATOM     25  C   UNL     1      -3.868   1.307   4.785  0.00  0.00    -0.004 A 
ATOM     26  S   UNL     1      -2.909   2.796   4.861  0.00  0.00    -0.071 S 
ATOM     27  C   UNL     1      -1.891   2.529   3.430  0.00  0.00    +0.138 A 
ATOM     28  N   UNL     1      -0.922   3.222   2.841  0.00  0.00    -0.123 NA
ATOM     29  N   UNL     1      -0.334   2.784   1.781  0.00  0.00    -0.061 NA
ATOM     30  C   UNL     1      -4.953   0.867   5.720  0.00  0.00    +0.046 C 
ATOM     31  C   UNL     1      -5.224  -0.625   5.478  0.00  0.00    -0.009 C 
ATOM     32  C   UNL     1      -5.359  -0.863   3.972  0.00  0.00    +0.008 C 
ATOM     33  C   UNL     1      -3.997  -0.699   3.296  0.00  0.00    +0.037 C 
ATOM     34  C   UNL     1      -6.521  -1.031   6.180  0.00  0.00    +0.008 C 
ENDBRANCH  19  20
ENDBRANCH   2  19
TORSDOF 6
