REMARK  Name = ZINC11635287
REMARK  6 active torsions:
REMARK  status: ('A' for Active; 'I' for Inactive)
REMARK    1  A    between atoms: C_1  and  C_2
REMARK    2  A    between atoms: C_5  and  N_9
REMARK    3  A    between atoms: C_7  and  C_8
REMARK    4  A    between atoms: N_9  and  S_10
REMARK    5  A    between atoms: S_10  and  C_13
REMARK    6  A    between atoms: C_22  and  C_23
REMARK                            x       y       z     vdW  Elec       q    Type
REMARK                         _______ _______ _______ _____ _____    ______ ____
ROOT
ATOM      1  S   UNL     1       0.994  -5.004  -1.146  0.00  0.00    +0.073 S 
ATOM      2  O   UNL     1       0.767  -6.403  -1.041  0.00  0.00    -0.150 OA
ATOM      3  O   UNL     1       0.777  -4.285  -2.353  0.00  0.00    -0.150 OA
ENDROOT
BRANCH   1   4
ATOM      4  C   UNL     1       2.675  -4.731  -0.693  0.00  0.00    +0.113 A 
ATOM      5  C   UNL     1       3.448  -3.954  -1.482  0.00  0.00    +0.054 A 
ATOM      6  C   UNL     1       4.844  -3.720  -1.118  0.00  0.00    +0.058 A 
ATOM      7  N   UNL     1       5.834  -3.042  -1.642  0.00  0.00    -0.267 N 
ATOM      8  C   UNL     1       6.938  -3.195  -0.837  0.00  0.00    +0.308 C 
ATOM      9  O   UNL     1       8.024  -2.693  -1.041  0.00  0.00    -0.252 OA
ATOM     10  N   UNL     1       6.627  -4.000   0.233  0.00  0.00    -0.268 N 
ATOM     11  C   UNL     1       5.372  -4.357   0.130  0.00  0.00    +0.056 A 
ATOM     12  C   UNL     1       4.467  -5.184   0.926  0.00  0.00    +0.030 A 
ATOM     13  C   UNL     1       3.188  -5.347   0.525  0.00  0.00    -0.022 A 
ATOM     14  C   UNL     1       2.264  -6.197   1.358  0.00  0.00    +0.046 C 
ATOM     15  H   UNL     1       5.795  -2.521  -2.459  0.00  0.00    +0.156 HD
ATOM     16  H   UNL     1       7.235  -4.259   0.944  0.00  0.00    +0.156 HD
ENDBRANCH   1   4
BRANCH   1  17
ATOM     17  N   UNL     1       0.052  -4.283   0.010  0.00  0.00    -0.216 N 
ATOM     18  H   UNL     1      -0.540  -4.822   0.557  0.00  0.00    +0.174 HD
BRANCH  17  23
ATOM     19  C   UNL     1       0.292   1.331   0.768  0.00  0.00    +0.044 C 
ATOM     20  C   UNL     1       0.229  -0.161   0.567  0.00  0.00    -0.047 A 
ATOM     21  C   UNL     1       0.150  -0.681  -0.712  0.00  0.00    +0.005 A 
ATOM     22  C   UNL     1       0.092  -2.048  -0.900  0.00  0.00    +0.025 A 
ATOM     23  C   UNL     1       0.112  -2.900   0.197  0.00  0.00    +0.048 A 
ATOM     24  C   UNL     1       0.191  -2.374   1.480  0.00  0.00    +0.028 A 
ATOM     25  C   UNL     1       0.254  -1.006   1.661  0.00  0.00    -0.046 A 
ATOM     26  C   UNL     1       0.346  -0.434   3.052  0.00  0.00    +0.044 C 
ENDBRANCH  17  23
ENDBRANCH   1  17
TORSDOF 3
