REMARK  Name = ZINC64439084
REMARK  4 active torsions:
REMARK  status: ('A' for Active; 'I' for Inactive)
REMARK    1  A    between atoms: C_1  and  C_2
REMARK    2  A    between atoms: N_4  and  C_5
REMARK    3  A    between atoms: C_10  and  N_15
REMARK    4  A    between atoms: C_16  and  C_18
REMARK                            x       y       z     vdW  Elec       q    Type
REMARK                         _______ _______ _______ _____ _____    ______ ____
ROOT
ATOM      1  C   UNL     1      -0.511  -3.474   0.084  0.00  0.00    +0.224 C 
ATOM      2  N   UNL     1      -1.795  -4.125   0.378  0.00  0.00    -0.316 N 
ATOM      3  C   UNL     1      -2.726  -4.212  -0.656  0.00  0.00    +0.044 A 
ATOM      4  C   UNL     1      -4.000  -4.798  -0.561  0.00  0.00    +0.047 A 
ATOM      5  C   UNL     1      -4.852  -4.835  -1.647  0.00  0.00    +0.035 A 
ATOM      6  C   UNL     1      -4.475  -4.293  -2.869  0.00  0.00    +0.024 A 
ATOM      7  C   UNL     1      -3.224  -3.711  -2.986  0.00  0.00    +0.018 A 
ATOM      8  C   UNL     1      -2.378  -3.676  -1.901  0.00  0.00    +0.032 A 
ATOM      9  S   UNL     1      -0.735  -3.027  -1.685  0.00  0.00    -0.082 S 
ATOM     10  H   UNL     1      -1.988  -4.482   1.259  0.00  0.00    +0.149 HD
ENDROOT
BRANCH   1  14
ATOM     11  C   UNL     1       1.072  -0.448   1.811  0.00  0.00    +0.109 C 
ATOM     12  C   UNL     1       0.880  -1.677   0.961  0.00  0.00    +0.212 C 
ATOM     13  O   UNL     1       1.810  -2.124   0.323  0.00  0.00    -0.276 OA
ATOM     14  N   UNL     1      -0.324  -2.279   0.910  0.00  0.00    -0.288 N 
ATOM     15  H   UNL     1      -1.067  -1.922   1.420  0.00  0.00    +0.151 HD
ENDBRANCH   1  14
BRANCH   5  16
ATOM     16  N   UNL     1      -6.115  -5.427  -1.515  0.00  0.00    -0.283 N 
ATOM     17  C   UNL     1      -6.667  -6.078  -2.558  0.00  0.00    +0.248 C 
ATOM     18  O   UNL     1      -6.032  -6.235  -3.579  0.00  0.00    -0.273 OA
ATOM     19  H   UNL     1      -6.592  -5.368  -0.672  0.00  0.00    +0.155 HD
BRANCH  17  20
ATOM     20  C   UNL     1      -8.072  -6.612  -2.455  0.00  0.00    +0.241 C 
ATOM     21  C   UNL     1      -9.079  -5.527  -2.742  0.00  0.00    -0.012 C 
ATOM     22  C   UNL     1      -9.742  -5.951  -3.822  0.00  0.00    +0.065 C 
ATOM     23  C   UNL     1     -10.861  -5.161  -4.464  0.00  0.00    +0.057 C 
ATOM     24  C   UNL     1     -11.352  -4.111  -3.462  0.00  0.00    +0.006 C 
ATOM     25  C   UNL     1     -10.159  -3.323  -2.913  0.00  0.00    +0.005 C 
ATOM     26  C   UNL     1      -9.321  -4.240  -2.011  0.00  0.00    +0.035 C 
ATOM     27  N   UNL     1      -9.262  -7.150  -4.220  0.00  0.00    -0.158 NA
ATOM     28  N   UNL     1      -8.339  -7.596  -3.522  0.00  0.00    -0.170 NA
ENDBRANCH  17  20
ENDBRANCH   5  16
TORSDOF 3
