REMARK  Name = ZINC17026294
REMARK  9 active torsions:
REMARK  status: ('A' for Active; 'I' for Inactive)
REMARK    1  A    between atoms: C_1  and  C_2
REMARK    2  A    between atoms: C_5  and  C_36
REMARK    3  A    between atoms: C_6  and  N_8
REMARK    4  A    between atoms: C_9  and  C_11
REMARK    5  A    between atoms: C_11  and  S_12
REMARK    6  A    between atoms: S_12  and  C_13
REMARK    7  A    between atoms: N_27  and  C_28
REMARK    8  A    between atoms: C_30  and  C_35
REMARK    9  A    between atoms: C_32  and  C_34
REMARK                            x       y       z     vdW  Elec       q    Type
REMARK                         _______ _______ _______ _____ _____    ______ ____
ROOT
ATOM      1  C   UNL     1       2.761   3.678   0.030  0.00  0.00    +0.177 A 
ATOM      2  N   UNL     1       1.455   3.812   0.085  0.00  0.00    -0.221 NA
ATOM      3  C   UNL     1       0.649   2.739   0.113  0.00  0.00    +0.104 A 
ATOM      4  C   UNL     1      -0.810   2.568   0.174  0.00  0.00    +0.026 A 
ATOM      5  C   UNL     1      -1.880   3.461   0.222  0.00  0.00    +0.012 A 
ATOM      6  C   UNL     1      -3.161   2.987   0.274  0.00  0.00    +0.001 A 
ATOM      7  C   UNL     1      -3.406   1.621   0.278  0.00  0.00    +0.002 A 
ATOM      8  C   UNL     1      -2.364   0.722   0.230  0.00  0.00    +0.026 A 
ATOM      9  C   UNL     1      -1.050   1.183   0.172  0.00  0.00    +0.049 A 
ATOM     10  N   UNL     1       0.164   0.533   0.124  0.00  0.00    -0.349 N 
ATOM     11  H   UNL     1       0.279  -0.430   0.114  0.00  0.00    +0.166 HD
ATOM     12  C   UNL     1       1.197   1.457   0.085  0.00  0.00    +0.132 A 
ATOM     13  C   UNL     1       2.600   1.327   0.026  0.00  0.00    +0.283 A 
ATOM     14  O   UNL     1       3.122   0.225  -0.001  0.00  0.00    -0.265 OA
ATOM     15  N   UNL     1       3.353   2.447  -0.000  0.00  0.00    -0.254 N 
ENDROOT
BRANCH  15  16
ATOM     16  C   UNL     1       4.749   2.346  -0.059  0.00  0.00    +0.052 A 
ATOM     17  C   UNL     1       5.453   1.800   1.006  0.00  0.00    +0.029 A 
ATOM     18  C   UNL     1       6.829   1.699   0.944  0.00  0.00    -0.048 A 
ATOM     19  C   UNL     1       7.506   2.149  -0.175  0.00  0.00    +0.006 A 
ATOM     20  C   UNL     1       6.809   2.698  -1.235  0.00  0.00    -0.048 A 
ATOM     21  C   UNL     1       5.432   2.798  -1.180  0.00  0.00    +0.029 A 
ATOM     22  C   UNL     1       7.551   3.187  -2.452  0.00  0.00    +0.044 C 
ATOM     23  C   UNL     1       7.593   1.101   2.097  0.00  0.00    +0.044 C 
ENDBRANCH  15  16
BRANCH   1  24
ATOM     24  S   UNL     1       3.773   5.120  -0.005  0.00  0.00    -0.078 S 
BRANCH  24  25
ATOM     25  C   UNL     1       2.496   6.401   0.053  0.00  0.00    +0.173 C 
BRANCH  25  27
ATOM     26  N   UNL     1       2.387   8.873   0.069  0.00  0.00    -0.285 N 
ATOM     27  C   UNL     1       3.147   7.760   0.033  0.00  0.00    +0.227 C 
ATOM     28  O   UNL     1       4.356   7.853  -0.016  0.00  0.00    -0.275 OA
ATOM     29  H   UNL     1       1.424   8.799   0.165  0.00  0.00    +0.155 HD
BRANCH  26  35
ATOM     30  C   UNL     1       6.333  11.743   0.668  0.00  0.00    +0.044 C 
ATOM     31  C   UNL     1       4.897  11.553   0.252  0.00  0.00    -0.049 A 
ATOM     32  C   UNL     1       4.170  12.626  -0.229  0.00  0.00    +0.004 A 
ATOM     33  C   UNL     1       2.852  12.456  -0.611  0.00  0.00    +0.005 A 
ATOM     34  C   UNL     1       2.258  11.213  -0.513  0.00  0.00    -0.029 A 
ATOM     35  C   UNL     1       2.986  10.133  -0.031  0.00  0.00    +0.037 A 
ATOM     36  C   UNL     1       4.308  10.308   0.357  0.00  0.00    +0.027 A 
ATOM     37  C   UNL     1       0.821  11.028  -0.930  0.00  0.00    +0.045 C 
ENDBRANCH  26  35
ENDBRANCH  25  27
ENDBRANCH  24  25
ENDBRANCH   1  24
TORSDOF 5
