REMARK  Name = ZINC64796613
REMARK  4 active torsions:
REMARK  status: ('A' for Active; 'I' for Inactive)
REMARK    1  A    between atoms: C_3  and  C_9
REMARK    2  A    between atoms: C_6  and  C_7
REMARK    3  A    between atoms: C_18  and  C_27
REMARK    4  A    between atoms: C_19  and  C_20
REMARK                            x       y       z     vdW  Elec       q    Type
REMARK                         _______ _______ _______ _____ _____    ______ ____
ROOT
ATOM      1  C   UNL     1       3.670   2.194  -0.021  0.00  0.00    +0.066 C 
ATOM      2  C   UNL     1       4.503   1.823   1.212  0.00  0.00    +0.109 C 
ATOM      3  C   UNL     1       5.934   2.243   1.029  0.00  0.00    +0.218 C 
ATOM      4  O   UNL     1       6.535   2.684   1.986  0.00  0.00    -0.275 OA
ATOM      5  N   UNL     1       6.577   2.150  -0.147  0.00  0.00    -0.284 N 
ATOM      6  C   UNL     1       5.830   1.827  -1.315  0.00  0.00    +0.053 A 
ATOM      7  C   UNL     1       4.462   1.844  -1.246  0.00  0.00    +0.020 A 
ATOM      8  S   UNL     1       3.916   1.411  -2.759  0.00  0.00    -0.084 S 
ATOM      9  C   UNL     1       5.487   1.220  -3.581  0.00  0.00    +0.110 A 
ATOM     10  C   UNL     1       6.393   1.509  -2.550  0.00  0.00    +0.025 A 
ATOM     11  H   UNL     1       7.534   2.301  -0.199  0.00  0.00    +0.155 HD
ENDROOT
BRANCH  10  12
ATOM     12  C   UNL     1       7.857   1.484  -2.762  0.00  0.00    -0.015 A 
ATOM     13  C   UNL     1       8.601   2.659  -2.650  0.00  0.00    +0.011 A 
ATOM     14  C   UNL     1       9.966   2.630  -2.848  0.00  0.00    +0.039 A 
ATOM     15  C   UNL     1      10.598   1.436  -3.158  0.00  0.00    +0.123 A 
ATOM     16  C   UNL     1       9.864   0.266  -3.270  0.00  0.00    +0.039 A 
ATOM     17  C   UNL     1       8.500   0.284  -3.068  0.00  0.00    +0.011 A 
ATOM     18  F   UNL     1      11.935   1.413  -3.351  0.00  0.00    -0.205 F 
ENDBRANCH  10  12
BRANCH   1  21
ATOM     19  C   UNL     1      -0.017   1.392   0.010  0.00  0.00    +0.019 A 
ATOM     20  C   UNL     1       1.170   2.095   0.002  0.00  0.00    +0.005 A 
ATOM     21  C   UNL     1       2.378   1.419  -0.013  0.00  0.00    -0.039 A 
ATOM     22  C   UNL     1       2.404   0.036  -0.021  0.00  0.00    +0.005 A 
ATOM     23  C   UNL     1       1.224  -0.679  -0.014  0.00  0.00    +0.019 A 
ATOM     24  C   UNL     1       0.002  -0.004   0.002  0.00  0.00    +0.052 A 
BRANCH  24  25
ATOM     25  C   UNL     1      -1.226  -0.740   0.010  0.00  0.00    +0.099 C 
ATOM     26  N   UNL     1      -2.201  -1.324   0.017  0.00  0.00    -0.191 NA
ENDBRANCH  24  25
ENDBRANCH   1  21
BRANCH   9  27
ATOM     27  C   UNL     1       5.751   0.866  -4.923  0.00  0.00    +0.394 C 
ATOM     28  O   UNL     1       4.823   0.643  -5.692  0.00  0.00    -0.240 OA
ATOM     29  O   UNL     1       6.909   0.781  -5.319  0.00  0.00    -0.240 OA
ENDBRANCH   9  27
TORSDOF 4
