REMARK  Name = ZINC17138564
REMARK  3 active torsions:
REMARK  status: ('A' for Active; 'I' for Inactive)
REMARK    1  A    between atoms: C_4  and  C_7
REMARK    2  A    between atoms: N_17  and  N_18
REMARK    3  A    between atoms: C_19  and  C_20
REMARK                            x       y       z     vdW  Elec       q    Type
REMARK                         _______ _______ _______ _____ _____    ______ ____
ROOT
ATOM      1  C   UNL     1       0.002  -0.004   0.002  0.00  0.00    +0.084 A 
ATOM      2  C   UNL     1      -0.913  -0.748   0.789  0.00  0.00    +0.028 A 
ATOM      3  C   UNL     1      -1.868  -0.128   1.602  0.00  0.00    +0.032 A 
ATOM      4  C   UNL     1      -2.724  -0.895   2.338  0.00  0.00    +0.042 A 
ATOM      5  C   UNL     1      -2.659  -2.286   2.291  0.00  0.00    +0.022 A 
ATOM      6  C   UNL     1      -1.740  -2.920   1.510  0.00  0.00    +0.030 A 
ATOM      7  C   UNL     1      -0.845  -2.163   0.740  0.00  0.00    +0.077 A 
ATOM      8  N   UNL     1       0.076  -2.738  -0.044  0.00  0.00    -0.213 NA
ATOM      9  C   UNL     1       0.904  -1.998  -0.757  0.00  0.00    +0.236 A 
ATOM     10  N   UNL     1       0.872  -0.668  -0.746  0.00  0.00    -0.213 NA
ATOM     11  N   UNL     1       1.841  -2.632  -1.554  0.00  0.00    -0.205 N 
ATOM     12 CL   UNL     1      -3.909  -0.126   3.347  0.00  0.00    -0.084 Cl
ATOM     13  H   UNL     1       2.542  -2.037  -2.158  0.00  0.00    +0.177 HD
ENDROOT
BRANCH   1  17
ATOM     14  C   UNL     1      -0.054   4.245   0.025  0.00  0.00    +0.000 A 
ATOM     15  C   UNL     1      -0.153   3.548   1.217  0.00  0.00    +0.001 A 
ATOM     16  C   UNL     1      -0.135   2.168   1.216  0.00  0.00    +0.010 A 
ATOM     17  C   UNL     1      -0.018   1.476   0.010  0.00  0.00    +0.001 A 
ATOM     18  C   UNL     1       0.086   2.185  -1.187  0.00  0.00    +0.010 A 
ATOM     19  C   UNL     1       0.062   3.564  -1.173  0.00  0.00    +0.001 A 
ENDBRANCH   1  17
BRANCH  11  20
ATOM     20  N   UNL     1       1.896  -4.031  -1.593  0.00  0.00    -0.186 NA
ATOM     21  C   UNL     1       2.776  -4.627  -2.342  0.00  0.00    +0.156 C 
BRANCH  21  22
ATOM     22  C   UNL     1       2.834  -6.093  -2.383  0.00  0.00    +0.060 A 
ATOM     23  C   UNL     1       2.025  -6.931  -1.678  0.00  0.00    +0.037 A 
ATOM     24  C   UNL     1       2.426  -8.294  -2.019  0.00  0.00    +0.000 A 
ATOM     25  C   UNL     1       1.978  -9.560  -1.628  0.00  0.00    +0.010 A 
ATOM     26  C   UNL     1       2.578 -10.678  -2.134  0.00  0.00    +0.001 A 
ATOM     27  C   UNL     1       3.629 -10.567  -3.034  0.00  0.00    +0.002 A 
ATOM     28  C   UNL     1       4.087  -9.330  -3.434  0.00  0.00    +0.026 A 
ATOM     29  C   UNL     1       3.492  -8.178  -2.932  0.00  0.00    +0.047 A 
ATOM     30  N   UNL     1       3.719  -6.834  -3.135  0.00  0.00    -0.353 N 
ATOM     31  H   UNL     1       4.459  -6.327  -3.772  0.00  0.00    +0.166 HD
ENDBRANCH  21  22
ENDBRANCH  11  20
TORSDOF 3
