REMARK  Name = ZINC12495128
REMARK  6 active torsions:
REMARK  status: ('A' for Active; 'I' for Inactive)
REMARK    1  A    between atoms: C_1  and  C_2
REMARK    2  A    between atoms: C_2  and  C_22
REMARK    3  A    between atoms: C_7  and  C_9
REMARK    4  A    between atoms: N_18  and  C_21
REMARK    5  A    between atoms: C_22  and  O_24
REMARK    6  A    between atoms: O_24  and  C_25
REMARK                            x       y       z     vdW  Elec       q    Type
REMARK                         _______ _______ _______ _____ _____    ______ ____
ROOT
ATOM      1  C   UNL     1       2.779  -5.119  -1.254  0.00  0.00    +0.002 C 
ATOM      2  C   UNL     1       2.869  -3.945  -0.277  0.00  0.00    +0.041 C 
ATOM      3  C   UNL     1       2.006  -4.181   0.887  0.00  0.00    +0.085 C 
ATOM      4  C   UNL     1       1.614  -2.727   1.353  0.00  0.00    +0.077 C 
ATOM      5  C   UNL     1       1.227  -2.186  -0.020  0.00  0.00    -0.027 C 
ATOM      6  C   UNL     1       0.571  -3.136   2.344  0.00  0.00    +0.224 C 
ATOM      7  O   UNL     1      -0.446  -2.536   2.621  0.00  0.00    -0.275 OA
ATOM      8  N   UNL     1       0.996  -4.321   2.875  0.00  0.00    -0.245 N 
ATOM      9  C   UNL     1       1.991  -4.908   2.134  0.00  0.00    +0.225 C 
ATOM     10  O   UNL     1       2.702  -5.835   2.456  0.00  0.00    -0.275 OA
ATOM     11  C   UNL     1       0.447  -4.904   4.101  0.00  0.00    +0.141 C 
ATOM     12  N   UNL     1       2.318  -2.704  -0.895  0.00  0.00    +0.395 N 
ATOM     13  H   UNL     1       1.944  -2.917  -1.827  0.00  0.00    -0.083 HD
ATOM     14  H   UNL     1       3.060  -1.999  -0.978  0.00  0.00    -0.083 HD
ENDROOT
BRANCH   5  15
ATOM     15  C   UNL     1       1.208  -0.679  -0.013  0.00  0.00    -0.060 A 
ATOM     16  C   UNL     1       0.002  -0.004   0.002  0.00  0.00    +0.005 A 
ATOM     17  C   UNL     1      -0.017   1.378   0.010  0.00  0.00    +0.038 A 
ATOM     18  C   UNL     1       1.173   2.086   0.002  0.00  0.00    +0.123 A 
ATOM     19  C   UNL     1       2.381   1.408  -0.013  0.00  0.00    +0.038 A 
ATOM     20  C   UNL     1       2.397   0.026  -0.020  0.00  0.00    +0.005 A 
ATOM     21  F   UNL     1       1.156   3.437   0.009  0.00  0.00    -0.205 F 
ENDBRANCH   5  15
BRANCH   2  22
ATOM     22  C   UNL     1       4.296  -3.733   0.157  0.00  0.00    +0.296 C 
ATOM     23  O   UNL     1       4.701  -4.244   1.174  0.00  0.00    -0.252 OA
BRANCH  22  24
ATOM     24  O   UNL     1       5.118  -2.975  -0.586  0.00  0.00    -0.469 OA
ATOM     25  C   UNL     1       6.479  -2.814  -0.107  0.00  0.00    +0.280 C 
ENDBRANCH  22  24
ENDBRANCH   2  22
TORSDOF 3
