REMARK  Name = ZINC15479493
REMARK  4 active torsions:
REMARK  status: ('A' for Active; 'I' for Inactive)
REMARK    1  A    between atoms: N_9  and  N_13
REMARK    2  A    between atoms: C_14  and  C_16
REMARK    3  A    between atoms: C_16  and  N_17
REMARK    4  A    between atoms: C_22  and  C_24
REMARK                            x       y       z     vdW  Elec       q    Type
REMARK                         _______ _______ _______ _____ _____    ______ ____
ROOT
ATOM      1  N   UNL     1       5.301  -1.437   3.816  0.00  0.00    -0.225 N 
ATOM      2  C   UNL     1       5.117  -2.764   3.670  0.00  0.00    +0.213 C 
ATOM      3  O   UNL     1       4.135  -3.180   3.093  0.00  0.00    -0.276 OA
ATOM      4  H   UNL     1       6.087  -1.104   4.278  0.00  0.00    +0.173 HD
ENDROOT
BRANCH   1  13
ATOM      5  C   UNL     1       0.579   2.907   2.431  0.00  0.00    +0.000 C 
ATOM      6  C   UNL     1       2.059   3.288   2.360  0.00  0.00    +0.003 C 
ATOM      7  C   UNL     1       2.847   2.462   3.380  0.00  0.00    +0.035 C 
ATOM      8  C   UNL     1       2.671   0.978   3.078  0.00  0.00    +0.114 C 
ATOM      9  C   UNL     1       1.198   0.588   3.124  0.00  0.00    +0.035 C 
ATOM     10  C   UNL     1       0.416   1.421   2.105  0.00  0.00    +0.003 C 
ATOM     11  C   UNL     1       3.469   0.142   4.053  0.00  0.00    +0.263 C 
ATOM     12  O   UNL     1       3.337   0.093   5.257  0.00  0.00    -0.271 OA
ATOM     13  N   UNL     1       4.359  -0.538   3.300  0.00  0.00    -0.137 N 
ATOM     14  C   UNL     1       4.230  -0.246   2.000  0.00  0.00    +0.326 C 
ATOM     15  O   UNL     1       4.919  -0.734   1.127  0.00  0.00    -0.251 OA
ATOM     16  N   UNL     1       3.249   0.648   1.769  0.00  0.00    -0.284 N 
ATOM     17  H   UNL     1       2.979   1.004   0.908  0.00  0.00    +0.151 HD
ENDBRANCH   1  13
BRANCH   2  18
ATOM     18  C   UNL     1       6.131  -3.731   4.225  0.00  0.00    +0.021 C 
BRANCH  18  19
ATOM     19  N   UNL     1       5.703  -5.107   3.938  0.00  0.00    +0.393 N 
ATOM     20  C   UNL     1       4.480  -5.405   4.692  0.00  0.00    -0.077 C 
ATOM     21  C   UNL     1       3.985  -6.808   4.335  0.00  0.00    -0.019 C 
ATOM     22  C   UNL     1       5.067  -7.831   4.691  0.00  0.00    -0.003 C 
ATOM     23  C   UNL     1       6.361  -7.467   3.956  0.00  0.00    -0.006 C 
ATOM     24  C   UNL     1       6.768  -6.040   4.327  0.00  0.00    +0.020 C 
ATOM     25  H   UNL     1       5.519  -5.202   2.951  0.00  0.00    -0.080 HD
BRANCH  24  26
ATOM     26  C   UNL     1       8.041  -5.677   3.607  0.00  0.00    +0.197 C 
ATOM     27  O   UNL     1       7.991  -5.138   2.522  0.00  0.00    -0.278 OA
ATOM     28  N   UNL     1       9.235  -5.952   4.169  0.00  0.00    -0.331 N 
ATOM     29  H   UNL     1       9.274  -6.383   5.037  0.00  0.00    +0.145 HD
ATOM     30  H   UNL     1      10.054  -5.719   3.705  0.00  0.00    +0.145 HD
ENDBRANCH  24  26
ENDBRANCH  18  19
ENDBRANCH   2  18
TORSDOF 4
