REMARK  Name = ZINC06557730
REMARK  1 active torsions:
REMARK  status: ('A' for Active; 'I' for Inactive)
REMARK    1  A    between atoms: C_4  and  N_7
REMARK                            x       y       z     vdW  Elec       q    Type
REMARK                         _______ _______ _______ _____ _____    ______ ____
ROOT
ATOM      1  N   UNL     1       3.623  -0.652  -0.037  0.00  0.00    -0.255 N 
ATOM      2  C   UNL     1       3.631  -2.002   0.053  0.00  0.00    +0.270 A 
ATOM      3  O   UNL     1       2.595  -2.634   0.147  0.00  0.00    -0.266 OA
ATOM      4  C   UNL     1       4.934  -2.675   0.033  0.00  0.00    +0.103 A 
ATOM      5  C   UNL     1       5.368  -3.977   0.098  0.00  0.00    +0.120 A 
ATOM      6  N   UNL     1       6.707  -3.965   0.030  0.00  0.00    -0.282 N 
ATOM      7  N   UNL     1       7.166  -2.647  -0.081  0.00  0.00    -0.154 NA
ATOM      8  H   UNL     1       7.274  -4.752   0.054  0.00  0.00    +0.188 HD
ATOM      9  C   UNL     1       6.137  -1.833  -0.084  0.00  0.00    +0.189 A 
ATOM     10  N   UNL     1       5.975  -0.486  -0.165  0.00  0.00    -0.201 NA
ATOM     11  C   UNL     1       4.787   0.059  -0.148  0.00  0.00    +0.189 A 
ATOM     12  S   UNL     1       4.678   1.814  -0.267  0.00  0.00    -0.010 SA
ENDROOT
BRANCH   1  16
ATOM     13  C   UNL     1      -0.016   1.379   0.011  0.00  0.00    +0.000 A 
ATOM     14  C   UNL     1       0.648   1.126   1.197  0.00  0.00    +0.002 A 
ATOM     15  C   UNL     1       1.854   0.453   1.184  0.00  0.00    +0.026 A 
ATOM     16  C   UNL     1       2.400   0.031  -0.021  0.00  0.00    +0.052 A 
ATOM     17  C   UNL     1       1.730   0.287  -1.210  0.00  0.00    +0.026 A 
ATOM     18  C   UNL     1       0.524   0.960  -1.191  0.00  0.00    +0.002 A 
ENDBRANCH   1  16
TORSDOF 1
