REMARK  Name = ZINC39686202
REMARK  7 active torsions:
REMARK  status: ('A' for Active; 'I' for Inactive)
REMARK    1  A    between atoms: C_1  and  C_2
REMARK    2  A    between atoms: C_2  and  C_3
REMARK    3  A    between atoms: C_2  and  C_4
REMARK    4  A    between atoms: C_4  and  C_5
REMARK    5  A    between atoms: C_10  and  N_13
REMARK    6  A    between atoms: C_14  and  C_16
REMARK    7  A    between atoms: C_27  and  C_29
REMARK                            x       y       z     vdW  Elec       q    Type
REMARK                         _______ _______ _______ _____ _____    ______ ____
ROOT
ATOM      1  C   UNL     1      -6.431  -6.768   2.740  0.00  0.00    +0.100 C 
ATOM      2  C   UNL     1      -5.779  -7.136   4.092  0.00  0.00    +0.121 C 
ATOM      3  N   UNL     1      -6.496  -8.355   4.535  0.00  0.00    -0.296 N 
ATOM      4  C   UNL     1      -6.691  -9.140   3.292  0.00  0.00    +0.115 C 
ATOM      5  C   UNL     1      -7.028  -8.086   2.219  0.00  0.00    -0.004 C 
ATOM      6  C   UNL     1      -8.541  -7.956   2.063  0.00  0.00    -0.010 C 
ATOM      7  C   UNL     1      -9.104  -9.259   1.490  0.00  0.00    -0.082 C 
ATOM      8  N   UNL     1      -8.480  -9.534   0.189  0.00  0.00    +0.379 N 
ATOM      9  C   UNL     1      -7.038  -9.749   0.361  0.00  0.00    -0.082 C 
ATOM     10  C   UNL     1      -6.388  -8.466   0.887  0.00  0.00    -0.010 C 
ATOM     11  C   UNL     1      -6.884  -8.677   5.784  0.00  0.00    +0.247 C 
ATOM     12  O   UNL     1      -6.766  -7.869   6.685  0.00  0.00    -0.270 OA
ATOM     13  H   UNL     1      -8.896 -10.359  -0.214  0.00  0.00    -0.086 HD
ATOM     14  H   UNL     1      -8.630  -8.749  -0.427  0.00  0.00    -0.086 HD
ENDROOT
BRANCH  11  15
ATOM     15  C   UNL     1      -7.453 -10.014   6.061  0.00  0.00    +0.042 A 
ATOM     16  C   UNL     1      -7.207 -11.074   5.187  0.00  0.00    +0.051 A 
ATOM     17  C   UNL     1      -7.741 -12.321   5.450  0.00  0.00    +0.127 A 
ATOM     18  C   UNL     1      -8.519 -12.520   6.578  0.00  0.00    +0.076 A 
ATOM     19  C   UNL     1      -8.767 -11.471   7.449  0.00  0.00    +0.127 A 
ATOM     20  C   UNL     1      -8.233 -10.221   7.199  0.00  0.00    +0.051 A 
ATOM     21  F   UNL     1      -9.527 -11.672   8.547  0.00  0.00    -0.205 F 
ATOM     22  F   UNL     1      -7.504 -13.348   4.604  0.00  0.00    -0.205 F 
ENDBRANCH  11  15
BRANCH   1  24
ATOM     23  N   UNL     1      -5.737  -5.343   0.842  0.00  0.00    -0.312 N 
ATOM     24  C   UNL     1      -5.393  -6.246   1.781  0.00  0.00    +0.218 C 
ATOM     25  O   UNL     1      -4.248  -6.639   1.855  0.00  0.00    -0.275 OA
ATOM     26  H   UNL     1      -6.653  -5.029   0.783  0.00  0.00    +0.149 HD
BRANCH  23  32
ATOM     27  C   UNL     1      -3.365  -1.625  -2.261  0.00  0.00    +0.216 C 
ATOM     28  O   UNL     1      -2.685  -0.788  -1.707  0.00  0.00    -0.276 OA
ATOM     29  N   UNL     1      -3.534  -2.838  -1.698  0.00  0.00    -0.301 N 
ATOM     30  C   UNL     1      -4.350  -3.864  -2.361  0.00  0.00    +0.109 C 
ATOM     31  C   UNL     1      -5.412  -4.362  -1.375  0.00  0.00    +0.041 C 
ATOM     32  C   UNL     1      -4.727  -4.836  -0.091  0.00  0.00    +0.076 C 
ATOM     33  C   UNL     1      -3.981  -3.665   0.553  0.00  0.00    +0.041 C 
ATOM     34  C   UNL     1      -2.898  -3.162  -0.414  0.00  0.00    +0.109 C 
BRANCH  27  35
ATOM     35  C   UNL     1      -4.024  -1.308  -3.580  0.00  0.00    +0.099 C 
BRANCH  35  37
ATOM     36  C   UNL     1      -4.238   0.403  -5.388  0.00  0.00    +0.008 C 
ATOM     37  C   UNL     1      -3.675   0.123  -3.993  0.00  0.00    -0.008 C 
ATOM     38  C   UNL     1      -4.283   1.106  -2.990  0.00  0.00    +0.008 C 
ENDBRANCH  35  37
ENDBRANCH  27  35
ENDBRANCH  23  32
ENDBRANCH   1  24
TORSDOF 5
