REMARK  Name = ZINC36024812
REMARK  6 active torsions:
REMARK  status: ('A' for Active; 'I' for Inactive)
REMARK    1  A    between atoms: C_4  and  C_7
REMARK    2  A    between atoms: C_7  and  C_8
REMARK    3  A    between atoms: N_12  and  C_30
REMARK    4  A    between atoms: N_17  and  S_20
REMARK    5  A    between atoms: S_20  and  C_23
REMARK    6  A    between atoms: C_30  and  C_31
REMARK                            x       y       z     vdW  Elec       q    Type
REMARK                         _______ _______ _______ _____ _____    ______ ____
ROOT
ATOM      1  C   UNL     1       4.298  -0.876   1.517  0.00  0.00    +0.023 C 
ATOM      2  C   UNL     1       5.555  -1.713   1.621  0.00  0.00    +0.201 C 
ATOM      3  O   UNL     1       6.690  -1.287   1.639  0.00  0.00    -0.277 OA
ATOM      4  N   UNL     1       5.199  -3.012   1.692  0.00  0.00    -0.306 N 
ATOM      5  C   UNL     1       3.739  -3.123   1.635  0.00  0.00    +0.006 C 
ATOM      6  N   UNL     1       3.203  -1.778   1.948  0.00  0.00    +0.401 N 
ATOM      7  C   UNL     1       3.244  -4.129   2.674  0.00  0.00    +0.023 C 
ATOM      8  C   UNL     1       3.833  -5.509   2.365  0.00  0.00    +0.109 C 
ATOM      9  N   UNL     1       3.515  -5.858   0.974  0.00  0.00    -0.177 NA
ATOM     10  C   UNL     1       3.885  -4.918  -0.093  0.00  0.00    +0.109 C 
ATOM     11  C   UNL     1       3.295  -3.543   0.235  0.00  0.00    +0.023 C 
ATOM     12  H   UNL     1       3.031  -1.683   2.937  0.00  0.00    -0.082 HD
ATOM     13  H   UNL     1       2.363  -1.596   1.419  0.00  0.00    -0.082 HD
ENDROOT
BRANCH   9  14
ATOM     14  S   UNL     1       2.756  -7.285   0.615  0.00  0.00    +0.061 S 
ATOM     15  O   UNL     1       3.084  -7.592  -0.733  0.00  0.00    -0.153 OA
ATOM     16  O   UNL     1       3.033  -8.174   1.688  0.00  0.00    -0.153 OA
BRANCH  14  17
ATOM     17  C   UNL     1       1.021  -6.976   0.653  0.00  0.00    +0.107 A 
ATOM     18  C   UNL     1       0.318  -7.129   1.834  0.00  0.00    +0.028 A 
ATOM     19  C   UNL     1      -1.042  -6.887   1.865  0.00  0.00    +0.003 A 
ATOM     20  C   UNL     1      -1.701  -6.492   0.715  0.00  0.00    +0.020 A 
ATOM     21  C   UNL     1      -0.998  -6.338  -0.466  0.00  0.00    +0.043 A 
ATOM     22  C   UNL     1       0.365  -6.575  -0.495  0.00  0.00    +0.048 A 
ATOM     23 CL   UNL     1      -1.823  -5.842  -1.910  0.00  0.00    -0.083 Cl
ENDBRANCH  14  17
ENDBRANCH   9  14
BRANCH   1  24
ATOM     24  C   UNL     1       4.079  -0.422   0.073  0.00  0.00    +0.028 C 
BRANCH  24  28
ATOM     25  C   UNL     1       0.502   1.902  -0.164  0.00  0.00    +0.000 A 
ATOM     26  C   UNL     1       1.712   2.519   0.091  0.00  0.00    +0.000 A 
ATOM     27  C   UNL     1       2.870   1.767   0.168  0.00  0.00    +0.003 A 
ATOM     28  C   UNL     1       2.817   0.397  -0.010  0.00  0.00    -0.048 A 
ATOM     29  C   UNL     1       1.607  -0.220  -0.264  0.00  0.00    +0.003 A 
ATOM     30  C   UNL     1       0.449   0.532  -0.343  0.00  0.00    +0.000 A 
ENDBRANCH  24  28
ENDBRANCH   1  24
BRANCH   4  31
ATOM     31  C   UNL     1       6.128  -4.139   1.808  0.00  0.00    +0.180 C 
BRANCH  31  32
ATOM     32  C   UNL     1       6.529  -4.313   3.250  0.00  0.00    +0.122 A 
ATOM     33  C   UNL     1       5.988  -5.188   4.117  0.00  0.00    +0.046 A 
ATOM     34  C   UNL     1       6.659  -5.013   5.349  0.00  0.00    +0.041 A 
ATOM     35  C   UNL     1       7.570  -4.041   5.161  0.00  0.00    +0.195 A 
ATOM     36  O   UNL     1       7.491  -3.625   3.887  0.00  0.00    -0.466 OA
ENDBRANCH  31  32
ENDBRANCH   4  31
TORSDOF 6
