REMARK  Name = ZINC63386212
REMARK  3 active torsions:
REMARK  status: ('A' for Active; 'I' for Inactive)
REMARK    1  A    between atoms: C_1  and  C_2
REMARK    2  A    between atoms: C_2  and  C_3
REMARK    3  A    between atoms: C_16  and  C_19
REMARK                            x       y       z     vdW  Elec       q    Type
REMARK                         _______ _______ _______ _____ _____    ______ ____
ROOT
ATOM      1  C   UNL     1       0.848   0.143  -1.395  0.00  0.00    -0.067 C 
ATOM      2  C   UNL     1       0.535  -1.345  -1.643  0.00  0.00    +0.018 C 
ATOM      3  C   UNL     1       1.250  -2.108  -0.555  0.00  0.00    -0.041 C 
ATOM      4  C   UNL     1       0.856  -3.056   0.281  0.00  0.00    -0.001 A 
ATOM      5  C   UNL     1      -0.395  -3.828   0.372  0.00  0.00    +0.010 A 
ATOM      6  C   UNL     1      -0.474  -4.723   1.392  0.00  0.00    +0.001 A 
ATOM      7  C   UNL     1       0.552  -4.925   2.320  0.00  0.00    +0.002 A 
ATOM      8  C   UNL     1       1.739  -4.268   2.306  0.00  0.00    +0.026 A 
ATOM      9  C   UNL     1       1.946  -3.309   1.273  0.00  0.00    +0.043 A 
ATOM     10  N   UNL     1       2.984  -2.570   1.006  0.00  0.00    -0.379 N 
ATOM     11  C   UNL     1       2.711  -1.823  -0.219  0.00  0.00    +0.097 C 
ATOM     12  C   UNL     1       2.816  -0.308  -0.035  0.00  0.00    -0.003 C 
ATOM     13  N   UNL     1       2.291   0.338  -1.244  0.00  0.00    +0.387 N 
ATOM     14  H   UNL     1       2.760  -0.044  -2.051  0.00  0.00    -0.085 HD
ATOM     15  H   UNL     1       3.798  -2.522   1.532  0.00  0.00    +0.160 HD
ATOM     16  H   UNL     1       2.485   1.327  -1.192  0.00  0.00    -0.085 HD
ENDROOT
BRANCH  12  17
ATOM     17  C   UNL     1       2.003   0.115   1.162  0.00  0.00    +0.070 A 
ATOM     18  H   UNL     1       1.397   2.679   3.070  0.00  0.00    +0.173 HD
ATOM     19  C   UNL     1       1.161  -0.788   1.798  0.00  0.00    +0.259 A 
ATOM     20  O   UNL     1       1.063  -2.044   1.354  0.00  0.00    -0.267 OA
ATOM     21  N   UNL     1       0.439  -0.384   2.876  0.00  0.00    -0.275 N 
ATOM     22  C   UNL     1       0.534   0.880   3.327  0.00  0.00    +0.329 A 
ATOM     23  O   UNL     1      -0.121   1.221   4.293  0.00  0.00    -0.247 OA
ATOM     24  N   UNL     1       1.343   1.772   2.728  0.00  0.00    -0.275 N 
ATOM     25  C   UNL     1       2.090   1.412   1.650  0.00  0.00    +0.259 A 
ATOM     26  O   UNL     1       2.896   2.300   1.062  0.00  0.00    -0.267 OA
ATOM     27  H   UNL     1      -0.151  -1.011   3.323  0.00  0.00    +0.173 HD
ENDBRANCH  12  17
BRANCH   1  29
ATOM     28  C   UNL     1       0.408   2.093   0.103  0.00  0.00    +0.002 C 
ATOM     29  C   UNL     1       0.138   0.604  -0.121  0.00  0.00    -0.019 C 
ENDBRANCH   1  29
TORSDOF 2
