REMARK  Name = ZINC48731430
REMARK  8 active torsions:
REMARK  status: ('A' for Active; 'I' for Inactive)
REMARK    1  A    between atoms: C_4  and  N_11
REMARK    2  A    between atoms: C_5  and  C_7
REMARK    3  A    between atoms: C_7  and  C_8
REMARK    4  A    between atoms: C_12  and  C_14
REMARK    5  A    between atoms: N_16  and  C_17
REMARK    6  A    between atoms: C_17  and  C_18
REMARK    7  A    between atoms: C_18  and  C_20
REMARK    8  A    between atoms: C_18  and  N_25
REMARK                            x       y       z     vdW  Elec       q    Type
REMARK                         _______ _______ _______ _____ _____    ______ ____
ROOT
ATOM      1  C   UNL     1       6.049  -0.633  -0.399  0.00  0.00    +0.299 C 
ATOM      2  O   UNL     1       6.045  -1.844  -0.313  0.00  0.00    -0.265 OA
ATOM      3  N   UNL     1       7.217   0.031  -0.498  0.00  0.00    -0.309 N 
ATOM      4  H   UNL     1       7.220   0.999  -0.567  0.00  0.00    +0.149 HD
ENDROOT
BRANCH   1   6
ATOM      5  N   UNL     1       3.591  -0.545  -0.297  0.00  0.00    -0.277 N 
ATOM      6  C   UNL     1       4.759   0.120  -0.396  0.00  0.00    +0.303 C 
ATOM      7  O   UNL     1       4.763   1.330  -0.482  0.00  0.00    -0.265 OA
ATOM      8  H   UNL     1       3.589  -1.505  -0.159  0.00  0.00    +0.155 HD
BRANCH   5  12
ATOM      9  C   UNL     1      -0.012   1.523  -0.589  0.00  0.00    +0.000 A 
ATOM     10  C   UNL     1       1.083   2.125   0.003  0.00  0.00    +0.002 A 
ATOM     11  C   UNL     1       2.280   1.443   0.101  0.00  0.00    +0.023 A 
ATOM     12  C   UNL     1       2.382   0.149  -0.395  0.00  0.00    +0.037 A 
ATOM     13  C   UNL     1       1.280  -0.453  -0.989  0.00  0.00    -0.017 A 
ATOM     14  C   UNL     1       0.086   0.236  -1.084  0.00  0.00    +0.006 A 
BRANCH  13  15
ATOM     15  C   UNL     1       1.386  -1.856  -1.529  0.00  0.00    +0.132 C 
BRANCH  15  16
ATOM     16  C   UNL     1       1.144  -2.843  -0.416  0.00  0.00    +0.215 C 
ATOM     17  O   UNL     1       0.907  -2.446   0.706  0.00  0.00    -0.276 OA
ATOM     18  N   UNL     1       1.189  -4.166  -0.666  0.00  0.00    -0.329 N 
ATOM     19  H   UNL     1       1.378  -4.484  -1.563  0.00  0.00    +0.145 HD
ATOM     20  H   UNL     1       1.033  -4.801   0.050  0.00  0.00    +0.145 HD
ENDBRANCH  15  16
ENDBRANCH  13  15
ENDBRANCH   5  12
ENDBRANCH   1   6
BRANCH   3  21
ATOM     21  C   UNL     1       8.482  -0.707  -0.501  0.00  0.00    +0.097 C 
BRANCH  21  22
ATOM     22  C   UNL     1       9.650   0.281  -0.497  0.00  0.00    +0.016 C 
BRANCH  22  23
ATOM     23  N   UNL     1       9.502   1.218  -1.619  0.00  0.00    +0.387 N 
ATOM     24  C   UNL     1       9.390   0.464  -2.873  0.00  0.00    -0.078 C 
ATOM     25  C   UNL     1       9.155   1.431  -4.035  0.00  0.00    -0.019 C 
ATOM     26  C   UNL     1      10.332   2.407  -4.127  0.00  0.00    -0.004 C 
ATOM     27  C   UNL     1      10.485   3.134  -2.788  0.00  0.00    -0.019 C 
ATOM     28  C   UNL     1      10.671   2.103  -1.672  0.00  0.00    -0.078 C 
ATOM     29  H   UNL     1       8.669   1.771  -1.486  0.00  0.00    -0.081 HD
ENDBRANCH  22  23
BRANCH  22  30
ATOM     30  C   UNL     1       9.655   1.047   0.801  0.00  0.00    +0.093 A 
ATOM     31  C   UNL     1      10.447   0.797   1.859  0.00  0.00    +0.043 A 
ATOM     32  C   UNL     1      10.120   1.751   2.850  0.00  0.00    +0.041 A 
ATOM     33  C   UNL     1       9.147   2.526   2.338  0.00  0.00    +0.195 A 
ATOM     34  O   UNL     1       8.874   2.099   1.095  0.00  0.00    -0.469 OA
ENDBRANCH  22  30
ENDBRANCH  21  22
ENDBRANCH   3  21
TORSDOF 8
