REMARK  Name = ZINC60090984
REMARK  9 active torsions:
REMARK  status: ('A' for Active; 'I' for Inactive)
REMARK    1  A    between atoms: C_1  and  C_2
REMARK    2  A    between atoms: C_2  and  C_4
REMARK    3  A    between atoms: C_2  and  N_17
REMARK    4  A    between atoms: N_6  and  C_7
REMARK    5  A    between atoms: C_12  and  O_13
REMARK    6  A    between atoms: O_13  and  C_14
REMARK    7  A    between atoms: N_17  and  C_18
REMARK    8  A    between atoms: C_18  and  C_19
REMARK    9  A    between atoms: C_19  and  C_25
REMARK                            x       y       z     vdW  Elec       q    Type
REMARK                         _______ _______ _______ _____ _____    ______ ____
ROOT
ATOM      1  N   UNL     1       0.878  -0.803  -1.214  0.00  0.00    +0.387 N 
ATOM      2  H   UNL     1       1.753  -0.303  -1.253  0.00  0.00    -0.085 HD
ATOM      3  H   UNL     1       1.052  -1.793  -1.308  0.00  0.00    -0.085 HD
ENDROOT
BRANCH   1   5
ATOM      4  C   UNL     1       0.071   0.967   0.274  0.00  0.00    -0.004 C 
ATOM      5  C   UNL     1       0.223  -0.543   0.075  0.00  0.00    +0.013 C 
BRANCH   5   6
ATOM      6  C   UNL     1       1.060  -1.115   1.190  0.00  0.00    +0.203 C 
ATOM      7  O   UNL     1       2.101  -1.684   0.935  0.00  0.00    -0.277 OA
ATOM      8  N   UNL     1       0.654  -0.994   2.469  0.00  0.00    -0.284 N 
ATOM      9  H   UNL     1      -0.143  -0.481   2.678  0.00  0.00    +0.155 HD
BRANCH   8  10
ATOM     10  C   UNL     1       1.381  -1.610   3.496  0.00  0.00    +0.076 A 
ATOM     11  C   UNL     1       2.760  -1.722   3.401  0.00  0.00    +0.027 A 
ATOM     12  C   UNL     1       3.475  -2.330   4.416  0.00  0.00    +0.002 A 
ATOM     13  C   UNL     1       2.819  -2.826   5.527  0.00  0.00    +0.004 A 
ATOM     14  C   UNL     1       1.445  -2.717   5.629  0.00  0.00    +0.048 A 
ATOM     15  C   UNL     1       0.721  -2.105   4.619  0.00  0.00    +0.148 A 
BRANCH  15  16
ATOM     16  O   UNL     1      -0.630  -1.992   4.720  0.00  0.00    -0.432 OA
BRANCH  16  17
ATOM     17  C   UNL     1      -1.239  -2.523   5.899  0.00  0.00    +0.541 C 
ATOM     18  F   UNL     1      -0.968  -3.892   5.988  0.00  0.00    -0.166 F 
ATOM     19  F   UNL     1      -0.722  -1.871   7.024  0.00  0.00    -0.166 F 
ENDBRANCH  16  17
ENDBRANCH  15  16
ENDBRANCH   8  10
ENDBRANCH   5   6
ENDBRANCH   1   5
BRANCH   1  20
ATOM     20  C   UNL     1       0.005  -0.353  -2.306  0.00  0.00    -0.070 C 
BRANCH  20  21
ATOM     21  C   UNL     1       0.657  -0.687  -3.650  0.00  0.00    -0.015 C 
ATOM     22  C   UNL     1       2.072  -0.102  -3.692  0.00  0.00    +0.038 C 
ATOM     23  C   UNL     1       1.988   1.423  -3.597  0.00  0.00    +0.160 C 
ATOM     24  O   UNL     1       1.180   1.923  -4.664  0.00  0.00    -0.380 OA
ATOM     25  C   UNL     1      -0.167   1.447  -4.648  0.00  0.00    +0.160 C 
ATOM     26  C   UNL     1      -0.170  -0.078  -4.786  0.00  0.00    +0.038 C 
BRANCH  21  27
ATOM     27  C   UNL     1       0.723  -2.183  -3.820  0.00  0.00    -0.039 A 
ATOM     28  C   UNL     1       0.085  -3.009  -2.913  0.00  0.00    +0.008 A 
ATOM     29  C   UNL     1       0.142  -4.382  -3.066  0.00  0.00    +0.050 A 
ATOM     30  C   UNL     1       0.840  -4.934  -4.128  0.00  0.00    +0.166 A 
ATOM     31  C   UNL     1       1.482  -4.101  -5.041  0.00  0.00    +0.167 A 
ATOM     32  C   UNL     1       1.416  -2.726  -4.885  0.00  0.00    +0.053 A 
ATOM     33  O   UNL     1       2.093  -4.877  -5.984  0.00  0.00    -0.453 OA
ATOM     34  C   UNL     1       2.160  -6.197  -5.411  0.00  0.00    +0.466 C 
ATOM     35  O   UNL     1       1.047  -6.231  -4.498  0.00  0.00    -0.453 OA
ENDBRANCH  21  27
ENDBRANCH  20  21
ENDBRANCH   1  20
TORSDOF 8
