REMARK  Name = ZINC32992671
REMARK  12 active torsions:
REMARK  status: ('A' for Active; 'I' for Inactive)
REMARK    1  A    between atoms: C_1  and  C_2
REMARK    2  A    between atoms: C_5  and  O_8
REMARK    3  A    between atoms: O_8  and  C_9
REMARK    4  A    between atoms: C_9  and  C_10
REMARK    5  A    between atoms: C_10  and  C_11
REMARK    6  A    between atoms: N_13  and  C_14
REMARK    7  A    between atoms: N_13  and  C_22
REMARK    8  A    between atoms: C_14  and  C_15
REMARK    9  A    between atoms: C_15  and  C_16
REMARK   10  A    between atoms: C_23  and  N_38
REMARK   11  A    between atoms: N_24  and  C_31
REMARK   12  A    between atoms: C_31  and  C_32
REMARK                            x       y       z     vdW  Elec       q    Type
REMARK                         _______ _______ _______ _____ _____    ______ ____
ROOT
ATOM      1  C   UNL     1      -0.318   6.356  -4.138  0.00  0.00    +0.223 C 
ATOM      2  O   UNL     1      -0.426   7.089  -5.098  0.00  0.00    -0.275 OA
ATOM      3  N   UNL     1      -0.419   5.020  -4.293  0.00  0.00    -0.264 N 
ENDROOT
BRANCH   3   4
ATOM      4  C   UNL     1      -0.541   4.468  -5.586  0.00  0.00    +0.140 A 
ATOM      5  C   UNL     1      -1.652   4.734  -6.360  0.00  0.00    +0.128 A 
ATOM      6  N   UNL     1      -1.740   4.185  -7.619  0.00  0.00    -0.276 N 
ATOM      7  C   UNL     1      -0.760   3.390  -8.085  0.00  0.00    +0.331 A 
ATOM      8  O   UNL     1      -0.860   2.910  -9.198  0.00  0.00    -0.246 OA
ATOM      9  N   UNL     1       0.327   3.115  -7.342  0.00  0.00    -0.273 N 
ATOM     10  H   UNL     1       1.116   2.463  -7.744  0.00  0.00    +0.173 HD
ATOM     11  C   UNL     1       0.465   3.632  -6.106  0.00  0.00    +0.277 A 
ATOM     12  O   UNL     1       1.455   3.377  -5.441  0.00  0.00    -0.266 OA
BRANCH   5  13
ATOM     13  N   UNL     1      -2.656   5.541  -5.882  0.00  0.00    -0.343 N 
ATOM     14  H   UNL     1      -3.539   5.749  -6.505  0.00  0.00    +0.144 HD
ATOM     15  H   UNL     1      -2.577   5.979  -4.876  0.00  0.00    +0.144 HD
ENDBRANCH   5  13
BRANCH   6  16
ATOM     16  C   UNL     1      -2.911   4.463  -8.454  0.00  0.00    +0.163 C 
BRANCH  16  17
ATOM     17  C   UNL     1      -3.973   3.426  -8.193  0.00  0.00    -0.028 A 
ATOM     18  C   UNL     1      -4.006   2.267  -8.945  0.00  0.00    +0.005 A 
ATOM     19  C   UNL     1      -4.976   1.313  -8.703  0.00  0.00    +0.000 A 
ATOM     20  C   UNL     1      -5.920   1.523  -7.714  0.00  0.00    +0.000 A 
ATOM     21  C   UNL     1      -5.889   2.684  -6.965  0.00  0.00    +0.000 A 
ATOM     22  C   UNL     1      -4.916   3.635  -7.204  0.00  0.00    +0.005 A 
ENDBRANCH  16  17
ENDBRANCH   6  16
ENDBRANCH   3   4
BRANCH   1  23
ATOM     23  C   UNL     1      -0.071   6.939  -2.770  0.00  0.00    +0.137 C 
BRANCH  23  24
ATOM     24  C   UNL     1       0.001   8.464  -2.870  0.00  0.00    +0.238 C 
BRANCH  24  25
ATOM     25  O   UNL     1       0.236   9.016  -1.573  0.00  0.00    -0.491 OA
BRANCH  25  30
ATOM     26  C   UNL     1       0.614  14.624  -1.213  0.00  0.00    +0.044 C 
ATOM     27  C   UNL     1       0.513  13.124  -1.309  0.00  0.00    -0.050 A 
ATOM     28  C   UNL     1       0.646  12.349  -0.172  0.00  0.00    +0.007 A 
ATOM     29  C   UNL     1       0.553  10.973  -0.258  0.00  0.00    +0.046 A 
ATOM     30  C   UNL     1       0.327  10.370  -1.486  0.00  0.00    +0.121 A 
ATOM     31  C   UNL     1       0.199  11.149  -2.627  0.00  0.00    +0.046 A 
ATOM     32  C   UNL     1       0.286  12.525  -2.535  0.00  0.00    +0.007 A 
ENDBRANCH  25  30
ENDBRANCH  24  25
ENDBRANCH  23  24
ENDBRANCH   1  23
BRANCH   3  33
ATOM     33  C   UNL     1      -0.401   4.142  -3.121  0.00  0.00    +0.118 C 
BRANCH  33  34
ATOM     34  C   UNL     1      -1.825   3.982  -2.582  0.00  0.00    +0.050 C 
BRANCH  34  35
ATOM     35  C   UNL     1      -1.807   3.079  -1.376  0.00  0.00    -0.072 C 
ATOM     36  C   UNL     1      -1.744   3.630  -0.206  0.00  0.00    -0.028 C 
ATOM     37  C   UNL     1      -1.709   2.864   1.083  0.00  0.00    +0.027 C 
ATOM     38  C   UNL     1      -2.172   1.424   0.858  0.00  0.00    +0.004 C 
ATOM     39  C   UNL     1      -1.413   0.852  -0.346  0.00  0.00    +0.005 C 
ATOM     40  C   UNL     1      -1.862   1.597  -1.605  0.00  0.00    +0.030 C 
ENDBRANCH  34  35
ENDBRANCH  33  34
ENDBRANCH   3  33
TORSDOF 11
