REMARK  Name = ZINC13496922
REMARK  10 active torsions:
REMARK  status: ('A' for Active; 'I' for Inactive)
REMARK    1  A    between atoms: C_4  and  C_7
REMARK    2  A    between atoms: C_7  and  N_8
REMARK    3  A    between atoms: N_8  and  C_9
REMARK    4  A    between atoms: N_8  and  S_19
REMARK    5  A    between atoms: C_9  and  C_10
REMARK    6  A    between atoms: N_12  and  C_13
REMARK    7  A    between atoms: S_19  and  C_22
REMARK    8  A    between atoms: C_25  and  S_28
REMARK    9  A    between atoms: S_28  and  N_31
REMARK   10  A    between atoms: N_31  and  C_32
REMARK                            x       y       z     vdW  Elec       q    Type
REMARK                         _______ _______ _______ _____ _____    ______ ____
ROOT
ATOM      1  N   UNL     1      -2.491  -2.706   0.324  0.00  0.00    -0.163 NA
ENDROOT
BRANCH   1   2
ATOM      2  S   UNL     1      -3.147  -3.009   1.814  0.00  0.00    +0.062 S 
ATOM      3  O   UNL     1      -4.178  -3.967   1.616  0.00  0.00    -0.153 OA
ATOM      4  O   UNL     1      -2.059  -3.232   2.699  0.00  0.00    -0.153 OA
BRANCH   2   5
ATOM      5  C   UNL     1      -3.935  -1.526   2.348  0.00  0.00    +0.106 A 
ATOM      6  C   UNL     1      -3.226  -0.594   3.083  0.00  0.00    +0.030 A 
ATOM      7  C   UNL     1      -3.843   0.572   3.498  0.00  0.00    +0.030 A 
ATOM      8  C   UNL     1      -5.170   0.801   3.186  0.00  0.00    +0.105 A 
ATOM      9  C   UNL     1      -5.880  -0.134   2.456  0.00  0.00    +0.030 A 
ATOM     10  C   UNL     1      -5.262  -1.297   2.037  0.00  0.00    +0.030 A 
BRANCH   8  11
ATOM     11  S   UNL     1      -5.957   2.284   3.720  0.00  0.00    +0.059 S 
ATOM     12  O   UNL     1      -4.926   3.243   3.918  0.00  0.00    -0.153 OA
ATOM     13  O   UNL     1      -7.045   2.508   2.834  0.00  0.00    -0.153 OA
BRANCH  11  14
ATOM     14  N   UNL     1      -6.614   1.982   5.210  0.00  0.00    -0.187 NA
ATOM     15  H   UNL     1      -7.577   2.001   5.328  0.00  0.00    +0.148 HD
BRANCH  14  16
ATOM     16  C   UNL     1      -5.742   1.684   6.348  0.00  0.00    +0.077 C 
ATOM     17  C   UNL     1      -5.653   0.158   6.561  0.00  0.00    +0.020 C 
ATOM     18  C   UNL     1      -5.611  -0.009   8.100  0.00  0.00    +0.002 C 
ATOM     19  C   UNL     1      -6.592   1.086   8.590  0.00  0.00    +0.002 C 
ATOM     20  C   UNL     1      -6.338   2.273   7.638  0.00  0.00    +0.020 C 
ENDBRANCH  14  16
ENDBRANCH  11  14
ENDBRANCH   8  11
ENDBRANCH   2   5
ENDBRANCH   1   2
BRANCH   1  21
ATOM     21  C   UNL     1      -3.280  -2.946  -0.887  0.00  0.00    +0.145 C 
BRANCH  21  25
ATOM     22  C   UNL     1      -2.394  -6.834  -2.417  0.00  0.00    +0.000 A 
ATOM     23  C   UNL     1      -3.418  -6.668  -1.504  0.00  0.00    +0.000 A 
ATOM     24  C   UNL     1      -3.705  -5.410  -1.008  0.00  0.00    +0.005 A 
ATOM     25  C   UNL     1      -2.968  -4.318  -1.427  0.00  0.00    -0.032 A 
ATOM     26  C   UNL     1      -1.947  -4.483  -2.344  0.00  0.00    +0.005 A 
ATOM     27  C   UNL     1      -1.657  -5.742  -2.836  0.00  0.00    +0.000 A 
ENDBRANCH  21  25
ENDBRANCH   1  21
BRANCH   1  28
ATOM     28  C   UNL     1      -1.121  -2.197   0.216  0.00  0.00    +0.205 C 
BRANCH  28  29
ATOM     29  C   UNL     1      -1.150  -0.694   0.111  0.00  0.00    +0.233 C 
ATOM     30  O   UNL     1      -2.211  -0.106   0.124  0.00  0.00    -0.274 OA
ATOM     31  N   UNL     1       0.002  -0.004   0.002  0.00  0.00    -0.284 N 
ATOM     32  H   UNL     1       0.845  -0.477  -0.076  0.00  0.00    +0.155 HD
BRANCH  31  33
ATOM     33  C   UNL     1      -0.018   1.395   0.002  0.00  0.00    +0.033 A 
ATOM     34  C   UNL     1      -1.068   2.076  -0.598  0.00  0.00    +0.023 A 
ATOM     35  C   UNL     1      -1.087   3.457  -0.592  0.00  0.00    +0.002 A 
ATOM     36  C   UNL     1      -0.056   4.162   0.002  0.00  0.00    +0.000 A 
ATOM     37  C   UNL     1       0.994   3.486   0.596  0.00  0.00    +0.002 A 
ATOM     38  C   UNL     1       1.016   2.106   0.598  0.00  0.00    +0.023 A 
ENDBRANCH  31  33
ENDBRANCH  28  29
ENDBRANCH   1  28
TORSDOF 10
