REMARK  Name = ZINC37320943
REMARK  5 active torsions:
REMARK  status: ('A' for Active; 'I' for Inactive)
REMARK    1  A    between atoms: C_1  and  C_2
REMARK    2  A    between atoms: C_2  and  C_4
REMARK    3  A    between atoms: C_2  and  N_16
REMARK    4  A    between atoms: N_16  and  C_17
REMARK    5  A    between atoms: C_17  and  C_18
REMARK                            x       y       z     vdW  Elec       q    Type
REMARK                         _______ _______ _______ _____ _____    ______ ____
ROOT
ATOM      1  C   UNL     1      -0.019   1.526   0.010  0.00  0.00    -0.009 C 
ATOM      2  C   UNL     1       0.002  -0.004   0.002  0.00  0.00    -0.043 C 
ENDROOT
BRANCH   2   3
ATOM      3  C   UNL     1       0.707  -0.490  -1.238  0.00  0.00    -0.060 A 
ATOM      4  C   UNL     1       0.034  -0.520  -2.447  0.00  0.00    +0.004 A 
ATOM      5  C   UNL     1       0.672  -0.964  -3.589  0.00  0.00    +0.028 A 
ATOM      6  C   UNL     1       1.993  -1.381  -3.523  0.00  0.00    +0.067 A 
ATOM      7  C   UNL     1       2.672  -1.350  -2.304  0.00  0.00    +0.067 A 
ATOM      8  C   UNL     1       2.025  -0.898  -1.164  0.00  0.00    +0.029 A 
ATOM      9  N   UNL     1       3.960  -1.820  -2.549  0.00  0.00    -0.306 N 
ATOM     10  H   UNL     1       4.665  -1.913  -1.890  0.00  0.00    +0.170 HD
ATOM     11  C   UNL     1       4.060  -2.122  -3.857  0.00  0.00    +0.325 A 
ATOM     12  O   UNL     1       5.057  -2.559  -4.402  0.00  0.00    -0.247 OA
ATOM     13  N   UNL     1       2.889  -1.868  -4.472  0.00  0.00    -0.306 N 
ATOM     14  H   UNL     1       2.702  -2.002  -5.414  0.00  0.00    +0.170 HD
ENDBRANCH   2   3
BRANCH   2  15
ATOM     15  N   UNL     1      -1.376  -0.512   0.012  0.00  0.00    +0.388 N 
ATOM     16  H   UNL     1      -1.888  -0.113  -0.760  0.00  0.00    -0.084 HD
ATOM     17  H   UNL     1      -1.364  -1.518  -0.076  0.00  0.00    -0.084 HD
BRANCH  15  18
ATOM     18  C   UNL     1      -2.026  -0.140   1.276  0.00  0.00    -0.006 C 
BRANCH  18  19
ATOM     19  C   UNL     1      -3.440  -0.661   1.287  0.00  0.00    +0.090 A 
ATOM     20  C   UNL     1      -3.832  -1.862   1.750  0.00  0.00    +0.044 A 
ATOM     21  C   UNL     1      -5.232  -1.934   1.567  0.00  0.00    +0.056 A 
ATOM     22  C   UNL     1      -5.612  -0.773   1.002  0.00  0.00    +0.165 A 
ATOM     23  O   UNL     1      -4.523  -0.004   0.840  0.00  0.00    -0.456 OA
ATOM     24  I   UNL     1      -7.571  -0.251   0.474  0.00  0.00    -0.001 I 
ENDBRANCH  18  19
ENDBRANCH  15  18
ENDBRANCH   2  15
TORSDOF 4
