REMARK  Name = ZINC36610386
REMARK  11 active torsions:
REMARK  status: ('A' for Active; 'I' for Inactive)
REMARK    1  A    between atoms: C_1  and  C_2
REMARK    2  A    between atoms: C_5  and  S_8
REMARK    3  A    between atoms: S_8  and  C_11
REMARK    4  A    between atoms: C_11  and  N_12
REMARK    5  A    between atoms: C_13  and  C_15
REMARK    6  A    between atoms: C_15  and  C_17
REMARK    7  A    between atoms: C_15  and  N_22
REMARK    8  A    between atoms: N_22  and  C_23
REMARK    9  A    between atoms: C_29  and  C_31
REMARK   10  A    between atoms: C_35  and  O_38
REMARK   11  A    between atoms: C_36  and  O_37
REMARK                            x       y       z     vdW  Elec       q    Type
REMARK                         _______ _______ _______ _____ _____    ______ ____
ROOT
ATOM      1  C   UNL     1       3.124  -4.510   3.817  0.00  0.00    +0.233 C 
ENDROOT
BRANCH   1   2
ATOM      2  C   UNL     1       3.561  -3.111   4.168  0.00  0.00    +0.135 A 
ATOM      3  C   UNL     1       4.398  -2.345   3.446  0.00  0.00    +0.047 A 
ATOM      4  C   UNL     1       4.530  -1.119   4.137  0.00  0.00    +0.041 A 
ATOM      5  C   UNL     1       3.766  -1.209   5.240  0.00  0.00    +0.195 A 
ATOM      6  O   UNL     1       3.177  -2.416   5.250  0.00  0.00    -0.465 OA
ENDBRANCH   1   2
BRANCH   1   8
ATOM      7  N   UNL     1       1.559  -3.769   2.051  0.00  0.00    -0.294 N 
ATOM      8  C   UNL     1       1.756  -4.466   3.188  0.00  0.00    +0.243 C 
ATOM      9  O   UNL     1       0.831  -5.057   3.704  0.00  0.00    -0.273 OA
ATOM     10  H   UNL     1       2.298  -3.296   1.638  0.00  0.00    +0.150 HD
BRANCH   7  11
ATOM     11  C   UNL     1       0.229  -3.726   1.439  0.00  0.00    +0.278 C 
BRANCH  11  12
ATOM     12  S   UNL     1      -0.643  -2.235   1.992  0.00  0.00    +0.013 S 
ATOM     13  O   UNL     1      -0.527  -2.094   3.401  0.00  0.00    -0.168 OA
ATOM     14  O   UNL     1      -1.912  -2.146   1.357  0.00  0.00    -0.168 OA
BRANCH  12  19
ATOM     15  C   UNL     1       2.539   2.360  -0.281  0.00  0.00    +0.044 C 
ATOM     16  C   UNL     1       1.744   1.212   0.287  0.00  0.00    -0.050 A 
ATOM     17  C   UNL     1       0.709   0.660  -0.444  0.00  0.00    +0.005 A 
ATOM     18  C   UNL     1      -0.020  -0.393   0.076  0.00  0.00    +0.027 A 
ATOM     19  C   UNL     1       0.286  -0.894   1.328  0.00  0.00    +0.090 A 
ATOM     20  C   UNL     1       1.322  -0.342   2.058  0.00  0.00    +0.027 A 
ATOM     21  C   UNL     1       2.054   0.708   1.536  0.00  0.00    +0.005 A 
ENDBRANCH  12  19
ENDBRANCH  11  12
ENDBRANCH   7  11
ENDBRANCH   1   8
BRANCH   1  22
ATOM     22  N   UNL     1       3.076  -5.326   5.033  0.00  0.00    -0.248 N 
ATOM     23  C   UNL     1       4.197  -5.528   5.754  0.00  0.00    +0.256 C 
ATOM     24  O   UNL     1       4.157  -6.206   6.763  0.00  0.00    -0.269 OA
BRANCH  22  25
ATOM     25  C   UNL     1       1.867  -5.894   5.447  0.00  0.00    +0.038 A 
ATOM     26  C   UNL     1       0.871  -5.094   5.991  0.00  0.00    +0.023 A 
ATOM     27  C   UNL     1      -0.322  -5.658   6.398  0.00  0.00    +0.002 A 
ATOM     28  C   UNL     1      -0.525  -7.020   6.264  0.00  0.00    +0.000 A 
ATOM     29  C   UNL     1       0.464  -7.820   5.723  0.00  0.00    +0.002 A 
ATOM     30  C   UNL     1       1.657  -7.260   5.308  0.00  0.00    +0.023 A 
ENDBRANCH  22  25
BRANCH  23  31
ATOM     31  C   UNL     1       5.472  -4.927   5.319  0.00  0.00    +0.082 A 
ATOM     32  C   UNL     1       6.012  -5.252   4.072  0.00  0.00    +0.017 A 
ATOM     33  C   UNL     1       7.203  -4.689   3.669  0.00  0.00    +0.005 A 
ATOM     34  C   UNL     1       7.871  -3.799   4.495  0.00  0.00    +0.049 A 
ATOM     35  C   UNL     1       7.348  -3.467   5.732  0.00  0.00    +0.159 A 
ATOM     36  C   UNL     1       6.143  -4.023   6.151  0.00  0.00    +0.171 A 
BRANCH  36  37
ATOM     37  O   UNL     1       5.625  -3.695   7.362  0.00  0.00    -0.503 OA
ATOM     38  H   UNL     1       5.916  -4.270   8.083  0.00  0.00    +0.292 HD
ENDBRANCH  36  37
BRANCH  35  39
ATOM     39  O   UNL     1       8.010  -2.593   6.538  0.00  0.00    -0.503 OA
ATOM     40  H   UNL     1       7.760  -1.668   6.404  0.00  0.00    +0.292 HD
ENDBRANCH  35  39
ENDBRANCH  23  31
ENDBRANCH   1  22
TORSDOF 10
