REMARK  Name = ZINC20421406
REMARK  5 active torsions:
REMARK  status: ('A' for Active; 'I' for Inactive)
REMARK    1  A    between atoms: C_4  and  C_7
REMARK    2  A    between atoms: C_7  and  O_32
REMARK    3  A    between atoms: C_8  and  C_30
REMARK    4  A    between atoms: C_22  and  C_26
REMARK    5  A    between atoms: C_23  and  N_25
REMARK                            x       y       z     vdW  Elec       q    Type
REMARK                         _______ _______ _______ _____ _____    ______ ____
ROOT
ATOM      1  C   UNL     1       1.151   3.592   0.010  0.00  0.00    +0.174 C 
ATOM      2  C   UNL     1       1.278   4.068   1.444  0.00  0.00    +0.158 C 
ATOM      3  C   UNL     1       0.087   4.902   1.910  0.00  0.00    +0.081 C 
ATOM      4  C   UNL     1       0.068   4.957   3.416  0.00  0.00    +0.005 A 
ATOM      5  C   UNL     1       1.248   5.209   4.094  0.00  0.00    +0.028 A 
ATOM      6  C   UNL     1       1.260   5.266   5.475  0.00  0.00    +0.041 A 
ATOM      7  C   UNL     1       0.087   5.071   6.184  0.00  0.00    +0.023 A 
ATOM      8  C   UNL     1      -1.091   4.819   5.512  0.00  0.00    +0.048 A 
ATOM      9  C   UNL     1      -1.107   4.761   4.122  0.00  0.00    +0.134 A 
ATOM     10  O   UNL     1      -2.283   4.512   3.494  0.00  0.00    -0.437 OA
ATOM     11  C   UNL     1      -2.290   4.084   2.211  0.00  0.00    +0.228 A 
ATOM     12  C   UNL     1      -1.180   4.259   1.412  0.00  0.00    +0.046 A 
ATOM     13  C   UNL     1      -1.195   3.830   0.088  0.00  0.00    +0.059 A 
ATOM     14  C   UNL     1      -2.352   3.210  -0.405  0.00  0.00    +0.112 A 
ATOM     15  C   UNL     1      -3.446   3.062   0.471  0.00  0.00    +0.139 A 
ATOM     16  N   UNL     1      -3.378   3.495   1.719  0.00  0.00    -0.196 NA
ATOM     17  N   UNL     1      -0.060   4.043  -0.668  0.00  0.00    -0.311 N 
ATOM     18 CL   UNL     1       2.743   5.581   6.319  0.00  0.00    -0.084 Cl
ATOM     19  H   UNL     1       0.005   4.492  -1.670  0.00  0.00    +0.149 HD
ENDROOT
BRANCH   1  23
ATOM     20  C   UNL     1       1.208  -0.679  -0.014  0.00  0.00    +0.000 A 
ATOM     21  C   UNL     1       0.058  -0.005   0.354  0.00  0.00    +0.000 A 
ATOM     22  C   UNL     1       0.040   1.377   0.362  0.00  0.00    +0.008 A 
ATOM     23  C   UNL     1       1.171   2.086   0.002  0.00  0.00    +0.003 A 
ATOM     24  C   UNL     1       2.321   1.412  -0.366  0.00  0.00    +0.008 A 
ATOM     25  C   UNL     1       2.339   0.030  -0.373  0.00  0.00    +0.000 A 
ENDBRANCH   1  23
BRANCH  15  26
ATOM     26  N   UNL     1      -4.605   2.456   0.020  0.00  0.00    -0.342 N 
ATOM     27  H   UNL     1      -5.463   2.337   0.698  0.00  0.00    +0.144 HD
ATOM     28  H   UNL     1      -4.669   2.093  -1.016  0.00  0.00    +0.144 HD
ENDBRANCH  15  26
BRANCH  14  29
ATOM     29  C   UNL     1      -2.421   2.742  -1.756  0.00  0.00    +0.104 C 
ATOM     30  N   UNL     1      -2.475   2.371  -2.829  0.00  0.00    -0.191 NA
ENDBRANCH  14  29
BRANCH   2  31
ATOM     31  C   UNL     1       1.404   2.893   2.323  0.00  0.00    +0.072 C 
ATOM     32  N   UNL     1       1.502   1.987   3.000  0.00  0.00    -0.196 NA
ENDBRANCH   2  31
BRANCH   1  33
ATOM     33  O   UNL     1       2.283   4.064  -0.723  0.00  0.00    -0.366 OA
ATOM     34  H   UNL     1       2.453   5.144  -0.837  0.00  0.00    +0.212 HD
ENDBRANCH   1  33
TORSDOF 5
