REMARK  Name = ZINC66976824
REMARK  4 active torsions:
REMARK  status: ('A' for Active; 'I' for Inactive)
REMARK    1  A    between atoms: C_10  and  C_11
REMARK    2  A    between atoms: C_10  and  O_26
REMARK    3  A    between atoms: C_11  and  N_12
REMARK    4  A    between atoms: N_15  and  C_16
REMARK                            x       y       z     vdW  Elec       q    Type
REMARK                         _______ _______ _______ _____ _____    ______ ____
ROOT
ATOM      1  N   UNL     1       4.733   1.477  -0.622  0.00  0.00    -0.296 N 
ATOM      2  C   UNL     1       5.418   2.343  -1.394  0.00  0.00    +0.300 C 
ATOM      3  O   UNL     1       5.985   1.948  -2.395  0.00  0.00    -0.253 OA
ATOM      4  N   UNL     1       5.475   3.647  -1.058  0.00  0.00    -0.297 N 
ATOM      5  H   UNL     1       4.281   1.792   0.177  0.00  0.00    +0.150 HD
ATOM      6  H   UNL     1       5.023   3.962  -0.260  0.00  0.00    +0.151 HD
ENDROOT
BRANCH   4   7
ATOM      7  C   UNL     1       6.220   4.588  -1.898  0.00  0.00    +0.075 C 
ATOM      8  C   UNL     1       7.697   4.569  -1.498  0.00  0.00    +0.027 C 
ATOM      9  C   UNL     1       8.476   5.550  -2.378  0.00  0.00    +0.067 C 
ATOM     10  C   UNL     1       7.910   6.959  -2.194  0.00  0.00    +0.170 C 
ATOM     11  C   UNL     1       6.432   6.980  -2.588  0.00  0.00    +0.067 C 
ATOM     12  C   UNL     1       5.656   5.997  -1.708  0.00  0.00    +0.027 C 
ATOM     13  O   UNL     1       8.043   7.350  -0.817  0.00  0.00    -0.346 OA
ATOM     14  C   UNL     1       9.275   8.109  -0.766  0.00  0.00    +0.191 C 
ATOM     15  C   UNL     1       9.246   8.848  -2.127  0.00  0.00    +0.191 C 
ATOM     16  O   UNL     1       8.640   7.882  -3.010  0.00  0.00    -0.346 OA
ENDBRANCH   4   7
BRANCH   1  17
ATOM     17  C   UNL     1       4.671   0.060  -0.987  0.00  0.00    +0.145 C 
BRANCH  17  27
ATOM     18  C   UNL     1       3.635  -4.797  -1.159  0.00  0.00    +0.000 A 
ATOM     19  C   UNL     1       3.604  -3.797  -2.113  0.00  0.00    +0.000 A 
ATOM     20  C   UNL     1       3.643  -2.475  -1.720  0.00  0.00    +0.007 A 
ATOM     21  C   UNL     1       3.714  -2.140  -0.374  0.00  0.00    -0.011 A 
ATOM     22  C   UNL     1       3.749  -3.136   0.575  0.00  0.00    -0.041 A 
ATOM     23  C   UNL     1       3.706  -4.467   0.178  0.00  0.00    +0.004 A 
ATOM     24  C   UNL     1       3.843  -2.847   2.051  0.00  0.00    +0.035 C 
ATOM     25  C   UNL     1       3.451  -1.399   2.340  0.00  0.00    +0.008 C 
ATOM     26  C   UNL     1       4.257  -0.485   1.410  0.00  0.00    +0.041 C 
ATOM     27  C   UNL     1       3.746  -0.677  -0.016  0.00  0.00    +0.107 C 
BRANCH  27  28
ATOM     28  O   UNL     1       2.427  -0.138  -0.121  0.00  0.00    -0.382 OA
ATOM     29  H   UNL     1       2.042  -0.209  -1.006  0.00  0.00    +0.211 HD
ENDBRANCH  27  28
ENDBRANCH  17  27
ENDBRANCH   1  17
TORSDOF 4
