REMARK  Name = ZINC58678174
REMARK  5 active torsions:
REMARK  status: ('A' for Active; 'I' for Inactive)
REMARK    1  A    between atoms: C_1  and  C_2
REMARK    2  A    between atoms: C_2  and  C_4
REMARK    3  A    between atoms: C_2  and  N_11
REMARK    4  A    between atoms: N_14  and  C_15
REMARK    5  A    between atoms: C_18  and  C_21
REMARK                            x       y       z     vdW  Elec       q    Type
REMARK                         _______ _______ _______ _____ _____    ______ ____
ROOT
ATOM      1  N   UNL     1       0.711  -0.484   1.191  0.00  0.00    -0.293 N 
ATOM      2  C   UNL     1       2.053  -0.602   1.173  0.00  0.00    +0.304 C 
ATOM      3  O   UNL     1       2.676  -0.308   0.171  0.00  0.00    -0.252 OA
ATOM      4  N   UNL     1       2.706  -1.046   2.266  0.00  0.00    -0.269 N 
ATOM      5  H   UNL     1       0.214  -0.719   1.990  0.00  0.00    +0.151 HD
ATOM      6  H   UNL     1       2.217  -1.217   3.086  0.00  0.00    +0.156 HD
ENDROOT
BRANCH   4   7
ATOM      7  C   UNL     1       4.084  -1.260   2.217  0.00  0.00    +0.035 A 
ATOM      8  C   UNL     1       4.889  -0.420   1.455  0.00  0.00    +0.024 A 
ATOM      9  C   UNL     1       6.250  -0.627   1.405  0.00  0.00    +0.020 A 
ATOM     10  C   UNL     1       6.821  -1.684   2.120  0.00  0.00    +0.052 A 
ATOM     11  C   UNL     1       6.008  -2.526   2.885  0.00  0.00    +0.020 A 
ATOM     12  C   UNL     1       4.649  -2.309   2.934  0.00  0.00    +0.024 A 
BRANCH  10  13
ATOM     13  C   UNL     1       8.235  -1.903   2.070  0.00  0.00    +0.099 C 
ATOM     14  N   UNL     1       9.357  -2.078   2.029  0.00  0.00    -0.191 NA
ENDBRANCH  10  13
ENDBRANCH   4   7
BRANCH   1  16
ATOM     15  C   UNL     1      -0.010   1.529   0.004  0.00  0.00    +0.033 C 
ATOM     16  C   UNL     1       0.002  -0.001   0.003  0.00  0.00    +0.102 C 
BRANCH  16  17
ATOM     17  C   UNL     1      -1.415  -0.515   0.021  0.00  0.00    -0.027 A 
ATOM     18  C   UNL     1      -2.123  -0.550   1.208  0.00  0.00    +0.007 A 
ATOM     19  C   UNL     1      -3.422  -1.021   1.224  0.00  0.00    +0.020 A 
ATOM     20  C   UNL     1      -4.014  -1.458   0.052  0.00  0.00    +0.041 A 
ATOM     21  C   UNL     1      -3.305  -1.423  -1.135  0.00  0.00    +0.020 A 
ATOM     22  C   UNL     1      -2.008  -0.946  -1.151  0.00  0.00    +0.007 A 
ATOM     23 CL   UNL     1      -5.646  -2.050   0.072  0.00  0.00    -0.084 Cl
ENDBRANCH  16  17
ENDBRANCH   1  16
TORSDOF 4
