REMARK  Name = ZINC17075183
REMARK  2 active torsions:
REMARK  status: ('A' for Active; 'I' for Inactive)
REMARK    1  A    between atoms: N_9  and  N_13
REMARK    2  A    between atoms: C_14  and  C_16
REMARK                            x       y       z     vdW  Elec       q    Type
REMARK                         _______ _______ _______ _____ _____    ______ ____
ROOT
ATOM      1  C   UNL     1      -0.016   1.359   0.009  0.00  0.00    +0.001 A 
ATOM      2  C   UNL     1       1.168   2.091   0.002  0.00  0.00    +0.002 A 
ATOM      3  C   UNL     1       2.381   1.467  -0.013  0.00  0.00    +0.028 A 
ATOM      4  C   UNL     1       2.440   0.067  -0.021  0.00  0.00    +0.079 A 
ATOM      5  C   UNL     1       1.231  -0.678  -0.013  0.00  0.00    +0.066 A 
ATOM      6  C   UNL     1       0.002  -0.004   0.002  0.00  0.00    +0.015 A 
ATOM      7  C   UNL     1       1.307  -2.084  -0.021  0.00  0.00    +0.280 A 
ATOM      8  O   UNL     1       0.191  -2.835  -0.015  0.00  0.00    -0.265 OA
ATOM      9  N   UNL     1       2.530  -2.660  -0.036  0.00  0.00    -0.199 N 
ATOM     10  C   UNL     1       3.645  -1.911  -0.043  0.00  0.00    +0.201 A 
ATOM     11  N   UNL     1       3.611  -0.587  -0.036  0.00  0.00    -0.221 NA
ATOM     12  S   UNL     1       5.166  -2.697  -0.060  0.00  0.00    -0.009 S 
ENDROOT
BRANCH   9  13
ATOM     13  N   UNL     1       2.636  -4.057  -0.044  0.00  0.00    -0.214 N 
ATOM     14  C   UNL     1       2.977  -4.700  -1.178  0.00  0.00    +0.264 C 
ATOM     15  O   UNL     1       3.193  -4.069  -2.194  0.00  0.00    -0.268 OA
ATOM     16  H   UNL     1       2.463  -4.561   0.767  0.00  0.00    +0.176 HD
BRANCH  14  17
ATOM     17  C   UNL     1       3.089  -6.173  -1.187  0.00  0.00    +0.057 A 
ATOM     18  C   UNL     1       2.836  -6.903  -0.022  0.00  0.00    +0.016 A 
ATOM     19  C   UNL     1       2.941  -8.277  -0.037  0.00  0.00    +0.021 A 
ATOM     20  C   UNL     1       3.297  -8.936  -1.202  0.00  0.00    +0.042 A 
ATOM     21  C   UNL     1       3.549  -8.220  -2.360  0.00  0.00    +0.040 A 
ATOM     22  C   UNL     1       3.442  -6.843  -2.361  0.00  0.00    +0.054 A 
ATOM     23 CL   UNL     1       3.752  -5.947  -3.815  0.00  0.00    -0.083 Cl
ATOM     24 CL   UNL     1       3.428 -10.667  -1.211  0.00  0.00    -0.083 Cl
ENDBRANCH  14  17
ENDBRANCH   9  13
TORSDOF 2
