REMARK  Name = ZINC20565754
REMARK  8 active torsions:
REMARK  status: ('A' for Active; 'I' for Inactive)
REMARK    1  A    between atoms: C_1  and  C_2
REMARK    2  A    between atoms: C_2  and  C_3
REMARK    3  A    between atoms: C_3  and  C_4
REMARK    4  A    between atoms: C_4  and  N_5
REMARK    5  A    between atoms: C_10  and  C_28
REMARK    6  A    between atoms: C_28  and  C_29
REMARK    7  A    between atoms: C_29  and  C_30
REMARK    8  A    between atoms: C_29  and  C_31
REMARK                            x       y       z     vdW  Elec       q    Type
REMARK                         _______ _______ _______ _____ _____    ______ ____
ROOT
ATOM      1  N   UNL     1       1.584  -2.466  -2.428  0.00  0.00    -0.242 N 
ATOM      2  C   UNL     1       0.847  -2.648  -3.530  0.00  0.00    +0.224 C 
ATOM      3  O   UNL     1      -0.338  -2.412  -3.627  0.00  0.00    -0.275 OA
ATOM      4  C   UNL     1       1.722  -3.194  -4.636  0.00  0.00    +0.073 C 
ATOM      5  C   UNL     1       1.878  -2.121  -5.734  0.00  0.00    -0.057 C 
ATOM      6  N   UNL     1       3.331  -2.108  -6.051  0.00  0.00    +0.394 N 
ATOM      7  C   UNL     1       3.989  -2.287  -4.744  0.00  0.00    +0.050 C 
ATOM      8  C   UNL     1       3.120  -3.305  -3.964  0.00  0.00    +0.088 C 
ATOM      9  C   UNL     1       2.874  -2.796  -2.562  0.00  0.00    +0.225 C 
ATOM     10  O   UNL     1       3.715  -2.702  -1.694  0.00  0.00    -0.275 OA
ATOM     11  C   UNL     1       5.399  -2.782  -4.900  0.00  0.00    -0.027 A 
ATOM     12  C   UNL     1       5.950  -3.903  -5.479  0.00  0.00    +0.019 A 
ATOM     13  C   UNL     1       7.322  -4.086  -5.465  0.00  0.00    +0.018 A 
ATOM     14  C   UNL     1       8.136  -3.140  -4.867  0.00  0.00    +0.017 A 
ATOM     15  C   UNL     1       7.587  -2.016  -4.286  0.00  0.00    +0.024 A 
ATOM     16  C   UNL     1       6.208  -1.824  -4.297  0.00  0.00    +0.036 A 
ATOM     17  N   UNL     1       5.426  -0.786  -3.785  0.00  0.00    -0.286 N 
ATOM     18  C   UNL     1       4.112  -0.982  -4.007  0.00  0.00    +0.211 C 
ATOM     19  O   UNL     1       3.205  -0.248  -3.677  0.00  0.00    -0.277 OA
ATOM     20 BR   UNL     1       8.082  -5.625  -6.259  0.00  0.00    -0.050 Br
ATOM     21  H   UNL     1       3.563  -2.870  -6.671  0.00  0.00    -0.083 HD
ATOM     22  H   UNL     1       5.788  -0.013  -3.323  0.00  0.00    +0.155 HD
ATOM     23  H   UNL     1       3.595  -1.225  -6.461  0.00  0.00    -0.083 HD
ENDROOT
BRANCH   1  24
ATOM     24  C   UNL     1       1.026  -1.943  -1.179  0.00  0.00    +0.116 C 
BRANCH  24  25
ATOM     25  C   UNL     1       1.130  -0.417  -1.173  0.00  0.00    +0.019 C 
BRANCH  25  27
ATOM     26  C   UNL     1       0.651   1.656   0.137  0.00  0.00    +0.004 C 
ATOM     27  C   UNL     1       0.547   0.130   0.131  0.00  0.00    -0.002 C 
ENDBRANCH  25  27
ENDBRANCH  24  25
ENDBRANCH   1  24
BRANCH   5  28
ATOM     28  C   UNL     1       1.064  -2.503  -6.971  0.00  0.00    -0.012 C 
BRANCH  28  29
ATOM     29  C   UNL     1       1.168  -1.389  -8.015  0.00  0.00    -0.019 C 
ATOM     30  C   UNL     1       0.476  -1.833  -9.305  0.00  0.00    +0.007 C 
ATOM     31  C   UNL     1       0.489  -0.126  -7.481  0.00  0.00    +0.007 C 
ENDBRANCH  28  29
ENDBRANCH   5  28
TORSDOF 5
