REMARK  Name = ZINC19830842
REMARK  6 active torsions:
REMARK  status: ('A' for Active; 'I' for Inactive)
REMARK    1  A    between atoms: C_1  and  C_2
REMARK    2  A    between atoms: C_3  and  C_32
REMARK    3  A    between atoms: C_4  and  C_23
REMARK    4  A    between atoms: C_10  and  C_15
REMARK    5  A    between atoms: C_18  and  O_21
REMARK    6  A    between atoms: O_21  and  C_22
REMARK                            x       y       z     vdW  Elec       q    Type
REMARK                         _______ _______ _______ _____ _____    ______ ____
ROOT
ATOM      1  C   UNL     1       1.092  -3.876   2.771  0.00  0.00    +0.061 C 
ATOM      2  C   UNL     1       1.289  -2.400   2.543  0.00  0.00    +0.019 C 
ATOM      3  C   UNL     1       2.321  -1.768   3.124  0.00  0.00    +0.058 C 
ATOM      4  C   UNL     1       2.547  -0.298   2.925  0.00  0.00    +0.096 C 
ATOM      5  C   UNL     1       1.785   0.210   1.727  0.00  0.00    +0.024 C 
ATOM      6  C   UNL     1       0.768  -0.506   1.200  0.00  0.00    +0.016 C 
ATOM      7  N   UNL     1       0.414  -1.711   1.744  0.00  0.00    -0.320 N 
ATOM      8  C   UNL     1       0.002  -0.004   0.002  0.00  0.00    +0.059 C 
ATOM      9  C   UNL     1      -0.019   1.526   0.010  0.00  0.00    +0.032 C 
ATOM     10  C   UNL     1       1.428   2.031  -0.001  0.00  0.00    +0.088 C 
ATOM     11  C   UNL     1       2.159   1.449   1.178  0.00  0.00    +0.162 C 
ATOM     12  O   UNL     1       3.090   2.060   1.665  0.00  0.00    -0.292 OA
ATOM     13  H   UNL     1      -0.583  -2.125   1.536  0.00  0.00    +0.152 HD
ENDROOT
BRANCH   4  14
ATOM     14  C   UNL     1       2.087   0.443   4.154  0.00  0.00    -0.031 A 
ATOM     15  C   UNL     1       0.760   0.384   4.539  0.00  0.00    +0.008 A 
ATOM     16  C   UNL     1       0.335   1.058   5.669  0.00  0.00    +0.050 A 
ATOM     17  C   UNL     1       1.236   1.804   6.411  0.00  0.00    +0.166 A 
ATOM     18  C   UNL     1       2.571   1.867   6.021  0.00  0.00    +0.167 A 
ATOM     19  C   UNL     1       2.991   1.185   4.891  0.00  0.00    +0.054 A 
ATOM     20  O   UNL     1       3.248   2.656   6.906  0.00  0.00    -0.453 OA
ATOM     21  C   UNL     1       2.236   3.403   7.606  0.00  0.00    +0.466 C 
ATOM     22  O   UNL     1       1.076   2.552   7.542  0.00  0.00    -0.453 OA
ENDBRANCH   4  14
BRANCH   9  23
ATOM     23  C   UNL     1      -0.740   2.030  -1.213  0.00  0.00    -0.043 A 
ATOM     24  C   UNL     1      -0.265   1.715  -2.473  0.00  0.00    +0.007 A 
ATOM     25  C   UNL     1      -0.928   2.171  -3.596  0.00  0.00    +0.046 A 
ATOM     26  C   UNL     1      -2.065   2.954  -3.459  0.00  0.00    +0.120 A 
ATOM     27  C   UNL     1      -2.537   3.273  -2.194  0.00  0.00    +0.046 A 
ATOM     28  C   UNL     1      -1.873   2.810  -1.074  0.00  0.00    +0.007 A 
BRANCH  26  29
ATOM     29  O   UNL     1      -2.715   3.409  -4.562  0.00  0.00    -0.495 OA
ATOM     30  C   UNL     1      -2.173   3.042  -5.832  0.00  0.00    +0.277 C 
ENDBRANCH  26  29
ENDBRANCH   9  23
BRANCH   3  31
ATOM     31  C   UNL     1       3.224  -2.511   3.950  0.00  0.00    +0.097 C 
ATOM     32  N   UNL     1       3.941  -3.100   4.606  0.00  0.00    -0.191 NA
ENDBRANCH   3  31
TORSDOF 4
