REMARK  Name = ZINC39421903
REMARK  10 active torsions:
REMARK  status: ('A' for Active; 'I' for Inactive)
REMARK    1  A    between atoms: C_1  and  C_2
REMARK    2  A    between atoms: C_2  and  C_3
REMARK    3  A    between atoms: C_8  and  C_12
REMARK    4  A    between atoms: C_12  and  C_14
REMARK    5  A    between atoms: C_14  and  C_16
REMARK    6  A    between atoms: C_14  and  S_22
REMARK    7  A    between atoms: S_22  and  C_23
REMARK    8  A    between atoms: C_27  and  C_33
REMARK    9  A    between atoms: N_29  and  C_30
REMARK   10  A    between atoms: C_30  and  C_31
REMARK                            x       y       z     vdW  Elec       q    Type
REMARK                         _______ _______ _______ _____ _____    ______ ____
ROOT
ATOM      1  C   UNL     1      -5.631  -1.910  -4.204  0.00  0.00    +0.150 C 
ENDROOT
BRANCH   1   2
ATOM      2  C   UNL     1      -6.091  -0.478  -4.306  0.00  0.00    -0.027 A 
ATOM      3  C   UNL     1      -7.062  -0.001  -3.446  0.00  0.00    +0.005 A 
ATOM      4  C   UNL     1      -7.484   1.312  -3.540  0.00  0.00    +0.000 A 
ATOM      5  C   UNL     1      -6.933   2.148  -4.493  0.00  0.00    +0.000 A 
ATOM      6  C   UNL     1      -5.962   1.671  -5.353  0.00  0.00    +0.000 A 
ATOM      7  C   UNL     1      -5.537   0.359  -5.256  0.00  0.00    +0.005 A 
ENDBRANCH   1   2
BRANCH   1   8
ATOM      8  C   UNL     1      -5.062  -2.158  -2.831  0.00  0.00    +0.179 C 
ATOM      9  O   UNL     1      -5.765  -2.626  -1.958  0.00  0.00    -0.291 OA
BRANCH   8  15
ATOM     10  C   UNL     1      -0.742  -1.643  -0.378  0.00  0.00    -0.024 A 
ATOM     11  C   UNL     1      -1.220  -2.133   0.786  0.00  0.00    +0.005 A 
ATOM     12  C   UNL     1      -2.550  -2.559   0.922  0.00  0.00    +0.001 A 
ATOM     13  C   UNL     1      -3.437  -2.509  -0.097  0.00  0.00    +0.010 A 
ATOM     14  C   UNL     1      -3.041  -2.013  -1.362  0.00  0.00    +0.006 A 
ATOM     15  C   UNL     1      -3.713  -1.847  -2.559  0.00  0.00    +0.025 C 
ATOM     16  C   UNL     1      -2.698  -1.264  -3.518  0.00  0.00    +0.152 C 
ATOM     17  N   UNL     1      -1.451  -1.132  -2.757  0.00  0.00    -0.380 N 
ATOM     18  C   UNL     1      -1.643  -1.548  -1.538  0.00  0.00    +0.046 A 
ATOM     19  H   UNL     1      -0.615  -0.784  -3.106  0.00  0.00    +0.160 HD
BRANCH  10  21
ATOM     20  C   UNL     1       0.776   0.313  -0.237  0.00  0.00    +0.009 C 
ATOM     21  C   UNL     1       0.693  -1.194  -0.486  0.00  0.00    +0.034 C 
ENDBRANCH  10  21
ENDBRANCH   8  15
ENDBRANCH   1   8
BRANCH   1  22
ATOM     22  S   UNL     1      -7.039  -3.018  -4.485  0.00  0.00    -0.109 S 
BRANCH  22  23
ATOM     23  C   UNL     1      -7.469  -2.750  -6.227  0.00  0.00    +0.201 C 
ATOM     24  N   UNL     1      -6.553  -3.515  -7.112  0.00  0.00    -0.229 NA
ATOM     25  N   UNL     1      -7.340  -3.676  -8.345  0.00  0.00    -0.238 NA
ATOM     26  C   UNL     1      -8.725  -3.898  -7.873  0.00  0.00    +0.138 C 
ATOM     27  N   UNL     1      -8.811  -3.304  -6.521  0.00  0.00    -0.258 NA
ATOM     28  C   UNL     1      -9.716  -3.207  -8.812  0.00  0.00    +0.042 C 
ATOM     29  H   UNL     1      -5.705  -2.998  -7.290  0.00  0.00    +0.143 HD
ATOM     30  H   UNL     1      -7.282  -2.849  -8.921  0.00  0.00    +0.142 HD
BRANCH  27  31
ATOM     31  C   UNL     1      -9.193  -4.314  -5.526  0.00  0.00    +0.115 C 
BRANCH  31  32
ATOM     32  C   UNL     1     -10.602  -4.776  -5.795  0.00  0.00    -0.019 C 
ATOM     33  C   UNL     1     -10.854  -6.052  -5.953  0.00  0.00    +0.005 C 
ENDBRANCH  31  32
ENDBRANCH  27  31
ENDBRANCH  22  23
ENDBRANCH   1  22
TORSDOF 8
