REMARK  Name = ZINC25406736
REMARK  7 active torsions:
REMARK  status: ('A' for Active; 'I' for Inactive)
REMARK    1  A    between atoms: C_4  and  C_7
REMARK    2  A    between atoms: C_7  and  C_9
REMARK    3  A    between atoms: C_7  and  N_30
REMARK    4  A    between atoms: C_9  and  C_10
REMARK    5  A    between atoms: N_12  and  C_13
REMARK    6  A    between atoms: C_17  and  S_19
REMARK    7  A    between atoms: S_19  and  N_22
REMARK                            x       y       z     vdW  Elec       q    Type
REMARK                         _______ _______ _______ _____ _____    ______ ____
ROOT
ATOM      1  C   UNL     1      -2.433  -0.217   0.530  0.00  0.00    +0.219 C 
ATOM      2  O   UNL     1      -1.459  -0.709   1.058  0.00  0.00    -0.275 OA
ATOM      3  N   UNL     1      -2.378   1.042   0.051  0.00  0.00    -0.285 N 
ATOM      4  H   UNL     1      -3.287   1.522  -0.340  0.00  0.00    +0.155 HD
ENDROOT
BRANCH   3   5
ATOM      5  C   UNL     1      -1.164   1.737   0.053  0.00  0.00    +0.035 A 
ATOM      6  C   UNL     1       0.038   1.041   0.014  0.00  0.00    +0.023 A 
ATOM      7  C   UNL     1       1.234   1.730   0.010  0.00  0.00    +0.004 A 
ATOM      8  C   UNL     1       1.237   3.113   0.049  0.00  0.00    +0.029 A 
ATOM      9  C   UNL     1       0.043   3.809   0.093  0.00  0.00    +0.114 A 
ATOM     10  C   UNL     1      -1.157   3.125   0.098  0.00  0.00    +0.052 A 
BRANCH   9  11
ATOM     11  S   UNL     1       0.053   5.570   0.143  0.00  0.00    +0.100 S 
ATOM     12  O   UNL     1      -1.179   5.966   0.730  0.00  0.00    -0.146 OA
ATOM     13  O   UNL     1       1.311   5.955   0.680  0.00  0.00    -0.146 OA
BRANCH  11  14
ATOM     14  N   UNL     1       0.024   6.105  -1.424  0.00  0.00    -0.118 NA
ATOM     15  C   UNL     1       0.025   7.374  -1.675  0.00  0.00    +0.117 C 
ATOM     16  C   UNL     1       0.046   8.381  -0.527  0.00  0.00    +0.073 C 
ATOM     17  C   UNL     1       1.409   9.053  -0.551  0.00  0.00    +0.008 C 
ATOM     18  C   UNL     1       1.460  10.289  -1.450  0.00  0.00    +0.002 C 
ATOM     19  C   UNL     1       0.747  10.088  -2.788  0.00  0.00    +0.019 C 
ATOM     20  C   UNL     1       1.032   8.743  -3.420  0.00  0.00    +0.102 C 
ATOM     21  N   UNL     1       0.002   7.802  -2.921  0.00  0.00    -0.331 N 
ATOM     22  H   UNL     1      -0.795   7.451  -3.594  0.00  0.00    +0.147 HD
ENDBRANCH  11  14
ENDBRANCH   9  11
ENDBRANCH   3   5
BRANCH   1  23
ATOM     23  C   UNL     1      -3.707  -1.014   0.408  0.00  0.00    +0.123 C 
BRANCH  23  24
ATOM     24  C   UNL     1      -3.503  -2.399   1.025  0.00  0.00    +0.113 C 
BRANCH  24  25
ATOM     25  N   UNL     1      -3.267  -2.263   2.464  0.00  0.00    -0.292 N 
ATOM     26  C   UNL     1      -4.161  -1.611   3.235  0.00  0.00    +0.298 C 
ATOM     27  O   UNL     1      -5.208  -1.222   2.755  0.00  0.00    -0.253 OA
ATOM     28  N   UNL     1      -3.894  -1.392   4.538  0.00  0.00    -0.313 N 
ATOM     29  H   UNL     1      -2.361  -2.692   2.916  0.00  0.00    +0.151 HD
ATOM     30  H   UNL     1      -4.623  -0.860   5.167  0.00  0.00    +0.146 HD
ATOM     31  H   UNL     1      -2.947  -1.744   4.972  0.00  0.00    +0.146 HD
ENDBRANCH  24  25
BRANCH  24  35
ATOM     32  C   UNL     1      -6.992  -4.776   0.372  0.00  0.00    +0.000 A 
ATOM     33  C   UNL     1      -6.644  -3.795  -0.537  0.00  0.00    +0.000 A 
ATOM     34  C   UNL     1      -5.515  -3.025  -0.326  0.00  0.00    +0.005 A 
ATOM     35  C   UNL     1      -4.734  -3.237   0.795  0.00  0.00    -0.027 A 
ATOM     36  C   UNL     1      -5.079  -4.222   1.701  0.00  0.00    +0.005 A 
ATOM     37  C   UNL     1      -6.210  -4.989   1.493  0.00  0.00    +0.000 A 
ENDBRANCH  24  35
ENDBRANCH  23  24
ENDBRANCH   1  23
TORSDOF 7
