REMARK  Name = ZINC39357312
REMARK  9 active torsions:
REMARK  status: ('A' for Active; 'I' for Inactive)
REMARK    1  A    between atoms: C_1  and  C_2
REMARK    2  A    between atoms: C_5  and  C_8
REMARK    3  A    between atoms: C_10  and  C_15
REMARK    4  A    between atoms: C_11  and  O_14
REMARK    5  A    between atoms: C_15  and  C_16
REMARK    6  A    between atoms: C_15  and  C_23
REMARK    7  A    between atoms: C_24  and  O_36
REMARK    8  A    between atoms: C_27  and  C_29
REMARK    9  A    between atoms: C_32  and  C_35
REMARK                            x       y       z     vdW  Elec       q    Type
REMARK                         _______ _______ _______ _____ _____    ______ ____
ROOT
ATOM      1  C   UNL     1      -2.895  -4.667  -0.772  0.00  0.00    +0.086 C 
ENDROOT
BRANCH   1   2
ATOM      2  C   UNL     1      -3.366  -3.264  -1.054  0.00  0.00    -0.036 A 
ATOM      3  C   UNL     1      -2.574  -2.404  -1.790  0.00  0.00    +0.006 A 
ATOM      4  C   UNL     1      -3.005  -1.117  -2.049  0.00  0.00    +0.020 A 
ATOM      5  C   UNL     1      -4.231  -0.689  -1.571  0.00  0.00    +0.041 A 
ATOM      6  C   UNL     1      -5.024  -1.550  -0.834  0.00  0.00    +0.020 A 
ATOM      7  C   UNL     1      -4.594  -2.839  -0.580  0.00  0.00    +0.006 A 
ATOM      8 CL   UNL     1      -4.774   0.928  -1.895  0.00  0.00    -0.084 Cl
ENDBRANCH   1   2
BRANCH   1  10
ATOM      9  C   UNL     1      -0.847  -4.241   0.966  0.00  0.00    +0.161 C 
ATOM     10  C   UNL     1      -1.442  -4.639  -0.373  0.00  0.00    +0.033 C 
ATOM     11  C   UNL     1      -0.375  -4.959  -1.117  0.00  0.00    +0.232 C 
ATOM     12  N   UNL     1       0.767  -4.806  -0.405  0.00  0.00    -0.140 NA
ATOM     13  N   UNL     1       0.601  -4.411   0.756  0.00  0.00    -0.294 N 
ATOM     14  H   UNL     1       1.296  -4.243   1.410  0.00  0.00    +0.184 HD
BRANCH   9  19
ATOM     15  C   UNL     1      -2.728  -7.749   5.156  0.00  0.00    +0.044 C 
ATOM     16  C   UNL     1      -2.237  -6.834   4.063  0.00  0.00    -0.050 A 
ATOM     17  C   UNL     1      -2.671  -5.522   4.013  0.00  0.00    +0.004 A 
ATOM     18  C   UNL     1      -2.221  -4.683   3.011  0.00  0.00    +0.006 A 
ATOM     19  C   UNL     1      -1.337  -5.156   2.059  0.00  0.00    -0.019 A 
ATOM     20  C   UNL     1      -0.902  -6.467   2.110  0.00  0.00    +0.006 A 
ATOM     21  C   UNL     1      -1.349  -7.305   3.114  0.00  0.00    +0.004 A 
ENDBRANCH   9  19
BRANCH  11  22
ATOM     22  O   UNL     1      -0.431  -5.379  -2.408  0.00  0.00    -0.491 OA
ATOM     23  H   UNL     1       0.433  -5.569  -2.798  0.00  0.00    +0.294 HD
ENDBRANCH  11  22
ENDBRANCH   1  10
BRANCH   1  24
ATOM     24  C   UNL     1      -3.059  -5.511  -2.010  0.00  0.00    +0.033 C 
ATOM     25  C   UNL     1      -3.372  -5.107  -3.248  0.00  0.00    +0.232 C 
ATOM     26  N   UNL     1      -3.427  -6.163  -4.096  0.00  0.00    -0.140 NA
ATOM     27  N   UNL     1      -3.185  -7.252  -3.571  0.00  0.00    -0.294 N 
ATOM     28  C   UNL     1      -2.903  -7.015  -2.145  0.00  0.00    +0.161 C 
ATOM     29  H   UNL     1      -3.178  -8.113  -4.018  0.00  0.00    +0.184 HD
BRANCH  28  30
ATOM     30  C   UNL     1      -3.905  -7.735  -1.279  0.00  0.00    -0.019 A 
ATOM     31  C   UNL     1      -5.233  -7.790  -1.659  0.00  0.00    +0.006 A 
ATOM     32  C   UNL     1      -6.152  -8.450  -0.865  0.00  0.00    +0.004 A 
ATOM     33  C   UNL     1      -5.742  -9.055   0.309  0.00  0.00    -0.050 A 
ATOM     34  C   UNL     1      -4.414  -9.001   0.688  0.00  0.00    +0.004 A 
ATOM     35  C   UNL     1      -3.494  -8.345  -0.109  0.00  0.00    +0.006 A 
ATOM     36  C   UNL     1      -6.744  -9.774   1.175  0.00  0.00    +0.044 C 
ENDBRANCH  28  30
BRANCH  25  37
ATOM     37  O   UNL     1      -3.603  -3.816  -3.606  0.00  0.00    -0.491 OA
ATOM     38  H   UNL     1      -3.817  -3.699  -4.541  0.00  0.00    +0.294 HD
ENDBRANCH  25  37
ENDBRANCH   1  24
TORSDOF 7
