REMARK  Name = ZINC39688412
REMARK  9 active torsions:
REMARK  status: ('A' for Active; 'I' for Inactive)
REMARK    1  A    between atoms: C_1  and  C_2
REMARK    2  A    between atoms: C_2  and  C_4
REMARK    3  A    between atoms: C_2  and  N_12
REMARK    4  A    between atoms: C_4  and  C_5
REMARK    5  A    between atoms: C_13  and  C_15
REMARK    6  A    between atoms: C_26  and  C_28
REMARK    7  A    between atoms: C_33  and  O_34
REMARK    8  A    between atoms: O_34  and  C_35
REMARK    9  A    between atoms: C_35  and  C_37
REMARK                            x       y       z     vdW  Elec       q    Type
REMARK                         _______ _______ _______ _____ _____    ______ ____
ROOT
ATOM      1  C   UNL     1      -3.157  -0.891  -1.458  0.00  0.00    +0.100 C 
ATOM      2  C   UNL     1      -4.074  -0.166  -0.448  0.00  0.00    +0.121 C 
ATOM      3  N   UNL     1      -4.895   0.748  -1.277  0.00  0.00    -0.296 N 
ATOM      4  C   UNL     1      -5.204  -0.037  -2.496  0.00  0.00    +0.115 C 
ATOM      5  C   UNL     1      -3.904  -0.807  -2.800  0.00  0.00    -0.004 C 
ATOM      6  C   UNL     1      -3.067  -0.045  -3.824  0.00  0.00    -0.010 C 
ATOM      7  C   UNL     1      -3.806  -0.024  -5.165  0.00  0.00    -0.082 C 
ATOM      8  N   UNL     1      -4.037  -1.400  -5.620  0.00  0.00    +0.379 N 
ATOM      9  C   UNL     1      -4.918  -2.099  -4.676  0.00  0.00    -0.082 C 
ATOM     10  C   UNL     1      -4.227  -2.207  -3.314  0.00  0.00    -0.010 C 
ATOM     11  C   UNL     1      -5.275   2.008  -0.987  0.00  0.00    +0.250 C 
ATOM     12  O   UNL     1      -6.032   2.601  -1.732  0.00  0.00    -0.270 OA
ATOM     13  H   UNL     1      -4.468  -1.384  -6.532  0.00  0.00    -0.086 HD
ATOM     14  H   UNL     1      -3.155  -1.887  -5.677  0.00  0.00    -0.086 HD
ENDROOT
BRANCH  11  15
ATOM     15  C   UNL     1      -4.772   2.669   0.233  0.00  0.00    +0.079 A 
ATOM     16  C   UNL     1      -4.560   1.926   1.397  0.00  0.00    +0.017 A 
ATOM     17  C   UNL     1      -4.090   2.548   2.533  0.00  0.00    +0.001 A 
ATOM     18  C   UNL     1      -3.828   3.909   2.527  0.00  0.00    +0.004 A 
ATOM     19  C   UNL     1      -4.034   4.654   1.383  0.00  0.00    +0.047 A 
ATOM     20  C   UNL     1      -4.501   4.043   0.230  0.00  0.00    +0.144 A 
BRANCH  20  21
ATOM     21  O   UNL     1      -4.699   4.774  -0.897  0.00  0.00    -0.425 OA
BRANCH  21  22
ATOM     22  C   UNL     1      -3.701   4.833  -1.794  0.00  0.00    +0.309 C 
ATOM     23  O   UNL     1      -2.701   4.175  -1.629  0.00  0.00    -0.251 OA
ATOM     24  C   UNL     1      -3.828   5.721  -3.005  0.00  0.00    +0.136 C 
ENDBRANCH  21  22
ENDBRANCH  20  21
ENDBRANCH  11  15
BRANCH   1  26
ATOM     25  N   UNL     1      -0.711  -0.899  -1.828  0.00  0.00    -0.312 N 
ATOM     26  C   UNL     1      -1.825  -0.192  -1.554  0.00  0.00    +0.218 C 
ATOM     27  O   UNL     1      -1.756   1.007  -1.386  0.00  0.00    -0.275 OA
ATOM     28  H   UNL     1      -0.766  -1.858  -1.963  0.00  0.00    +0.149 HD
BRANCH  25  30
ATOM     29  C   UNL     1       1.190  -0.083  -0.523  0.00  0.00    +0.028 C 
ATOM     30  C   UNL     1       0.584  -0.219  -1.921  0.00  0.00    +0.074 C 
BRANCH  30  31
ATOM     31  C   UNL     1       1.526  -1.036  -2.808  0.00  0.00    +0.057 C 
BRANCH  31  32
ATOM     32  C   UNL     1       0.989  -1.067  -4.216  0.00  0.00    -0.045 A 
ATOM     33  C   UNL     1       0.121  -2.071  -4.602  0.00  0.00    +0.006 A 
ATOM     34  C   UNL     1      -0.372  -2.100  -5.893  0.00  0.00    +0.038 A 
ATOM     35  C   UNL     1       0.004  -1.123  -6.799  0.00  0.00    +0.123 A 
ATOM     36  C   UNL     1       0.874  -0.118  -6.411  0.00  0.00    +0.038 A 
ATOM     37  C   UNL     1       1.362  -0.088  -5.119  0.00  0.00    +0.006 A 
ATOM     38  F   UNL     1      -0.477  -1.151  -8.062  0.00  0.00    -0.205 F 
ENDBRANCH  31  32
ENDBRANCH  30  31
ENDBRANCH  25  30
ENDBRANCH   1  26
TORSDOF 7
