REMARK  Name = ZINC08380816
REMARK  3 active torsions:
REMARK  status: ('A' for Active; 'I' for Inactive)
REMARK    1  A    between atoms: C_4  and  N_7
REMARK    2  A    between atoms: N_7  and  C_8
REMARK    3  A    between atoms: C_16  and  N_18
REMARK                            x       y       z     vdW  Elec       q    Type
REMARK                         _______ _______ _______ _____ _____    ______ ____
ROOT
ATOM      1  C   UNL     1       3.640  -2.000  -0.045  0.00  0.00    +0.082 C 
ATOM      2  C   UNL     1       4.848  -2.673  -0.061  0.00  0.00    +0.016 C 
ATOM      3  C   UNL     1       6.150  -2.113  -0.065  0.00  0.00    +0.121 C 
ATOM      4  N   UNL     1       7.037  -3.072  -0.081  0.00  0.00    -0.254 NA
ATOM      5  C   UNL     1       6.466  -4.299  -0.089  0.00  0.00    +0.074 A 
ATOM      6  C   UNL     1       5.064  -4.133  -0.071  0.00  0.00    +0.010 A 
ATOM      7  C   UNL     1       4.227  -5.242  -0.068  0.00  0.00    +0.013 A 
ATOM      8  C   UNL     1       4.771  -6.509  -0.081  0.00  0.00    +0.033 A 
ATOM      9  C   UNL     1       6.148  -6.681  -0.095  0.00  0.00    +0.128 A 
ATOM     10  C   UNL     1       6.994  -5.595  -0.105  0.00  0.00    +0.061 A 
ENDROOT
BRANCH   9  11
ATOM     11  N   UNL     1       6.714  -8.048  -0.107  0.00  0.00    +0.056 N 
ATOM     12  O   UNL     1       5.978  -9.007  -0.104  0.00  0.00    -0.126 OA
ATOM     13  O   UNL     1       7.912  -8.207  -0.119  0.00  0.00    -0.126 OA
ENDBRANCH   9  11
BRANCH   1  14
ATOM     14  N   UNL     1       3.620  -0.649  -0.037  0.00  0.00    -0.320 N 
ATOM     15  H   UNL     1       4.453  -0.152  -0.043  0.00  0.00    +0.152 HD
BRANCH  14  19
ATOM     16  C   UNL     1      -0.017   1.379   0.010  0.00  0.00    +0.000 A 
ATOM     17  C   UNL     1       1.169   2.090   0.002  0.00  0.00    +0.002 A 
ATOM     18  C   UNL     1       2.377   1.420  -0.013  0.00  0.00    +0.023 A 
ATOM     19  C   UNL     1       2.400   0.031  -0.021  0.00  0.00    +0.031 A 
ATOM     20  C   UNL     1       1.206  -0.680  -0.013  0.00  0.00    +0.023 A 
ATOM     21  C   UNL     1       0.002  -0.004   0.002  0.00  0.00    +0.002 A 
ENDBRANCH  14  19
ENDBRANCH   1  14
TORSDOF 3
