REMARK  Name = ZINC46478893
REMARK  5 active torsions:
REMARK  status: ('A' for Active; 'I' for Inactive)
REMARK    1  A    between atoms: C_1  and  C_2
REMARK    2  A    between atoms: C_5  and  C_8
REMARK    3  A    between atoms: C_10  and  C_13
REMARK    4  A    between atoms: C_13  and  C_15
REMARK    5  A    between atoms: C_13  and  N_16
REMARK                            x       y       z     vdW  Elec       q    Type
REMARK                         _______ _______ _______ _____ _____    ______ ____
ROOT
ATOM      1  N   UNL     1       1.093  -8.460   1.175  0.00  0.00    +0.389 N 
ATOM      2  C   UNL     1       1.100  -9.617   2.080  0.00  0.00    -0.059 C 
ATOM      3  C   UNL     1       2.050 -10.687   1.532  0.00  0.00    +0.088 C 
ATOM      4  N   UNL     1       3.370 -10.074   1.320  0.00  0.00    -0.319 N 
ATOM      5  C   UNL     1       3.437  -8.817   0.559  0.00  0.00    +0.088 C 
ATOM      6  C   UNL     1       2.422  -7.835   1.153  0.00  0.00    -0.059 C 
ATOM      7  C   UNL     1       4.518 -10.665   1.822  0.00  0.00    +0.128 A 
ATOM      8  C   UNL     1       4.458 -11.912   2.447  0.00  0.00    +0.084 A 
ATOM      9  C   UNL     1       5.630 -12.463   2.933  0.00  0.00    +0.136 A 
ATOM     10  N   UNL     1       6.767 -11.796   2.792  0.00  0.00    -0.203 NA
ATOM     11  C   UNL     1       6.793 -10.614   2.195  0.00  0.00    +0.216 A 
ATOM     12  N   UNL     1       5.694 -10.054   1.712  0.00  0.00    -0.200 NA
ATOM     13  N   UNL     1       8.000  -9.948   2.068  0.00  0.00    -0.327 N 
ATOM     14 CL   UNL     1       5.611 -14.011   3.719  0.00  0.00    -0.062 Cl
ATOM     15  H   UNL     1       8.813 -10.348   2.415  0.00  0.00    +0.145 HD
ATOM     16  H   UNL     1       8.034  -9.082   1.633  0.00  0.00    +0.145 HD
ATOM     17  H   UNL     1       0.851  -8.765   0.245  0.00  0.00    -0.081 HD
ENDROOT
BRANCH   1  18
ATOM     18  C   UNL     1       0.102  -7.482   1.642  0.00  0.00    +0.019 C 
ATOM     19  C   UNL     1      -1.284  -8.131   1.666  0.00  0.00    -0.003 C 
BRANCH  18  22
ATOM     20  C   UNL     1       0.059  -4.256  -0.021  0.00  0.00    +0.202 A 
ATOM     21  N   UNL     1       0.070  -5.047   1.067  0.00  0.00    -0.193 NA
ATOM     22  C   UNL     1       0.086  -6.299   0.708  0.00  0.00    +0.214 A 
ATOM     23  O   UNL     1       0.086  -6.357  -0.630  0.00  0.00    -0.339 OA
ATOM     24  N   UNL     1       0.064  -5.015  -1.090  0.00  0.00    -0.056 NA
BRANCH  20  29
ATOM     25  C   UNL     1      -0.018   1.503   0.010  0.00  0.00    +0.044 C 
ATOM     26  C   UNL     1       0.002  -0.004   0.002  0.00  0.00    -0.050 A 
ATOM     27  C   UNL     1       0.006  -0.686  -1.201  0.00  0.00    +0.004 A 
ATOM     28  C   UNL     1       0.024  -2.067  -1.214  0.00  0.00    +0.012 A 
ATOM     29  C   UNL     1       0.040  -2.772  -0.013  0.00  0.00    +0.022 A 
ATOM     30  C   UNL     1       0.036  -2.080   1.196  0.00  0.00    +0.012 A 
ATOM     31  C   UNL     1       0.023  -0.700   1.198  0.00  0.00    +0.004 A 
ENDBRANCH  20  29
ENDBRANCH  18  22
ENDBRANCH   1  18
TORSDOF 3
