REMARK  Name = ZINC54036795
REMARK  6 active torsions:
REMARK  status: ('A' for Active; 'I' for Inactive)
REMARK    1  A    between atoms: C_1  and  C_2
REMARK    2  A    between atoms: C_2  and  O_3
REMARK    3  A    between atoms: O_3  and  C_4
REMARK    4  A    between atoms: C_9  and  N_12
REMARK    5  A    between atoms: N_15  and  C_16
REMARK    6  A    between atoms: C_19  and  C_22
REMARK                            x       y       z     vdW  Elec       q    Type
REMARK                         _______ _______ _______ _____ _____    ______ ____
ROOT
ATOM      1  N   UNL     1       1.161  -3.643  -6.387  0.00  0.00    -0.296 N 
ATOM      2  C   UNL     1       1.687  -4.696  -7.042  0.00  0.00    +0.300 C 
ATOM      3  O   UNL     1       2.583  -5.342  -6.534  0.00  0.00    -0.253 OA
ATOM      4  N   UNL     1       1.221  -5.033  -8.261  0.00  0.00    -0.297 N 
ATOM      5  H   UNL     1       0.446  -3.127  -6.792  0.00  0.00    +0.151 HD
ATOM      6  H   UNL     1       0.506  -4.518  -8.666  0.00  0.00    +0.151 HD
ENDROOT
BRANCH   1  12
ATOM      7  C   UNL     1       0.776  -1.798  -1.335  0.00  0.00    +0.403 C 
ATOM      8  O   UNL     1       0.312  -2.549  -0.500  0.00  0.00    -0.226 OA
ATOM      9  N   UNL     1       1.395  -2.298  -2.422  0.00  0.00    -0.267 N 
ATOM     10  C   UNL     1       1.966  -1.403  -3.437  0.00  0.00    +0.113 C 
ATOM     11  C   UNL     1       1.404  -1.790  -4.809  0.00  0.00    +0.041 C 
ATOM     12  C   UNL     1       1.667  -3.276  -5.062  0.00  0.00    +0.077 C 
ATOM     13  C   UNL     1       0.956  -4.111  -3.995  0.00  0.00    +0.041 C 
ATOM     14  C   UNL     1       1.517  -3.750  -2.611  0.00  0.00    +0.113 C 
BRANCH   7  15
ATOM     15  O   UNL     1       0.671  -0.465  -1.174  0.00  0.00    -0.451 OA
BRANCH  15  17
ATOM     16  C   UNL     1      -0.019   1.526   0.010  0.00  0.00    +0.048 C 
ATOM     17  C   UNL     1       0.002  -0.004   0.002  0.00  0.00    +0.230 C 
ENDBRANCH  15  17
ENDBRANCH   7  15
ENDBRANCH   1  12
BRANCH   4  18
ATOM     18  C   UNL     1       1.794  -6.178  -8.973  0.00  0.00    +0.074 C 
ATOM     19  C   UNL     1       1.101  -7.463  -8.514  0.00  0.00    +0.022 C 
ATOM     20  C   UNL     1      -0.396  -7.370  -8.817  0.00  0.00    +0.005 C 
ATOM     21  C   UNL     1      -0.602  -7.190 -10.322  0.00  0.00    -0.014 C 
ATOM     22  C   UNL     1       0.091  -5.905 -10.781  0.00  0.00    +0.005 C 
ATOM     23  C   UNL     1       1.588  -5.997 -10.479  0.00  0.00    +0.022 C 
ATOM     24  C   UNL     1      -2.099  -7.098 -10.625  0.00  0.00    +0.007 C 
ENDBRANCH   4  18
TORSDOF 4
