REMARK  Name = ZINC48546653
REMARK  6 active torsions:
REMARK  status: ('A' for Active; 'I' for Inactive)
REMARK    1  A    between atoms: C_1  and  C_2
REMARK    2  A    between atoms: C_2  and  C_22
REMARK    3  A    between atoms: C_7  and  C_8
REMARK    4  A    between atoms: C_8  and  O_18
REMARK    5  A    between atoms: C_9  and  C_10
REMARK    6  A    between atoms: C_11  and  N_12
REMARK                            x       y       z     vdW  Elec       q    Type
REMARK                         _______ _______ _______ _____ _____    ______ ____
ROOT
ATOM      1  C   UNL     1       4.821  -0.925   1.142  0.00  0.00    +0.118 C 
ATOM      2  C   UNL     1       6.151  -1.240   1.121  0.00  0.00    +0.046 C 
ENDROOT
BRANCH   1   9
ATOM      3  C   UNL     1       0.108   1.692  -0.391  0.00  0.00    +0.104 C 
ATOM      4  C   UNL     1       0.068   0.242   0.095  0.00  0.00    +0.255 C 
ATOM      5  O   UNL     1       0.580  -0.617  -0.931  0.00  0.00    -0.419 OA
ATOM      6  C   UNL     1       1.897  -0.447  -1.233  0.00  0.00    +0.349 C 
ATOM      7  O   UNL     1       2.302  -0.383  -2.378  0.00  0.00    -0.245 OA
ATOM      8  C   UNL     1       2.802  -0.345  -0.059  0.00  0.00    +0.146 C 
ATOM      9  C   UNL     1       4.101  -0.839  -0.061  0.00  0.00    +0.067 C 
ATOM     10  C   UNL     1       2.196   0.331   1.117  0.00  0.00    +0.349 C 
ATOM     11  O   UNL     1       2.844   1.026   1.877  0.00  0.00    -0.245 OA
ATOM     12  O   UNL     1       0.861   0.115   1.280  0.00  0.00    -0.419 OA
ATOM     13  C   UNL     1      -1.378  -0.149   0.407  0.00  0.00    +0.104 C 
ENDBRANCH   1   9
BRANCH   2  14
ATOM     14  C   UNL     1       6.845  -1.460   2.335  0.00  0.00    +0.017 C 
ATOM     15  C   UNL     1       8.167  -1.663   2.322  0.00  0.00    +0.052 C 
BRANCH  15  16
ATOM     16  N   UNL     1       8.853  -1.880   3.521  0.00  0.00    -0.399 NA
ATOM     17  C   UNL     1       9.863  -0.830   3.702  0.00  0.00    +0.084 C 
ATOM     18  C   UNL     1      10.561  -1.016   5.051  0.00  0.00    +0.017 C 
ATOM     19  C   UNL     1      11.238  -2.389   5.084  0.00  0.00    +0.003 C 
ATOM     20  C   UNL     1      10.188  -3.472   4.820  0.00  0.00    +0.017 C 
ATOM     21  C   UNL     1       9.503  -3.195   3.479  0.00  0.00    +0.084 C 
ATOM     22  H   UNL     1       8.200  -1.853   4.290  0.00  0.00    +0.126 HD
ENDBRANCH  15  16
ENDBRANCH   2  14
BRANCH   1  23
ATOM     23  O   UNL     1       4.196  -0.696   2.327  0.00  0.00    -0.507 OA
ATOM     24  H   UNL     1       4.752  -0.853   3.102  0.00  0.00    +0.292 HD
ENDBRANCH   1  23
TORSDOF 4
