REMARK  Name = ZINC41545657
REMARK  4 active torsions:
REMARK  status: ('A' for Active; 'I' for Inactive)
REMARK    1  A    between atoms: C_1  and  C_2
REMARK    2  A    between atoms: C_2  and  C_13
REMARK    3  A    between atoms: N_19  and  C_21
REMARK    4  A    between atoms: C_21  and  C_22
REMARK                            x       y       z     vdW  Elec       q    Type
REMARK                         _______ _______ _______ _____ _____    ______ ____
ROOT
ATOM      1  C   UNL     1      -1.412  -0.525   0.015  0.00  0.00    +0.271 C 
ATOM      2  O   UNL     1      -1.961  -0.815  -1.027  0.00  0.00    -0.270 OA
ATOM      3  N   UNL     1      -2.067  -0.668   1.184  0.00  0.00    -0.265 N 
ATOM      4  C   UNL     1      -3.382  -1.153   1.196  0.00  0.00    +0.147 A 
ATOM      5  C   UNL     1      -4.132  -1.530   0.070  0.00  0.00    +0.065 A 
ATOM      6  C   UNL     1      -5.347  -1.940   0.500  0.00  0.00    +0.110 A 
ATOM      7  N   UNL     1      -5.370  -1.829   1.845  0.00  0.00    -0.265 N 
ATOM      8  N   UNL     1      -4.125  -1.339   2.261  0.00  0.00    -0.156 NA
ATOM      9  H   UNL     1      -1.628  -0.437   2.017  0.00  0.00    +0.156 HD
ENDROOT
BRANCH   1  11
ATOM     10  C   UNL     1      -0.019   1.526   0.010  0.00  0.00    +0.076 C 
ATOM     11  C   UNL     1       0.002  -0.004   0.002  0.00  0.00    +0.258 C 
ATOM     12  C   UNL     1       0.704  -0.490  -1.241  0.00  0.00    +0.270 C 
ATOM     13  O   UNL     1       0.065  -0.745  -2.240  0.00  0.00    -0.271 OA
ATOM     14  N   UNL     1       2.045  -0.638  -1.238  0.00  0.00    -0.279 N 
ATOM     15  C   UNL     1       2.750  -0.461  -0.040  0.00  0.00    +0.076 A 
ATOM     16  C   UNL     1       4.133  -0.380  -0.041  0.00  0.00    +0.027 A 
ATOM     17  C   UNL     1       4.813  -0.191   1.148  0.00  0.00    +0.002 A 
ATOM     18  C   UNL     1       4.116  -0.082   2.337  0.00  0.00    +0.004 A 
ATOM     19  C   UNL     1       2.736  -0.166   2.346  0.00  0.00    +0.047 A 
ATOM     20  C   UNL     1       2.049  -0.361   1.160  0.00  0.00    +0.144 A 
ATOM     21  O   UNL     1       0.694  -0.477   1.160  0.00  0.00    -0.465 OA
ATOM     22  H   UNL     1       2.516  -0.866  -2.055  0.00  0.00    +0.155 HD
ENDBRANCH   1  11
BRANCH   7  23
ATOM     23  C   UNL     1      -6.497  -2.167   2.717  0.00  0.00    +0.178 C 
BRANCH  23  24
ATOM     24  C   UNL     1      -6.044  -3.151   3.765  0.00  0.00    -0.026 A 
ATOM     25  C   UNL     1      -6.121  -4.509   3.516  0.00  0.00    +0.007 A 
ATOM     26  C   UNL     1      -5.705  -5.412   4.476  0.00  0.00    +0.020 A 
ATOM     27  C   UNL     1      -5.212  -4.957   5.686  0.00  0.00    +0.041 A 
ATOM     28  C   UNL     1      -5.135  -3.599   5.934  0.00  0.00    +0.020 A 
ATOM     29  C   UNL     1      -5.546  -2.696   4.971  0.00  0.00    +0.007 A 
ATOM     30 CL   UNL     1      -4.691  -6.091   6.893  0.00  0.00    -0.084 Cl
ENDBRANCH  23  24
ENDBRANCH   7  23
TORSDOF 3
