REMARK  Name = ZINC12377318
REMARK  5 active torsions:
REMARK  status: ('A' for Active; 'I' for Inactive)
REMARK    1  A    between atoms: C_8  and  C_25
REMARK    2  A    between atoms: C_9  and  N_24
REMARK    3  A    between atoms: N_10  and  C_17
REMARK    4  A    between atoms: N_29  and  C_30
REMARK    5  A    between atoms: C_30  and  C_31
REMARK                            x       y       z     vdW  Elec       q    Type
REMARK                         _______ _______ _______ _____ _____    ______ ____
ROOT
ATOM      1  C   UNL     1       0.841   1.780  -1.676  0.00  0.00    +0.000 A 
ATOM      2  C   UNL     1       0.838   3.160  -1.660  0.00  0.00    +0.002 A 
ATOM      3  C   UNL     1      -0.245   3.887  -1.190  0.00  0.00    +0.024 A 
ATOM      4  C   UNL     1      -1.345   3.164  -0.726  0.00  0.00    +0.041 A 
ATOM      5  C   UNL     1      -1.332   1.764  -0.752  0.00  0.00    -0.001 A 
ATOM      6  C   UNL     1      -0.249   1.049  -1.217  0.00  0.00    +0.007 A 
ATOM      7  C   UNL     1      -2.650   1.323  -0.199  0.00  0.00    +0.144 C 
ATOM      8  C   UNL     1      -3.428   0.532  -1.212  0.00  0.00    +0.089 C 
ATOM      9  C   UNL     1      -3.678  -0.793  -1.073  0.00  0.00    +0.108 C 
ATOM     10  N   UNL     1      -3.239  -1.513   0.024  0.00  0.00    -0.257 N 
ATOM     11  C   UNL     1      -2.757  -0.818   1.100  0.00  0.00    +0.066 C 
ATOM     12  C   UNL     1      -2.466   0.509   1.053  0.00  0.00    +0.082 C 
ATOM     13  C   UNL     1      -1.998   0.922   2.309  0.00  0.00    +0.339 C 
ATOM     14  O   UNL     1      -1.656   2.059   2.577  0.00  0.00    -0.245 OA
ATOM     15  O   UNL     1      -1.977  -0.108   3.180  0.00  0.00    -0.455 OA
ATOM     16  C   UNL     1      -2.449  -1.279   2.494  0.00  0.00    +0.284 C 
ATOM     17  C   UNL     1      -3.373   2.613   0.123  0.00  0.00    +0.241 C 
ATOM     18  O   UNL     1      -4.485   2.718   0.596  0.00  0.00    -0.274 OA
ATOM     19  N   UNL     1      -2.543   3.624  -0.207  0.00  0.00    -0.265 N 
ENDROOT
BRANCH  10  20
ATOM     20  C   UNL     1      -3.284  -2.912   0.033  0.00  0.00    +0.042 A 
ATOM     21  C   UNL     1      -4.396  -3.569   0.543  0.00  0.00    +0.024 A 
ATOM     22  C   UNL     1      -4.440  -4.949   0.551  0.00  0.00    +0.005 A 
ATOM     23  C   UNL     1      -3.377  -5.679   0.050  0.00  0.00    +0.038 A 
ATOM     24  C   UNL     1      -2.266  -5.028  -0.460  0.00  0.00    +0.125 A 
ATOM     25  C   UNL     1      -2.220  -3.646  -0.474  0.00  0.00    +0.062 A 
ATOM     26  F   UNL     1      -1.230  -5.744  -0.949  0.00  0.00    -0.205 F 
ENDBRANCH  10  20
BRANCH   9  27
ATOM     27  N   UNL     1      -4.391  -1.442  -2.052  0.00  0.00    -0.345 N 
ATOM     28  H   UNL     1      -4.779  -0.938  -2.784  0.00  0.00    +0.144 HD
ATOM     29  H   UNL     1      -4.505  -2.405  -2.012  0.00  0.00    +0.144 HD
ENDBRANCH   9  27
BRANCH   8  30
ATOM     30  C   UNL     1      -3.926   1.206  -2.373  0.00  0.00    +0.100 C 
ATOM     31  N   UNL     1      -4.321   1.740  -3.294  0.00  0.00    -0.191 NA
ENDBRANCH   8  30
BRANCH  19  32
ATOM     32  C   UNL     1      -2.876   5.042  -0.050  0.00  0.00    +0.149 C 
BRANCH  32  33
ATOM     33  C   UNL     1      -3.550   5.542  -1.301  0.00  0.00    -0.027 A 
ATOM     34  C   UNL     1      -4.926   5.470  -1.421  0.00  0.00    +0.005 A 
ATOM     35  C   UNL     1      -5.546   5.928  -2.568  0.00  0.00    +0.003 A 
ATOM     36  C   UNL     1      -4.792   6.458  -3.597  0.00  0.00    +0.038 A 
ATOM     37  C   UNL     1      -3.414   6.531  -3.479  0.00  0.00    +0.124 A 
ATOM     38  C   UNL     1      -2.794   6.077  -2.327  0.00  0.00    +0.043 A 
ATOM     39  F   UNL     1      -2.675   7.049  -4.484  0.00  0.00    -0.205 F 
ENDBRANCH  32  33
ENDBRANCH  19  32
TORSDOF 5
