REMARK  Name = ZINC01415511
REMARK  5 active torsions:
REMARK  status: ('A' for Active; 'I' for Inactive)
REMARK    1  A    between atoms: C_4  and  C_7
REMARK    2  A    between atoms: N_9  and  N_10
REMARK    3  A    between atoms: C_13  and  C_16
REMARK    4  A    between atoms: C_19  and  O_22
REMARK    5  A    between atoms: C_23  and  C_25
REMARK                            x       y       z     vdW  Elec       q    Type
REMARK                         _______ _______ _______ _____ _____    ______ ____
ROOT
ATOM      1  N   UNL     1      -0.086   1.583   0.264  0.00  0.00    -0.154 NA
ATOM      2  C   UNL     1       1.077   2.163   0.138  0.00  0.00    +0.197 A 
ATOM      3  N   UNL     1       1.389   3.519   0.142  0.00  0.00    -0.256 N 
ATOM      4  C   UNL     1       2.706   3.881  -0.009  0.00  0.00    +0.065 A 
ATOM      5  C   UNL     1       3.647   2.929  -0.155  0.00  0.00    +0.075 A 
ATOM      6  S   UNL     1       2.689   1.425  -0.075  0.00  0.00    -0.056 S 
ATOM      7  C   UNL     1       0.426   4.452   0.288  0.00  0.00    +0.248 C 
ATOM      8  O   UNL     1       0.727   5.621   0.403  0.00  0.00    -0.271 OA
ENDROOT
BRANCH   4   9
ATOM      9  C   UNL     1       3.088   5.309  -0.013  0.00  0.00    -0.000 A 
ATOM     10  C   UNL     1       2.568   6.170  -0.982  0.00  0.00    +0.013 A 
ATOM     11  C   UNL     1       2.924   7.502  -0.979  0.00  0.00    +0.046 A 
ATOM     12  C   UNL     1       3.805   7.986  -0.021  0.00  0.00    +0.117 A 
ATOM     13  C   UNL     1       4.327   7.132   0.941  0.00  0.00    +0.046 A 
ATOM     14  C   UNL     1       3.973   5.799   0.948  0.00  0.00    +0.013 A 
BRANCH  12  15
ATOM     15  O   UNL     1       4.157   9.298  -0.025  0.00  0.00    -0.507 OA
ATOM     16  H   UNL     1       4.939   9.494  -0.559  0.00  0.00    +0.292 HD
ENDBRANCH  12  15
ENDBRANCH   4   9
BRANCH   1  19
ATOM     17  C   UNL     1      -1.379  -0.414   0.362  0.00  0.00    +0.263 C 
ATOM     18  O   UNL     1      -2.383   0.260   0.506  0.00  0.00    -0.268 OA
ATOM     19  N   UNL     1      -0.179   0.185   0.232  0.00  0.00    -0.201 N 
ATOM     20  H   UNL     1       0.621  -0.352   0.117  0.00  0.00    +0.178 HD
BRANCH  17  24
ATOM     21  C   UNL     1      -1.661  -4.651   0.267  0.00  0.00    +0.000 A 
ATOM     22  C   UNL     1      -2.804  -3.888   0.430  0.00  0.00    +0.001 A 
ATOM     23  C   UNL     1      -2.719  -2.511   0.462  0.00  0.00    +0.013 A 
ATOM     24  C   UNL     1      -1.477  -1.888   0.328  0.00  0.00    +0.038 A 
ATOM     25  C   UNL     1      -0.329  -2.663   0.157  0.00  0.00    +0.013 A 
ATOM     26  C   UNL     1      -0.427  -4.039   0.133  0.00  0.00    +0.001 A 
ENDBRANCH  17  24
ENDBRANCH   1  19
BRANCH   7  27
ATOM     27  C   UNL     1      -1.024   4.041   0.311  0.00  0.00    +0.207 C 
ATOM     28 CL   UNL     1      -2.059   5.502   0.519  0.00  0.00    -0.115 Cl
ENDBRANCH   7  27
TORSDOF 5
