REMARK  Name = ZINC01249932
REMARK  4 active torsions:
REMARK  status: ('A' for Active; 'I' for Inactive)
REMARK    1  A    between atoms: C_3  and  C_6
REMARK    2  A    between atoms: C_10  and  N_26
REMARK    3  A    between atoms: C_11  and  C_15
REMARK    4  A    between atoms: C_15  and  C_17
REMARK                            x       y       z     vdW  Elec       q    Type
REMARK                         _______ _______ _______ _____ _____    ______ ____
ROOT
ATOM      1  C   UNL     1      -1.231   1.750  -0.089  0.00  0.00    +0.079 A 
ATOM      2  C   UNL     1      -0.004   1.073  -0.120  0.00  0.00    +0.029 A 
ATOM      3  C   UNL     1       1.166   1.767  -0.114  0.00  0.00    +0.014 A 
ATOM      4  C   UNL     1       1.132   3.186  -0.070  0.00  0.00    +0.029 A 
ATOM      5  C   UNL     1       2.247   4.117  -0.056  0.00  0.00    +0.052 A 
ATOM      6  C   UNL     1       1.971   5.470  -0.011  0.00  0.00    +0.083 A 
ATOM      7  S   UNL     1       0.190   5.526   0.014  0.00  0.00    -0.064 S 
ATOM      8  C   UNL     1      -0.150   3.784  -0.035  0.00  0.00    +0.111 A 
ATOM      9  N   UNL     1      -1.259   3.079  -0.043  0.00  0.00    -0.239 NA
ENDROOT
BRANCH   1  12
ATOM     10  C   UNL     1      -4.814   0.541  -0.097  0.00  0.00    +0.008 A 
ATOM     11  C   UNL     1      -3.784   1.452  -0.078  0.00  0.00    +0.017 A 
ATOM     12  C   UNL     1      -2.493   0.988  -0.102  0.00  0.00    +0.038 A 
ATOM     13  S   UNL     1      -2.739  -0.779  -0.162  0.00  0.00    -0.095 S 
ATOM     14  C   UNL     1      -4.524  -0.786  -0.140  0.00  0.00    +0.046 A 
ENDBRANCH   1  12
BRANCH   5  15
ATOM     15  N   UNL     1       3.556   3.659  -0.087  0.00  0.00    -0.356 N 
ATOM     16  H   UNL     1       3.736   2.706  -0.119  0.00  0.00    +0.142 HD
ATOM     17  H   UNL     1       4.291   4.291  -0.077  0.00  0.00    +0.142 HD
ENDBRANCH   5  15
BRANCH   6  18
ATOM     18  C   UNL     1       2.882   6.551   0.011  0.00  0.00    +0.202 C 
ATOM     19  O   UNL     1       4.078   6.338   0.111  0.00  0.00    -0.286 OA
BRANCH  18  20
ATOM     20  C   UNL     1       2.385   7.939  -0.088  0.00  0.00    +0.027 A 
ATOM     21  C   UNL     1       3.150   8.994   0.415  0.00  0.00    +0.015 A 
ATOM     22  C   UNL     1       2.685  10.288   0.321  0.00  0.00    +0.050 A 
ATOM     23  C   UNL     1       1.457  10.548  -0.272  0.00  0.00    +0.166 A 
ATOM     24  C   UNL     1       0.688   9.498  -0.776  0.00  0.00    +0.167 A 
ATOM     25  C   UNL     1       1.152   8.200  -0.690  0.00  0.00    +0.061 A 
ATOM     26  O   UNL     1      -0.462  10.014  -1.302  0.00  0.00    -0.453 OA
ATOM     27  C   UNL     1      -0.204  11.419  -1.482  0.00  0.00    +0.466 C 
ATOM     28  O   UNL     1       0.787  11.717  -0.482  0.00  0.00    -0.453 OA
ENDBRANCH  18  20
ENDBRANCH   6  18
TORSDOF 4
