REMARK  Name = ZINC38638347
REMARK  10 active torsions:
REMARK  status: ('A' for Active; 'I' for Inactive)
REMARK    1  A    between atoms: C_1  and  C_2
REMARK    2  A    between atoms: C_2  and  C_3
REMARK    3  A    between atoms: C_3  and  N_5
REMARK    4  A    between atoms: C_3  and  N_15
REMARK    5  A    between atoms: N_5  and  C_6
REMARK    6  A    between atoms: C_11  and  C_14
REMARK    7  A    between atoms: C_16  and  C_18
REMARK    8  A    between atoms: C_20  and  N_35
REMARK    9  A    between atoms: C_23  and  N_24
REMARK   10  A    between atoms: N_35  and  C_36
REMARK                            x       y       z     vdW  Elec       q    Type
REMARK                         _______ _______ _______ _____ _____    ______ ____
ROOT
ATOM      1  C   UNL     1      -0.008   0.974  -4.685  0.00  0.00    +0.060 A 
ATOM      2  C   UNL     1      -1.383   0.804  -4.790  0.00  0.00    +0.038 A 
ATOM      3  C   UNL     1      -2.071   1.290  -5.902  0.00  0.00    +0.039 A 
ATOM      4  C   UNL     1      -1.378   1.954  -6.921  0.00  0.00    +0.056 A 
ATOM      5  C   UNL     1       0.017   2.130  -6.822  0.00  0.00    +0.056 A 
ATOM      6  C   UNL     1       0.701   1.645  -5.701  0.00  0.00    +0.049 A 
ATOM      7  C   UNL     1       0.750   2.827  -7.891  0.00  0.00    +0.196 C 
ATOM      8  O   UNL     1       1.953   2.978  -7.804  0.00  0.00    -0.287 OA
ATOM      9  C   UNL     1       0.022   3.341  -9.070  0.00  0.00    +0.033 A 
ATOM     10  C   UNL     1       0.708   4.000 -10.086  0.00  0.00    +0.012 A 
ATOM     11  C   UNL     1       0.019   4.478 -11.186  0.00  0.00    +0.001 A 
ATOM     12  C   UNL     1      -1.351   4.306 -11.284  0.00  0.00    +0.001 A 
ATOM     13  C   UNL     1      -2.048   3.654 -10.283  0.00  0.00    +0.012 A 
ATOM     14  C   UNL     1      -1.369   3.166  -9.170  0.00  0.00    +0.033 A 
ATOM     15  C   UNL     1      -2.105   2.466  -8.096  0.00  0.00    +0.196 C 
ATOM     16  O   UNL     1      -3.308   2.314  -8.182  0.00  0.00    -0.287 OA
ENDROOT
BRANCH   1  18
ATOM     17  N   UNL     1       0.023  -0.098  -2.486  0.00  0.00    -0.325 N 
ATOM     18  C   UNL     1       0.711   0.456  -3.504  0.00  0.00    +0.244 C 
ATOM     19  O   UNL     1       1.923   0.529  -3.449  0.00  0.00    -0.270 OA
ATOM     20  H   UNL     1      -0.944  -0.156  -2.529  0.00  0.00    +0.147 HD
BRANCH  17  21
ATOM     21  C   UNL     1       0.736  -0.612  -1.314  0.00  0.00    +0.016 C 
BRANCH  21  22
ATOM     22  N   UNL     1       0.761  -2.080  -1.360  0.00  0.00    +0.393 N 
ATOM     23  H   UNL     1       1.179  -2.436  -0.514  0.00  0.00    -0.083 HD
ATOM     24  H   UNL     1      -0.182  -2.430  -1.443  0.00  0.00    -0.083 HD
BRANCH  22  25
ATOM     25  C   UNL     1       1.550  -2.519  -2.519  0.00  0.00    -0.069 C 
ATOM     26  C   UNL     1       3.008  -2.096  -2.333  0.00  0.00    -0.016 C 
ATOM     27  C   UNL     1       3.830  -2.553  -3.540  0.00  0.00    -0.001 C 
ATOM     28  C   UNL     1       3.753  -4.077  -3.661  0.00  0.00    +0.003 C 
ATOM     29  C   UNL     1       2.295  -4.500  -3.847  0.00  0.00    -0.016 C 
ATOM     30  C   UNL     1       1.473  -4.043  -2.640  0.00  0.00    -0.013 C 
ATOM     31  C   UNL     1       1.735  -3.859  -5.118  0.00  0.00    +0.007 C 
ENDBRANCH  22  25
ENDBRANCH  21  22
BRANCH  21  33
ATOM     32  C   UNL     1      -0.005   1.375   0.008  0.00  0.00    +0.004 C 
ATOM     33  C   UNL     1       0.021  -0.154  -0.041  0.00  0.00    -0.001 C 
ENDBRANCH  21  33
ENDBRANCH  17  21
ENDBRANCH   1  18
BRANCH   6  34
ATOM     34  N   UNL     1       2.067   1.819  -5.594  0.00  0.00    -0.357 N 
ATOM     35  H   UNL     1       2.611   1.133  -5.177  0.00  0.00    +0.142 HD
ATOM     36  H   UNL     1       2.481   2.626  -5.935  0.00  0.00    +0.142 HD
ENDBRANCH   6  34
BRANCH   3  37
ATOM     37  N   UNL     1      -3.444   1.115  -5.998  0.00  0.00    -0.346 N 
ATOM     38  C   UNL     1      -4.191   0.546  -4.873  0.00  0.00    +0.125 C 
ATOM     39  H   UNL     1      -3.909   1.369  -6.810  0.00  0.00    +0.146 HD
ENDBRANCH   3  37
TORSDOF 7
