REMARK  Name = ZINC01415137
REMARK  5 active torsions:
REMARK  status: ('A' for Active; 'I' for Inactive)
REMARK    1  A    between atoms: C_1  and  O_2
REMARK    2  A    between atoms: O_2  and  C_3
REMARK    3  A    between atoms: C_4  and  C_11
REMARK    4  A    between atoms: N_13  and  C_14
REMARK    5  A    between atoms: C_14  and  N_16
REMARK                            x       y       z     vdW  Elec       q    Type
REMARK                         _______ _______ _______ _____ _____    ______ ____
ROOT
ATOM      1  C   UNL     1       2.761  -0.553  -0.248  0.00  0.00    +0.253 C 
ATOM      2  O   UNL     1       2.209  -0.011  -1.186  0.00  0.00    -0.270 OA
ATOM      3  N   UNL     1       4.077  -0.838  -0.313  0.00  0.00    -0.262 N 
ATOM      4  H   UNL     1       4.517  -1.271   0.435  0.00  0.00    +0.157 HD
ENDROOT
BRANCH   1   6
ATOM      5  C   UNL     1       0.622  -0.604   1.033  0.00  0.00    +0.150 A 
ATOM      6  C   UNL     1       1.991  -0.899   0.961  0.00  0.00    +0.081 A 
ATOM      7  C   UNL     1       2.621  -1.522   2.041  0.00  0.00    +0.036 A 
ATOM      8  C   UNL     1       1.895  -1.844   3.169  0.00  0.00    +0.043 A 
ATOM      9  C   UNL     1       0.542  -1.551   3.236  0.00  0.00    +0.043 A 
ATOM     10  C   UNL     1      -0.092  -0.929   2.178  0.00  0.00    +0.085 A 
ATOM     11 CL   UNL     1      -1.786  -0.560   2.277  0.00  0.00    -0.080 Cl
ATOM     12 CL   UNL     1       2.679  -2.618   4.510  0.00  0.00    -0.083 Cl
BRANCH   5  14
ATOM     13  C   UNL     1      -0.021   1.430  -0.012  0.00  0.00    +0.277 C 
ATOM     14  O   UNL     1       0.000   0.001  -0.010  0.00  0.00    -0.493 OA
ENDBRANCH   5  14
ENDBRANCH   1   6
BRANCH   3  15
ATOM     15  C   UNL     1       4.781  -0.522  -1.418  0.00  0.00    +0.163 C 
ATOM     16  S   UNL     1       4.004   0.241  -2.739  0.00  0.00    -0.016 S 
BRANCH  15  17
ATOM     17  N   UNL     1       6.084  -0.805  -1.482  0.00  0.00    -0.169 NA
ATOM     18  C   UNL     1       6.962   0.160  -1.746  0.00  0.00    +0.162 A 
ATOM     19  N   UNL     1       6.736   1.497  -1.876  0.00  0.00    -0.342 N 
ATOM     20  C   UNL     1       7.789   2.315  -2.150  0.00  0.00    +0.092 A 
ATOM     21  C   UNL     1       8.992   1.746  -2.275  0.00  0.00    +0.066 A 
ATOM     22  S   UNL     1       8.620   0.026  -1.992  0.00  0.00    -0.061 S 
ATOM     23  H   UNL     1       5.842   1.859  -1.776  0.00  0.00    +0.167 HD
ENDBRANCH  15  17
ENDBRANCH   3  15
TORSDOF 4
