REMARK  Name = ZINC21237979
REMARK  13 active torsions:
REMARK  status: ('A' for Active; 'I' for Inactive)
REMARK    1  A    between atoms: C_1  and  C_2
REMARK    2  A    between atoms: C_2  and  O_3
REMARK    3  A    between atoms: O_3  and  C_4
REMARK    4  A    between atoms: C_6  and  C_14
REMARK    5  A    between atoms: C_9  and  O_10
REMARK    6  A    between atoms: O_10  and  C_11
REMARK    7  A    between atoms: C_11  and  C_12
REMARK    8  A    between atoms: C_11  and  C_13
REMARK    9  A    between atoms: C_19  and  C_24
REMARK   10  A    between atoms: C_27  and  C_30
REMARK   11  A    between atoms: C_30  and  C_31
REMARK   12  A    between atoms: C_30  and  C_32
REMARK   13  A    between atoms: C_30  and  C_33
REMARK                            x       y       z     vdW  Elec       q    Type
REMARK                         _______ _______ _______ _____ _____    ______ ____
ROOT
ATOM      1  C   UNL     1      -3.233   2.603   3.015  0.00  0.00    +0.136 C 
ATOM      2  C   UNL     1      -2.927   1.982   1.673  0.00  0.00    +0.036 C 
ATOM      3  C   UNL     1      -3.796   1.829   0.658  0.00  0.00    +0.017 C 
ATOM      4  C   UNL     1      -3.353   1.180  -0.643  0.00  0.00    +0.059 C 
ATOM      5  C   UNL     1      -1.884   1.500  -0.911  0.00  0.00    +0.032 C 
ATOM      6  C   UNL     1      -1.065   0.952   0.263  0.00  0.00    +0.088 C 
ATOM      7  C   UNL     1      -1.581   1.556   1.534  0.00  0.00    +0.163 C 
ATOM      8  O   UNL     1      -0.821   1.683   2.474  0.00  0.00    -0.292 OA
ATOM      9  N   UNL     1      -5.098   2.207   0.692  0.00  0.00    -0.316 N 
ATOM     10  C   UNL     1      -5.559   3.435   1.155  0.00  0.00    +0.052 A 
ATOM     11  C   UNL     1      -6.230   4.329   0.339  0.00  0.00    +0.025 A 
ATOM     12  C   UNL     1      -6.763   5.482   0.889  0.00  0.00    +0.002 A 
ATOM     13  C   UNL     1      -6.625   5.738   2.241  0.00  0.00    +0.002 A 
ATOM     14  C   UNL     1      -5.934   4.856   3.054  0.00  0.00    +0.025 A 
ATOM     15  C   UNL     1      -5.385   3.710   2.503  0.00  0.00    +0.049 A 
ATOM     16  N   UNL     1      -4.642   2.815   3.272  0.00  0.00    -0.331 N 
ATOM     17  H   UNL     1      -5.880   1.520   0.336  0.00  0.00    +0.152 HD
ATOM     18  H   UNL     1      -5.142   2.267   4.084  0.00  0.00    +0.147 HD
ENDROOT
BRANCH   1  21
ATOM     19  C   UNL     1      -0.868   5.340   4.103  0.00  0.00    +0.162 A 
ATOM     20  C   UNL     1      -1.519   4.119   4.025  0.00  0.00    +0.055 A 
ATOM     21  C   UNL     1      -2.527   3.932   3.098  0.00  0.00    -0.019 A 
ATOM     22  C   UNL     1      -2.885   4.958   2.244  0.00  0.00    +0.009 A 
ATOM     23  C   UNL     1      -2.244   6.180   2.321  0.00  0.00    +0.050 A 
ATOM     24  C   UNL     1      -1.232   6.375   3.248  0.00  0.00    +0.162 A 
BRANCH  19  25
ATOM     25  O   UNL     1       0.124   5.527   5.015  0.00  0.00    -0.489 OA
BRANCH  25  27
ATOM     26  C   UNL     1       1.575   4.817   6.812  0.00  0.00    +0.048 C 
ATOM     27  C   UNL     1       0.444   4.420   5.861  0.00  0.00    +0.226 C 
ENDBRANCH  25  27
ENDBRANCH  19  25
BRANCH  24  28
ATOM     28  O   UNL     1      -0.597   7.576   3.321  0.00  0.00    -0.486 OA
BRANCH  28  29
ATOM     29  C   UNL     1      -0.947   8.555   2.341  0.00  0.00    +0.167 C 
ATOM     30  C   UNL     1      -2.174   9.336   2.816  0.00  0.00    +0.051 C 
ATOM     31  C   UNL     1       0.225   9.519   2.143  0.00  0.00    +0.051 C 
ENDBRANCH  28  29
ENDBRANCH  24  28
ENDBRANCH   1  21
BRANCH   5  32
ATOM     32  C   UNL     1      -1.443   0.843  -2.193  0.00  0.00    -0.043 A 
ATOM     33  C   UNL     1      -1.536  -0.529  -2.334  0.00  0.00    +0.004 A 
ATOM     34  C   UNL     1      -1.136  -1.132  -3.512  0.00  0.00    +0.004 A 
ATOM     35  C   UNL     1      -0.633  -0.364  -4.545  0.00  0.00    -0.042 A 
ATOM     36  C   UNL     1      -0.535   1.008  -4.403  0.00  0.00    +0.004 A 
ATOM     37  C   UNL     1      -0.940   1.611  -3.227  0.00  0.00    +0.004 A 
BRANCH  35  38
ATOM     38  C   UNL     1      -0.192  -1.022  -5.828  0.00  0.00    -0.013 C 
ATOM     39  C   UNL     1       1.291  -0.730  -6.067  0.00  0.00    +0.015 C 
ATOM     40  C   UNL     1      -0.404  -2.533  -5.725  0.00  0.00    +0.015 C 
ATOM     41  C   UNL     1      -1.015  -0.469  -6.993  0.00  0.00    +0.015 C 
ENDBRANCH  35  38
ENDBRANCH   5  32
TORSDOF 7
