REMARK  Name = ZINC15069491
REMARK  6 active torsions:
REMARK  status: ('A' for Active; 'I' for Inactive)
REMARK    1  A    between atoms: C_5  and  C_7
REMARK    2  A    between atoms: C_7  and  N_8
REMARK    3  A    between atoms: C_19  and  N_53
REMARK    4  A    between atoms: C_23  and  C_24
REMARK    5  A    between atoms: C_23  and  N_53
REMARK    6  A    between atoms: C_24  and  C_25
REMARK                            x       y       z     vdW  Elec       q    Type
REMARK                         _______ _______ _______ _____ _____    ______ ____
ROOT
ATOM      1  N   UNL     1       0.855   9.851   8.197  0.00  0.00    -0.293 N 
ATOM      2  C   UNL     1      -0.358   9.535   8.711  0.00  0.00    +0.203 A 
ATOM      3  N   UNL     1      -1.194   8.711   8.119  0.00  0.00    -0.230 NA
ATOM      4  C   UNL     1      -0.810   8.177   6.963  0.00  0.00    +0.116 A 
ATOM      5  C   UNL     1       0.432   8.443   6.347  0.00  0.00    +0.076 A 
ATOM      6  C   UNL     1       1.316   9.348   7.027  0.00  0.00    +0.263 A 
ATOM      7  O   UNL     1       2.410   9.644   6.580  0.00  0.00    -0.267 OA
ATOM      8  C   UNL     1       0.680   7.769   5.086  0.00  0.00    -0.023 A 
ATOM      9  C   UNL     1      -0.301   6.955   4.630  0.00  0.00    -0.006 A 
ATOM     10  S   UNL     1      -1.588   7.051   5.849  0.00  0.00    -0.073 S 
ATOM     11  C   UNL     1      -0.298   6.147   3.369  0.00  0.00    +0.027 C 
ATOM     12  C   UNL     1       1.141   6.083   2.837  0.00  0.00    -0.067 C 
ATOM     13  C   UNL     1       1.731   7.497   2.849  0.00  0.00    -0.011 C 
ATOM     14  C   UNL     1       1.971   7.946   4.291  0.00  0.00    +0.035 C 
ENDROOT
BRANCH  12  15
ATOM     15  N   UNL     1       1.135   5.570   1.454  0.00  0.00    +0.381 N 
ATOM     16  H   UNL     1       1.964   5.920   0.959  0.00  0.00    -0.086 HD
ATOM     17  H   UNL     1       0.288   5.896   0.975  0.00  0.00    -0.086 HD
BRANCH  15  18
ATOM     18  C   UNL     1       1.156   4.095   1.455  0.00  0.00    -0.078 C 
BRANCH  18  19
ATOM     19  C   UNL     1       1.150   3.592   0.010  0.00  0.00    +0.016 C 
BRANCH  19  20
ATOM     20  C   UNL     1       1.171   2.086   0.002  0.00  0.00    -0.049 A 
ATOM     21  C   UNL     1      -0.017   1.378   0.010  0.00  0.00    +0.005 A 
ATOM     22  C   UNL     1       0.002  -0.004   0.002  0.00  0.00    +0.020 A 
ATOM     23  C   UNL     1       1.210  -0.679  -0.013  0.00  0.00    +0.041 A 
ATOM     24  C   UNL     1       2.398   0.030  -0.021  0.00  0.00    +0.020 A 
ATOM     25  C   UNL     1       2.378   1.412  -0.013  0.00  0.00    +0.005 A 
ATOM     26 CL   UNL     1       1.234  -2.415  -0.022  0.00  0.00    -0.084 Cl
ENDBRANCH  19  20
ENDBRANCH  18  19
ENDBRANCH  15  18
ENDBRANCH  12  15
BRANCH   1  27
ATOM     27  C   UNL     1       1.708  10.780   8.942  0.00  0.00    +0.181 C 
BRANCH  27  32
ATOM     28  C   UNL     1       0.263  14.258   8.796  0.00  0.00    +0.003 A 
ATOM     29  C   UNL     1       0.923  14.735   7.673  0.00  0.00    +0.020 A 
ATOM     30  C   UNL     1       1.810  13.907   7.012  0.00  0.00    +0.111 A 
ATOM     31  N   UNL     1       2.034  12.680   7.439  0.00  0.00    -0.258 NA
ATOM     32  C   UNL     1       1.420  12.191   8.499  0.00  0.00    +0.061 A 
ATOM     33  C   UNL     1       0.520  12.961   9.212  0.00  0.00    +0.025 A 
ENDBRANCH  27  32
ENDBRANCH   1  27
TORSDOF 6
