REMARK  Name = ZINC20583555
REMARK  8 active torsions:
REMARK  status: ('A' for Active; 'I' for Inactive)
REMARK    1  A    between atoms: C_1  and  C_2
REMARK    2  A    between atoms: C_3  and  C_21
REMARK    3  A    between atoms: C_4  and  C_14
REMARK    4  A    between atoms: C_9  and  S_11
REMARK    5  A    between atoms: S_11  and  C_12
REMARK    6  A    between atoms: N_23  and  C_24
REMARK    7  A    between atoms: C_27  and  O_30
REMARK    8  A    between atoms: O_30  and  C_31
REMARK                            x       y       z     vdW  Elec       q    Type
REMARK                         _______ _______ _______ _____ _____    ______ ____
ROOT
ATOM      1  C   UNL     1      -5.430   2.833  -2.379  0.00  0.00    +0.061 C 
ATOM      2  C   UNL     1      -4.623   2.987  -1.116  0.00  0.00    +0.018 C 
ATOM      3  C   UNL     1      -3.447   3.628  -1.172  0.00  0.00    +0.060 C 
ATOM      4  C   UNL     1      -2.559   3.824   0.028  0.00  0.00    +0.177 C 
ATOM      5  N   UNL     1      -3.300   3.486   1.241  0.00  0.00    -0.220 N 
ATOM      6  C   UNL     1      -4.495   2.845   1.236  0.00  0.00    +0.219 A 
ATOM      7  N   UNL     1      -4.878   2.692   2.475  0.00  0.00    -0.187 NA
ATOM      8  C   UNL     1      -3.961   3.224   3.296  0.00  0.00    +0.210 A 
ATOM      9  N   UNL     1      -2.978   3.723   2.576  0.00  0.00    -0.141 NA
ATOM     10  N   UNL     1      -5.117   2.466   0.055  0.00  0.00    -0.287 N 
ATOM     11  H   UNL     1      -5.974   1.776   0.032  0.00  0.00    +0.155 HD
ENDROOT
BRANCH   4  12
ATOM     12  C   UNL     1      -1.352   2.930  -0.089  0.00  0.00    -0.018 A 
ATOM     13  C   UNL     1      -1.512   1.560  -0.172  0.00  0.00    +0.007 A 
ATOM     14  C   UNL     1      -0.405   0.739  -0.273  0.00  0.00    +0.015 A 
ATOM     15  C   UNL     1       0.864   1.290  -0.303  0.00  0.00    +0.018 A 
ATOM     16  C   UNL     1       1.024   2.662  -0.226  0.00  0.00    +0.015 A 
ATOM     17  C   UNL     1      -0.084   3.481  -0.119  0.00  0.00    +0.007 A 
ATOM     18 BR   UNL     1       2.379   0.168  -0.450  0.00  0.00    -0.050 Br
ENDBRANCH   4  12
BRANCH   3  19
ATOM     19  C   UNL     1      -3.019   4.144  -2.418  0.00  0.00    +0.248 C 
ATOM     20  O   UNL     1      -3.715   4.002  -3.408  0.00  0.00    -0.270 OA
ATOM     21  N   UNL     1      -1.842   4.794  -2.510  0.00  0.00    -0.282 N 
ATOM     22  H   UNL     1      -1.255   5.000  -1.603  0.00  0.00    +0.155 HD
BRANCH  21  23
ATOM     23  C   UNL     1      -1.366   5.207  -3.761  0.00  0.00    +0.034 A 
ATOM     24  C   UNL     1      -1.631   4.445  -4.891  0.00  0.00    +0.027 A 
ATOM     25  C   UNL     1      -1.166   4.856  -6.125  0.00  0.00    +0.047 A 
ATOM     26  C   UNL     1      -0.425   6.024  -6.234  0.00  0.00    +0.120 A 
ATOM     27  C   UNL     1      -0.156   6.783  -5.104  0.00  0.00    +0.047 A 
ATOM     28  C   UNL     1      -0.625   6.376  -3.871  0.00  0.00    +0.027 A 
BRANCH  26  29
ATOM     29  O   UNL     1       0.037   6.425  -7.448  0.00  0.00    -0.495 OA
ATOM     30  C   UNL     1      -0.278   5.596  -8.568  0.00  0.00    +0.277 C 
ENDBRANCH  26  29
ENDBRANCH  21  23
ENDBRANCH   3  19
BRANCH   8  31
ATOM     31  S   UNL     1      -4.056   3.252   5.055  0.00  0.00    -0.088 S 
ATOM     32  C   UNL     1      -5.626   2.421   5.423  0.00  0.00    +0.093 C 
ENDBRANCH   8  31
TORSDOF 5
