REMARK  Name = ZINC20518035
REMARK  7 active torsions:
REMARK  status: ('A' for Active; 'I' for Inactive)
REMARK    1  A    between atoms: C_1  and  C_2
REMARK    2  A    between atoms: C_4  and  C_15
REMARK    3  A    between atoms: C_5  and  C_14
REMARK    4  A    between atoms: N_6  and  C_7
REMARK    5  A    between atoms: C_7  and  C_8
REMARK    6  A    between atoms: C_25  and  C_27
REMARK    7  A    between atoms: C_30  and  O_33
REMARK                            x       y       z     vdW  Elec       q    Type
REMARK                         _______ _______ _______ _____ _____    ______ ____
ROOT
ATOM      1  C   UNL     1       0.041  -3.376  -1.449  0.00  0.00    +0.026 C 
ATOM      2  C   UNL     1      -0.649  -3.405  -2.643  0.00  0.00    +0.079 C 
ATOM      3  C   UNL     1      -0.760  -4.648  -3.455  0.00  0.00    +0.132 C 
ATOM      4  N   UNL     1      -0.814  -5.845  -2.932  0.00  0.00    -0.385 N 
ATOM      5  N   UNL     1      -0.800  -4.408  -4.845  0.00  0.00    -0.153 N 
ATOM      6  C   UNL     1      -1.226  -3.165  -5.264  0.00  0.00    +0.181 C 
ATOM      7  N   UNL     1      -1.514  -2.128  -4.518  0.00  0.00    -0.152 NA
ATOM      8  C   UNL     1      -1.326  -2.201  -3.183  0.00  0.00    +0.273 C 
ATOM      9  O   UNL     1      -1.697  -1.304  -2.443  0.00  0.00    -0.268 OA
ATOM     10  S   UNL     1      -1.253  -3.351  -7.027  0.00  0.00    -0.033 S 
ATOM     11  C   UNL     1      -0.607  -5.016  -7.098  0.00  0.00    +0.130 C 
ATOM     12  N   UNL     1      -0.461  -5.312  -5.829  0.00  0.00    -0.164 NA
ATOM     13  H   UNL     1      -0.782  -5.955  -1.969  0.00  0.00    +0.157 HD
ATOM     14  H   UNL     1      -0.885  -6.623  -3.507  0.00  0.00    +0.157 HD
ENDROOT
BRANCH   1  18
ATOM     15  C   UNL     1       0.888   1.564  -0.548  0.00  0.00    +0.063 C 
ATOM     16  C   UNL     1       0.645   0.086  -0.387  0.00  0.00    +0.017 A 
ATOM     17  C   UNL     1       0.475  -0.789  -1.392  0.00  0.00    +0.030 A 
ATOM     18  C   UNL     1       0.271  -2.103  -0.768  0.00  0.00    -0.003 A 
ATOM     19  C   UNL     1       0.339  -1.888   0.599  0.00  0.00    +0.023 A 
ATOM     20  N   UNL     1       0.568  -0.578   0.804  0.00  0.00    -0.345 N 
ATOM     21  C   UNL     1       0.188  -2.938   1.669  0.00  0.00    +0.064 C 
BRANCH  20  22
ATOM     22  C   UNL     1       0.712   0.049   2.121  0.00  0.00    +0.153 C 
BRANCH  22  23
ATOM     23  C   UNL     1      -0.660   0.505   2.620  0.00  0.00    +0.138 C 
ATOM     24  C   UNL     1      -0.504   1.274   3.950  0.00  0.00    +0.035 C 
ATOM     25  C   UNL     1      -1.732   0.780   4.762  0.00  0.00    +0.031 C 
ATOM     26  C   UNL     1      -1.845  -0.683   4.265  0.00  0.00    +0.160 C 
ATOM     27  O   UNL     1      -1.490  -0.635   2.872  0.00  0.00    -0.375 OA
ENDBRANCH  22  23
ENDBRANCH  20  22
ENDBRANCH   1  18
BRANCH  11  28
ATOM     28  C   UNL     1      -0.311  -5.848  -8.285  0.00  0.00    +0.009 A 
ATOM     29  C   UNL     1       0.189  -7.141  -8.126  0.00  0.00    +0.014 A 
ATOM     30  C   UNL     1       0.463  -7.913  -9.235  0.00  0.00    +0.046 A 
ATOM     31  C   UNL     1       0.241  -7.406 -10.508  0.00  0.00    +0.117 A 
ATOM     32  C   UNL     1      -0.256  -6.119 -10.670  0.00  0.00    +0.046 A 
ATOM     33  C   UNL     1      -0.537  -5.343  -9.566  0.00  0.00    +0.014 A 
BRANCH  31  34
ATOM     34  O   UNL     1       0.512  -8.169 -11.599  0.00  0.00    -0.507 OA
ATOM     35  H   UNL     1      -0.233  -8.708 -11.897  0.00  0.00    +0.292 HD
ENDBRANCH  31  34
ENDBRANCH  11  28
TORSDOF 5
