REMARK  Name = ZINC01644278
REMARK  8 active torsions:
REMARK  status: ('A' for Active; 'I' for Inactive)
REMARK    1  A    between atoms: C_1  and  C_2
REMARK    2  A    between atoms: C_4  and  C_23
REMARK    3  A    between atoms: C_13  and  N_60
REMARK    4  A    between atoms: C_25  and  O_32
REMARK    5  A    between atoms: C_26  and  O_31
REMARK    6  A    between atoms: C_27  and  O_29
REMARK    7  A    between atoms: O_29  and  C_30
REMARK    8  A    between atoms: O_32  and  C_33
REMARK                            x       y       z     vdW  Elec       q    Type
REMARK                         _______ _______ _______ _____ _____    ______ ____
ROOT
ATOM      1  C   UNL     1      -3.614   4.648   1.662  0.00  0.00    +0.010 C 
ATOM      2  C   UNL     1      -2.326   5.428   1.393  0.00  0.00    +0.021 C 
ATOM      3  C   UNL     1      -2.633   6.926   1.330  0.00  0.00    +0.057 C 
ATOM      4  C   UNL     1      -1.441   7.667   0.778  0.00  0.00    +0.006 A 
ATOM      5  C   UNL     1      -1.360   9.036   0.975  0.00  0.00    +0.057 A 
ATOM      6  C   UNL     1      -0.287   9.753   0.477  0.00  0.00    +0.167 A 
ATOM      7  C   UNL     1       0.718   9.094  -0.228  0.00  0.00    +0.170 A 
ATOM      8  C   UNL     1       0.636   7.726  -0.423  0.00  0.00    +0.095 A 
ATOM      9  C   UNL     1      -0.444   7.009   0.081  0.00  0.00    +0.126 A 
ATOM     10  O   UNL     1      -0.483   5.667  -0.130  0.00  0.00    -0.506 OA
ATOM     11  C   UNL     1      -1.734   5.000   0.044  0.00  0.00    +0.127 C 
ATOM     12  O   UNL     1       1.654  10.010  -0.613  0.00  0.00    -0.452 OA
ATOM     13  C   UNL     1       1.010  11.292  -0.492  0.00  0.00    +0.466 C 
ATOM     14  O   UNL     1       0.022  11.082   0.534  0.00  0.00    -0.453 OA
ENDROOT
BRANCH  11  20
ATOM     15  C   UNL     1      -0.826   3.122  -1.185  0.00  0.00    -0.074 C 
ATOM     16  C   UNL     1      -0.756   1.594  -1.230  0.00  0.00    -0.018 C 
ATOM     17  C   UNL     1      -0.013   1.086   0.008  0.00  0.00    -0.004 C 
ATOM     18  C   UNL     1      -0.732   1.581   1.266  0.00  0.00    -0.018 C 
ATOM     19  C   UNL     1      -0.804   3.109   1.238  0.00  0.00    -0.074 C 
ATOM     20  N   UNL     1      -1.552   3.533   0.035  0.00  0.00    +0.404 N 
ATOM     21  H   UNL     1      -2.475   3.083   0.041  0.00  0.00    -0.076 HD
ENDBRANCH  11  20
BRANCH   3  22
ATOM     22  C   UNL     1      -2.942   7.434   2.714  0.00  0.00    -0.032 A 
ATOM     23  C   UNL     1      -1.995   7.327   3.715  0.00  0.00    +0.054 A 
ATOM     24  C   UNL     1      -2.273   7.798   4.989  0.00  0.00    +0.165 A 
ATOM     25  C   UNL     1      -3.511   8.367   5.262  0.00  0.00    +0.201 A 
ATOM     26  C   UNL     1      -4.463   8.467   4.255  0.00  0.00    +0.165 A 
ATOM     27  C   UNL     1      -4.175   7.999   2.982  0.00  0.00    +0.054 A 
BRANCH  26  28
ATOM     28  O   UNL     1      -5.677   9.023   4.517  0.00  0.00    -0.491 OA
ATOM     29  C   UNL     1      -6.606   9.092   3.434  0.00  0.00    +0.277 C 
ENDBRANCH  26  28
BRANCH  25  30
ATOM     30  O   UNL     1      -3.791   8.825   6.513  0.00  0.00    -0.501 OA
ATOM     31  H   UNL     1      -4.188   8.163   7.095  0.00  0.00    +0.292 HD
ENDBRANCH  25  30
BRANCH  24  32
ATOM     32  O   UNL     1      -1.338   7.699   5.971  0.00  0.00    -0.491 OA
ATOM     33  C   UNL     1      -0.088   7.103   5.619  0.00  0.00    +0.277 C 
ENDBRANCH  24  32
ENDBRANCH   3  22
TORSDOF 5
