REMARK  Name = ZINC58007140
REMARK  3 active torsions:
REMARK  status: ('A' for Active; 'I' for Inactive)
REMARK    1  A    between atoms: C_5  and  N_7
REMARK    2  A    between atoms: C_13  and  C_16
REMARK    3  A    between atoms: C_19  and  C_22
REMARK                            x       y       z     vdW  Elec       q    Type
REMARK                         _______ _______ _______ _____ _____    ______ ____
ROOT
ATOM      1  N   UNL     1       1.236  -2.081  -0.014  0.00  0.00    -0.267 N 
ATOM      2  C   UNL     1       0.085  -2.774   0.088  0.00  0.00    +0.307 C 
ATOM      3  O   UNL     1      -0.980  -2.187   0.095  0.00  0.00    -0.252 OA
ATOM      4  N   UNL     1       0.114  -4.118   0.181  0.00  0.00    -0.285 N 
ATOM      5  C   UNL     1       1.393  -4.834   0.282  0.00  0.00    +0.110 C 
ATOM      6  C   UNL     1       1.446  -5.904  -0.813  0.00  0.00    +0.030 C 
ATOM      7  C   UNL     1       0.212  -6.803  -0.704  0.00  0.00    +0.056 C 
ATOM      8  C   UNL     1      -1.051  -5.964  -0.909  0.00  0.00    +0.030 C 
ATOM      9  C   UNL     1      -1.134  -4.895   0.191  0.00  0.00    +0.110 C 
ATOM     10  H   UNL     1       2.084  -2.551  -0.055  0.00  0.00    +0.156 HD
ENDROOT
BRANCH   1  15
ATOM     11  C   UNL     1       0.030   1.360  -0.502  0.00  0.00    +0.002 A 
ATOM     12  C   UNL     1       1.156   2.085  -0.156  0.00  0.00    +0.003 A 
ATOM     13  C   UNL     1       2.309   1.432   0.238  0.00  0.00    +0.040 A 
ATOM     14  C   UNL     1       2.340   0.050   0.287  0.00  0.00    +0.145 A 
ATOM     15  C   UNL     1       1.209  -0.681  -0.061  0.00  0.00    +0.070 A 
ATOM     16  C   UNL     1       0.054  -0.021  -0.456  0.00  0.00    +0.026 A 
ATOM     17  F   UNL     1       3.466  -0.589   0.671  0.00  0.00    -0.204 F 
ENDBRANCH   1  15
BRANCH   7  18
ATOM     18  C   UNL     1       0.279  -7.877  -1.758  0.00  0.00    +0.088 A 
ATOM     19  N   UNL     1      -0.167  -9.145  -1.616  0.00  0.00    -0.343 N 
ATOM     20  H   UNL     1      -0.583  -9.524  -0.827  0.00  0.00    +0.167 HD
ATOM     21  C   UNL     1       0.080  -9.796  -2.804  0.00  0.00    +0.064 A 
ATOM     22  C   UNL     1       0.671  -8.888  -3.627  0.00  0.00    +0.110 A 
ATOM     23  N   UNL     1       0.771  -7.732  -2.959  0.00  0.00    -0.349 N 
ATOM     24  H   UNL     1       1.153  -6.913  -3.312  0.00  0.00    +0.166 HD
BRANCH  21  25
ATOM     25  C   UNL     1      -0.236 -11.205  -3.123  0.00  0.00    +0.003 A 
ATOM     26  C   UNL     1      -0.853 -12.017  -2.170  0.00  0.00    +0.013 A 
ATOM     27  C   UNL     1      -1.145 -13.331  -2.471  0.00  0.00    +0.042 A 
ATOM     28  C   UNL     1      -0.828 -13.847  -3.717  0.00  0.00    +0.158 A 
ATOM     29  C   UNL     1      -0.215 -13.045  -4.669  0.00  0.00    +0.159 A 
ATOM     30  C   UNL     1       0.077 -11.726  -4.378  0.00  0.00    +0.051 A 
ATOM     31  F   UNL     1       0.092 -13.552  -5.882  0.00  0.00    -0.202 F 
ATOM     32  F   UNL     1      -1.116 -15.134  -4.006  0.00  0.00    -0.202 F 
ENDBRANCH  21  25
ENDBRANCH   7  18
TORSDOF 3
