REMARK  Name = ZINC08685327
REMARK  12 active torsions:
REMARK  status: ('A' for Active; 'I' for Inactive)
REMARK    1  A    between atoms: C_1  and  C_2
REMARK    2  A    between atoms: C_2  and  N_51
REMARK    3  A    between atoms: C_3  and  C_4
REMARK    4  A    between atoms: C_3  and  N_51
REMARK    5  A    between atoms: C_5  and  C_6
REMARK    6  A    between atoms: C_5  and  N_51
REMARK    7  A    between atoms: C_6  and  N_53
REMARK    8  A    between atoms: C_7  and  C_9
REMARK    9  A    between atoms: C_7  and  C_15
REMARK   10  A    between atoms: C_7  and  N_53
REMARK   11  A    between atoms: N_17  and  C_18
REMARK   12  A    between atoms: C_21  and  N_25
REMARK                            x       y       z     vdW  Elec       q    Type
REMARK                         _______ _______ _______ _____ _____    ______ ____
ROOT
ATOM      1  C   UNL     1       2.546   3.262   2.842  0.00  0.00    +0.047 C 
ENDROOT
BRANCH   1   2
ATOM      2  C   UNL     1       3.058   4.542   2.235  0.00  0.00    -0.053 A 
ATOM      3  C   UNL     1       2.168   5.480   1.746  0.00  0.00    +0.002 A 
ATOM      4  C   UNL     1       2.638   6.657   1.193  0.00  0.00    +0.000 A 
ATOM      5  C   UNL     1       3.998   6.891   1.120  0.00  0.00    +0.000 A 
ATOM      6  C   UNL     1       4.889   5.951   1.604  0.00  0.00    +0.000 A 
ATOM      7  C   UNL     1       4.419   4.776   2.161  0.00  0.00    +0.002 A 
ENDBRANCH   1   2
BRANCH   1   8
ATOM      8  C   UNL     1       2.106   3.519   4.260  0.00  0.00    +0.207 C 
ATOM      9  O   UNL     1       0.956   3.313   4.585  0.00  0.00    -0.277 OA
ATOM     10  N   UNL     1       2.991   3.978   5.167  0.00  0.00    -0.286 N 
ATOM     11  H   UNL     1       3.889   4.219   4.890  0.00  0.00    +0.155 HD
BRANCH  10  12
ATOM     12  C   UNL     1       2.615   4.107   6.509  0.00  0.00    +0.048 A 
ATOM     13  C   UNL     1       1.513   3.413   6.992  0.00  0.00    +0.026 A 
ATOM     14  C   UNL     1       1.144   3.542   8.317  0.00  0.00    +0.034 A 
ATOM     15  C   UNL     1       1.870   4.361   9.162  0.00  0.00    +0.127 A 
ATOM     16  C   UNL     1       2.968   5.053   8.685  0.00  0.00    +0.049 A 
ATOM     17  C   UNL     1       3.346   4.924   7.362  0.00  0.00    +0.041 A 
ATOM     18 BR   UNL     1       4.851   5.865   6.711  0.00  0.00    -0.048 Br
BRANCH  15  19
ATOM     19  N   UNL     1       1.472   4.497  10.581  0.00  0.00    +0.056 N 
ATOM     20  O   UNL     1       0.505   3.888  11.003  0.00  0.00    -0.126 OA
ATOM     21  O   UNL     1       2.110   5.218  11.327  0.00  0.00    -0.126 OA
ENDBRANCH  15  19
ENDBRANCH  10  12
ENDBRANCH   1   8
BRANCH   1  22
ATOM     22  N   UNL     1       1.395   2.772   2.059  0.00  0.00    +0.388 N 
ATOM     23  H   UNL     1       0.800   2.189   2.660  0.00  0.00    -0.084 HD
ATOM     24  H   UNL     1       0.853   3.573   1.716  0.00  0.00    -0.084 HD
BRANCH  22  25
ATOM     25  C   UNL     1       1.860   1.970   0.911  0.00  0.00    -0.100 C 
BRANCH  25  26
ATOM     26  C   UNL     1       0.647   1.477   0.120  0.00  0.00    -0.098 C 
BRANCH  26  27
ATOM     27  N   UNL     1       1.121   0.693  -1.040  0.00  0.00    +0.378 N 
ATOM     28  H   UNL     1       1.815   1.247  -1.555  0.00  0.00    -0.082 HD
BRANCH  27  30
ATOM     29  C   UNL     1       0.746  -1.421   0.185  0.00  0.00    -0.017 C 
ATOM     30  C   UNL     1       1.755  -0.560  -0.578  0.00  0.00    -0.082 C 
ENDBRANCH  27  30
BRANCH  27  31
ATOM     31  C   UNL     1      -0.011   0.386  -1.938  0.00  0.00    -0.082 C 
ATOM     32  C   UNL     1       0.543  -0.093  -3.282  0.00  0.00    -0.017 C 
ENDBRANCH  27  31
ENDBRANCH  26  27
ENDBRANCH  25  26
ENDBRANCH  22  25
ENDBRANCH   1  22
TORSDOF 10
