REMARK  Name = ZINC11614913
REMARK  10 active torsions:
REMARK  status: ('A' for Active; 'I' for Inactive)
REMARK    1  A    between atoms: C_1  and  N_49
REMARK    2  A    between atoms: C_2  and  N_49
REMARK    3  A    between atoms: C_3  and  C_4
REMARK    4  A    between atoms: C_3  and  N_49
REMARK    5  A    between atoms: C_4  and  N_5
REMARK    6  A    between atoms: C_6  and  C_23
REMARK    7  A    between atoms: C_8  and  C_13
REMARK    8  A    between atoms: C_9  and  O_12
REMARK    9  A    between atoms: C_13  and  C_15
REMARK   10  A    between atoms: C_20  and  O_21
REMARK                            x       y       z     vdW  Elec       q    Type
REMARK                         _______ _______ _______ _____ _____    ______ ____
ROOT
ATOM      1  N   UNL     1      -1.130   5.403   0.827  0.00  0.00    -0.285 N 
ATOM      2  C   UNL     1      -0.070   5.021  -0.113  0.00  0.00    +0.144 C 
ATOM      3  C   UNL     1      -0.224   5.924  -1.314  0.00  0.00    +0.071 C 
ATOM      4  C   UNL     1      -1.277   6.735  -1.060  0.00  0.00    +0.188 C 
ATOM      5  C   UNL     1      -1.834   6.406   0.268  0.00  0.00    +0.282 C 
ATOM      6  O   UNL     1      -2.787   6.959   0.781  0.00  0.00    -0.267 OA
ENDROOT
BRANCH   2   7
ATOM      7  C   UNL     1      -0.236   3.580  -0.523  0.00  0.00    -0.022 A 
ATOM      8  C   UNL     1       0.874   2.768  -0.660  0.00  0.00    +0.008 A 
ATOM      9  C   UNL     1       0.723   1.447  -1.036  0.00  0.00    +0.038 A 
ATOM     10  C   UNL     1      -0.542   0.937  -1.276  0.00  0.00    +0.123 A 
ATOM     11  C   UNL     1      -1.653   1.752  -1.144  0.00  0.00    +0.038 A 
ATOM     12  C   UNL     1      -1.499   3.072  -0.763  0.00  0.00    +0.008 A 
ATOM     13  F   UNL     1      -0.691  -0.354  -1.644  0.00  0.00    -0.205 F 
ENDBRANCH   2   7
BRANCH   4  14
ATOM     14  O   UNL     1      -1.745   7.694  -1.891  0.00  0.00    -0.502 OA
ATOM     15  H   UNL     1      -2.529   8.148  -1.468  0.00  0.00    +0.292 HD
ENDBRANCH   4  14
BRANCH   3  16
ATOM     16  C   UNL     1       0.608   5.923  -2.522  0.00  0.00    +0.198 C 
ATOM     17  O   UNL     1       0.120   5.629  -3.597  0.00  0.00    -0.287 OA
BRANCH  16  18
ATOM     18  C   UNL     1       2.038   6.277  -2.433  0.00  0.00    +0.065 A 
ATOM     19  C   UNL     1       2.577   6.726  -1.224  0.00  0.00    +0.035 A 
ATOM     20  C   UNL     1       3.914   7.055  -1.149  0.00  0.00    +0.042 A 
ATOM     21  C   UNL     1       4.726   6.944  -2.267  0.00  0.00    +0.023 A 
ATOM     22  C   UNL     1       4.205   6.503  -3.467  0.00  0.00    +0.047 A 
ATOM     23  C   UNL     1       2.864   6.161  -3.560  0.00  0.00    +0.128 A 
ATOM     24 CL   UNL     1       4.583   7.612   0.353  0.00  0.00    -0.084 Cl
BRANCH  23  25
ATOM     25  O   UNL     1       2.353   5.723  -4.738  0.00  0.00    -0.506 OA
ATOM     26  H   UNL     1       2.012   6.427  -5.306  0.00  0.00    +0.292 HD
ENDBRANCH  23  25
ENDBRANCH  16  18
ENDBRANCH   3  16
BRANCH   1  27
ATOM     27  C   UNL     1      -1.377   4.801   2.139  0.00  0.00    +0.090 C 
BRANCH  27  28
ATOM     28  C   UNL     1      -0.577   5.552   3.205  0.00  0.00    -0.060 C 
BRANCH  28  31
ATOM     29  C   UNL     1       0.100   5.483   5.529  0.00  0.00    -0.097 C 
ATOM     30  C   UNL     1      -2.222   5.140   4.933  0.00  0.00    -0.097 C 
ATOM     31  N   UNL     1      -0.821   4.920   4.519  0.00  0.00    +0.377 N 
ATOM     32  H   UNL     1      -0.651   3.910   4.439  0.00  0.00    -0.083 HD
ENDBRANCH  28  31
ENDBRANCH  27  28
ENDBRANCH   1  27
TORSDOF 8
