REMARK  Name = ZINC11932855
REMARK  6 active torsions:
REMARK  status: ('A' for Active; 'I' for Inactive)
REMARK    1  A    between atoms: C_1  and  C_2
REMARK    2  A    between atoms: C_6  and  C_8
REMARK    3  A    between atoms: C_23  and  C_25
REMARK    4  A    between atoms: C_25  and  C_26
REMARK    5  A    between atoms: C_26  and  N_27
REMARK    6  A    between atoms: C_28  and  C_30
REMARK                            x       y       z     vdW  Elec       q    Type
REMARK                         _______ _______ _______ _____ _____    ______ ____
ROOT
ATOM      1  C   UNL     1       3.741  -3.429  -0.059  0.00  0.00    +0.153 C 
ATOM      2  C   UNL     1       2.781  -2.261  -0.101  0.00  0.00    +0.046 A 
ATOM      3  C   UNL     1       1.442  -2.400  -0.054  0.00  0.00    -0.015 A 
ATOM      4  C   UNL     1       0.865  -1.060  -0.122  0.00  0.00    +0.003 A 
ATOM      5  C   UNL     1      -0.438  -0.557  -0.119  0.00  0.00    +0.010 A 
ATOM      6  C   UNL     1      -0.646   0.791  -0.196  0.00  0.00    +0.001 A 
ATOM      7  C   UNL     1       0.427   1.667  -0.278  0.00  0.00    +0.002 A 
ATOM      8  C   UNL     1       1.720   1.194  -0.284  0.00  0.00    +0.026 A 
ATOM      9  C   UNL     1       1.957  -0.174  -0.206  0.00  0.00    +0.047 A 
ATOM     10  N   UNL     1       3.104  -0.937  -0.191  0.00  0.00    -0.356 N 
ATOM     11  H   UNL     1       4.007  -0.587  -0.237  0.00  0.00    +0.166 HD
ATOM     12  C   UNL     1       0.711  -3.713   0.057  0.00  0.00    +0.056 C 
ATOM     13  C   UNL     1       1.667  -4.846  -0.337  0.00  0.00    +0.113 C 
ATOM     14  N   UNL     1       2.966  -4.624   0.315  0.00  0.00    -0.289 N 
ATOM     15  C   UNL     1       3.436  -5.493   1.232  0.00  0.00    +0.218 C 
ATOM     16  O   UNL     1       4.510  -5.295   1.761  0.00  0.00    -0.276 OA
ENDROOT
BRANCH   1  22
ATOM     17  C   UNL     1       7.814  -3.878  -2.934  0.00  0.00    +0.044 C 
ATOM     18  C   UNL     1       6.314  -3.843  -2.792  0.00  0.00    -0.050 A 
ATOM     19  C   UNL     1       5.510  -3.994  -3.907  0.00  0.00    +0.003 A 
ATOM     20  C   UNL     1       4.134  -3.962  -3.776  0.00  0.00    +0.001 A 
ATOM     21  C   UNL     1       3.562  -3.784  -2.531  0.00  0.00    +0.006 A 
ATOM     22  C   UNL     1       4.365  -3.628  -1.417  0.00  0.00    -0.021 A 
ATOM     23  C   UNL     1       5.742  -3.661  -1.547  0.00  0.00    +0.009 A 
ENDBRANCH   1  22
BRANCH  15  24
ATOM     24  C   UNL     1       2.627  -6.710   1.602  0.00  0.00    +0.114 C 
BRANCH  24  25
ATOM     25  C   UNL     1       3.382  -7.522   2.656  0.00  0.00    +0.113 C 
BRANCH  25  26
ATOM     26  N   UNL     1       2.596  -8.705   3.015  0.00  0.00    -0.315 N 
ATOM     27  C   UNL     1       3.066  -9.574   3.932  0.00  0.00    +0.210 C 
ATOM     28  O   UNL     1       4.139  -9.376   4.460  0.00  0.00    -0.276 OA
ATOM     29  C   UNL     1       2.257 -10.791   4.301  0.00  0.00    +0.109 C 
ATOM     30  H   UNL     1       1.737  -8.864   2.592  0.00  0.00    +0.149 HD
ENDBRANCH  25  26
ENDBRANCH  24  25
ENDBRANCH  15  24
TORSDOF 4
