REMARK  Name = ZINC20578771
REMARK  5 active torsions:
REMARK  status: ('A' for Active; 'I' for Inactive)
REMARK    1  A    between atoms: C_6  and  C_7
REMARK    2  A    between atoms: C_7  and  N_8
REMARK    3  A    between atoms: C_9  and  C_11
REMARK    4  A    between atoms: N_14  and  S_17
REMARK    5  A    between atoms: S_17  and  C_20
REMARK                            x       y       z     vdW  Elec       q    Type
REMARK                         _______ _______ _______ _____ _____    ______ ____
ROOT
ATOM      1  C   UNL     1      -5.895  -2.200   3.711  0.00  0.00    +0.077 C 
ATOM      2  C   UNL     1      -6.397  -1.034   2.856  0.00  0.00    +0.030 C 
ATOM      3  C   UNL     1      -5.197  -0.283   2.270  0.00  0.00    +0.110 C 
ATOM      4  N   UNL     1      -4.348  -1.239   1.547  0.00  0.00    -0.177 NA
ATOM      5  C   UNL     1      -3.888  -2.446   2.248  0.00  0.00    +0.110 C 
ATOM      6  C   UNL     1      -5.098  -3.170   2.836  0.00  0.00    +0.030 C 
ENDROOT
BRANCH   1   8
ATOM      7  N   UNL     1      -6.870  -3.989   5.114  0.00  0.00    -0.311 N 
ATOM      8  C   UNL     1      -7.072  -2.921   4.317  0.00  0.00    +0.216 C 
ATOM      9  O   UNL     1      -8.200  -2.540   4.088  0.00  0.00    -0.276 OA
ATOM     10  H   UNL     1      -5.846  -4.335   5.322  0.00  0.00    +0.149 HD
BRANCH   7  11
ATOM     11  C   UNL     1      -8.013  -4.690   5.703  0.00  0.00    +0.139 C 
BRANCH  11  17
ATOM     12  C   UNL     1      -7.348  -7.087   5.976  0.00  0.00    +0.009 A 
ATOM     13  C   UNL     1      -6.891  -8.142   6.744  0.00  0.00    +0.050 A 
ATOM     14  C   UNL     1      -6.613  -7.953   8.087  0.00  0.00    +0.166 A 
ATOM     15  C   UNL     1      -6.791  -6.696   8.661  0.00  0.00    +0.167 A 
ATOM     16  C   UNL     1      -7.244  -5.642   7.885  0.00  0.00    +0.054 A 
ATOM     17  C   UNL     1      -7.519  -5.838   6.545  0.00  0.00    -0.027 A 
ATOM     18  O   UNL     1      -6.453  -6.768   9.982  0.00  0.00    -0.453 OA
ATOM     19  C   UNL     1      -6.458  -8.172  10.304  0.00  0.00    +0.466 C 
ATOM     20  O   UNL     1      -6.164  -8.812   9.048  0.00  0.00    -0.453 OA
ENDBRANCH  11  17
ENDBRANCH   7  11
ENDBRANCH   1   8
BRANCH   4  21
ATOM     21  S   UNL     1      -3.921  -0.965  -0.029  0.00  0.00    +0.061 S 
ATOM     22  O   UNL     1      -4.912  -0.105  -0.575  0.00  0.00    -0.153 OA
ATOM     23  O   UNL     1      -3.618  -2.233  -0.594  0.00  0.00    -0.153 OA
BRANCH  21  24
ATOM     24  C   UNL     1      -2.416  -0.049  -0.010  0.00  0.00    +0.106 A 
ATOM     25  C   UNL     1      -2.441   1.334   0.007  0.00  0.00    +0.030 A 
ATOM     26  C   UNL     1      -1.259   2.033   0.017  0.00  0.00    +0.025 A 
ATOM     27  C   UNL     1      -0.017   1.374   0.010  0.00  0.00    +0.037 A 
ATOM     28  C   UNL     1       0.002  -0.004   0.002  0.00  0.00    -0.024 A 
ATOM     29  C   UNL     1      -1.206  -0.704  -0.012  0.00  0.00    +0.034 A 
ATOM     30  C   UNL     1       1.234  -0.850   0.011  0.00  0.00    +0.037 C 
ATOM     31  C   UNL     1       2.382  -0.319   0.811  0.00  0.00    +0.014 C 
ATOM     32  C   UNL     1       3.136   0.791   0.119  0.00  0.00    +0.096 C 
ATOM     33  C   UNL     1       2.369   2.065   0.115  0.00  0.00    +0.217 C 
ATOM     34  O   UNL     1       3.016   3.084   0.229  0.00  0.00    -0.275 OA
ATOM     35  N   UNL     1       1.079   2.206   0.004  0.00  0.00    -0.285 N 
ATOM     36  H   UNL     1       0.945   3.291  -0.121  0.00  0.00    +0.155 HD
ENDBRANCH  21  24
ENDBRANCH   4  21
TORSDOF 5
