REMARK  Name = ZINC61689223
REMARK  4 active torsions:
REMARK  status: ('A' for Active; 'I' for Inactive)
REMARK    1  A    between atoms: C_1  and  C_2
REMARK    2  A    between atoms: C_2  and  C_4
REMARK    3  A    between atoms: C_2  and  N_12
REMARK    4  A    between atoms: C_13  and  N_18
REMARK                            x       y       z     vdW  Elec       q    Type
REMARK                         _______ _______ _______ _____ _____    ______ ____
ROOT
ATOM      1  C   UNL     1      -0.019   1.526   0.010  0.00  0.00    +0.038 C 
ATOM      2  C   UNL     1       0.002  -0.004   0.002  0.00  0.00    +0.136 C 
ENDROOT
BRANCH   2   3
ATOM      3  C   UNL     1       0.707  -0.490  -1.238  0.00  0.00    -0.022 A 
ATOM      4  C   UNL     1       2.026  -0.141  -1.464  0.00  0.00    +0.008 A 
ATOM      5  C   UNL     1       2.675  -0.586  -2.600  0.00  0.00    +0.040 A 
ATOM      6  C   UNL     1       2.003  -1.382  -3.513  0.00  0.00    +0.137 A 
ATOM      7  C   UNL     1       0.682  -1.731  -3.286  0.00  0.00    +0.053 A 
ATOM      8  C   UNL     1       0.037  -1.289  -2.145  0.00  0.00    +0.023 A 
ATOM      9 BR   UNL     1      -0.236  -2.818  -4.531  0.00  0.00    -0.047 Br
ATOM     10  F   UNL     1       2.636  -1.818  -4.624  0.00  0.00    -0.204 F 
ENDBRANCH   2   3
BRANCH   2  11
ATOM     11  N   UNL     1       0.711  -0.489   1.189  0.00  0.00    -0.243 N 
ATOM     12  C   UNL     1       0.195  -1.290   2.157  0.00  0.00    +0.129 A 
ATOM     13  C   UNL     1       1.177  -1.506   3.076  0.00  0.00    +0.077 A 
ATOM     14  C   UNL     1       2.317  -0.817   2.653  0.00  0.00    +0.151 A 
ATOM     15  N   UNL     1       2.043  -0.215   1.524  0.00  0.00    -0.176 NA
ATOM     16 BR   UNL     1       1.024  -2.550   4.645  0.00  0.00    -0.045 Br
BRANCH  12  17
ATOM     17  N   UNL     1      -1.101  -1.798   2.202  0.00  0.00    -0.342 N 
ATOM     18  H   UNL     1      -1.731  -1.585   1.495  0.00  0.00    +0.144 HD
ATOM     19  H   UNL     1      -1.375  -2.365   2.940  0.00  0.00    +0.144 HD
ENDBRANCH  12  17
ENDBRANCH   2  11
TORSDOF 3
