REMARK  Name = ZINC32742954
REMARK  6 active torsions:
REMARK  status: ('A' for Active; 'I' for Inactive)
REMARK    1  A    between atoms: C_1  and  C_2
REMARK    2  A    between atoms: C_5  and  O_25
REMARK    3  A    between atoms: C_6  and  C_8
REMARK    4  A    between atoms: N_10  and  C_11
REMARK    5  A    between atoms: C_11  and  C_13
REMARK    6  A    between atoms: C_11  and  C_14
REMARK                            x       y       z     vdW  Elec       q    Type
REMARK                         _______ _______ _______ _____ _____    ______ ____
ROOT
ATOM      1  C   UNL     1       0.053  -2.841   2.459  0.00  0.00    +0.248 C 
ATOM      2  O   UNL     1       0.070  -4.056   2.449  0.00  0.00    -0.270 OA
ATOM      3  N   UNL     1       0.050  -2.176   3.631  0.00  0.00    -0.305 N 
ATOM      4  H   UNL     1       0.037  -1.206   3.639  0.00  0.00    +0.150 HD
ENDROOT
BRANCH   1  10
ATOM      5  C   UNL     1      -0.018   1.503   0.010  0.00  0.00    +0.044 C 
ATOM      6  C   UNL     1       0.002  -0.004   0.002  0.00  0.00    -0.050 A 
ATOM      7  C   UNL     1       0.006  -0.687  -1.203  0.00  0.00    +0.007 A 
ATOM      8  C   UNL     1       0.024  -2.067  -1.224  0.00  0.00    +0.046 A 
ATOM      9  C   UNL     1       0.040  -2.780  -0.034  0.00  0.00    +0.129 A 
ATOM     10  C   UNL     1       0.037  -2.093   1.187  0.00  0.00    +0.078 A 
ATOM     11  C   UNL     1       0.023  -0.696   1.193  0.00  0.00    +0.020 A 
BRANCH   9  12
ATOM     12  O   UNL     1       0.058  -4.137  -0.053  0.00  0.00    -0.506 OA
ATOM     13  H   UNL     1       0.947  -4.518  -0.063  0.00  0.00    +0.292 HD
ENDBRANCH   9  12
ENDBRANCH   1  10
BRANCH   3  14
ATOM     14  C   UNL     1       0.067  -2.918   4.894  0.00  0.00    +0.101 C 
ATOM     15  C   UNL     1      -1.363  -3.304   5.277  0.00  0.00    +0.033 C 
BRANCH  14  16
ATOM     16  C   UNL     1       0.661  -2.054   5.977  0.00  0.00    -0.024 A 
ATOM     17  C   UNL     1       0.344  -0.710   6.037  0.00  0.00    +0.009 A 
ATOM     18  C   UNL     1       0.886   0.089   7.028  0.00  0.00    +0.050 A 
ATOM     19  C   UNL     1       1.747  -0.464   7.961  0.00  0.00    +0.162 A 
ATOM     20  C   UNL     1       2.065  -1.813   7.901  0.00  0.00    +0.162 A 
ATOM     21  C   UNL     1       1.518  -2.611   6.910  0.00  0.00    +0.055 A 
ATOM     22  O   UNL     1       2.914  -2.348   8.826  0.00  0.00    -0.488 OA
ATOM     23  C   UNL     1       4.274  -1.916   8.749  0.00  0.00    +0.232 C 
ATOM     24  C   UNL     1       4.467  -0.605   9.494  0.00  0.00    +0.082 C 
ATOM     25  C   UNL     1       3.695   0.541   8.859  0.00  0.00    +0.232 C 
ATOM     26  O   UNL     1       2.287   0.313   8.945  0.00  0.00    -0.488 OA
ENDBRANCH  14  16
ENDBRANCH   3  14
TORSDOF 4
