REMARK  Name = ZINC64408451
REMARK  9 active torsions:
REMARK  status: ('A' for Active; 'I' for Inactive)
REMARK    1  A    between atoms: C_4  and  S_7
REMARK    2  A    between atoms: S_7  and  N_10
REMARK    3  A    between atoms: N_10  and  C_11
REMARK    4  A    between atoms: C_14  and  C_17
REMARK    5  A    between atoms: C_17  and  C_18
REMARK    6  A    between atoms: C_18  and  C_19
REMARK    7  A    between atoms: N_21  and  C_22
REMARK    8  A    between atoms: C_22  and  C_23
REMARK    9  A    between atoms: C_23  and  C_24
REMARK                            x       y       z     vdW  Elec       q    Type
REMARK                         _______ _______ _______ _____ _____    ______ ____
ROOT
ATOM      1  C   UNL     1       4.085  -2.061   6.142  0.00  0.00    +0.060 C 
ENDROOT
BRANCH   1   4
ATOM      2  C   UNL     1       3.567  -1.942   2.398  0.00  0.00    +0.251 C 
ATOM      3  N   UNL     1       3.714  -1.565   3.819  0.00  0.00    -0.261 NA
ATOM      4  C   UNL     1       3.937  -2.442   4.691  0.00  0.00    +0.027 C 
ATOM      5  C   UNL     1       4.054  -3.895   4.255  0.00  0.00    +0.123 C 
ATOM      6  S   UNL     1       4.231  -3.665   2.429  0.00  0.00    -0.112 S 
BRANCH   2   7
ATOM      7  N   UNL     1       4.378  -1.079   1.536  0.00  0.00    -0.157 NA
ATOM      8  H   UNL     1       5.174  -0.651   1.888  0.00  0.00    +0.151 HD
BRANCH   7   9
ATOM      9  S   UNL     1       3.934  -0.832  -0.041  0.00  0.00    +0.061 S 
ATOM     10  O   UNL     1       3.674  -2.114  -0.595  0.00  0.00    -0.153 OA
ATOM     11  O   UNL     1       4.890   0.060  -0.597  0.00  0.00    -0.153 OA
BRANCH   9  15
ATOM     12  C   UNL     1      -0.017   1.378   0.010  0.00  0.00    +0.000 A 
ATOM     13  C   UNL     1       1.171   2.086   0.002  0.00  0.00    +0.002 A 
ATOM     14  C   UNL     1       2.377   1.411  -0.013  0.00  0.00    +0.028 A 
ATOM     15  C   UNL     1       2.396   0.029  -0.020  0.00  0.00    +0.105 A 
ATOM     16  C   UNL     1       1.208  -0.679  -0.012  0.00  0.00    +0.028 A 
ATOM     17  C   UNL     1       0.002  -0.004   0.002  0.00  0.00    +0.002 A 
ENDBRANCH   9  15
ENDBRANCH   7   9
ENDBRANCH   2   7
ENDBRANCH   1   4
BRANCH   1  18
ATOM     18  C   UNL     1       3.922  -0.547   6.291  0.00  0.00    +0.101 C 
BRANCH  18  19
ATOM     19  C   UNL     1       4.071  -0.166   7.742  0.00  0.00    +0.213 C 
ATOM     20  O   UNL     1       4.286  -1.021   8.574  0.00  0.00    -0.276 OA
ATOM     21  N   UNL     1       3.965   1.125   8.114  0.00  0.00    -0.315 N 
ATOM     22  H   UNL     1       3.792   1.809   7.448  0.00  0.00    +0.149 HD
BRANCH  21  23
ATOM     23  C   UNL     1       4.109   1.495   9.524  0.00  0.00    +0.108 C 
BRANCH  23  24
ATOM     24  C   UNL     1       3.946   3.009   9.673  0.00  0.00    +0.052 C 
BRANCH  24  25
ATOM     25  C   UNL     1       4.095   3.390  11.123  0.00  0.00    -0.040 C 
ATOM     26  C   UNL     1       5.219   3.819  11.740  0.00  0.00    -0.001 A 
ATOM     27  C   UNL     1       6.588   4.051  11.264  0.00  0.00    +0.010 A 
ATOM     28  C   UNL     1       7.521   4.492  12.138  0.00  0.00    +0.001 A 
ATOM     29  C   UNL     1       7.215   4.733  13.484  0.00  0.00    +0.002 A 
ATOM     30  C   UNL     1       5.980   4.544  13.996  0.00  0.00    +0.026 A 
ATOM     31  C   UNL     1       4.921   4.082  13.166  0.00  0.00    +0.043 A 
ATOM     32  N   UNL     1       3.661   3.825  13.421  0.00  0.00    -0.380 N 
ATOM     33  C   UNL     1       3.015   3.376  12.183  0.00  0.00    +0.144 C 
ATOM     34  H   UNL     1       3.227   3.920  14.283  0.00  0.00    +0.160 HD
ENDBRANCH  24  25
ENDBRANCH  23  24
ENDBRANCH  21  23
ENDBRANCH  18  19
ENDBRANCH   1  18
TORSDOF 9
