REMARK  Name = ZINC49533359
REMARK  7 active torsions:
REMARK  status: ('A' for Active; 'I' for Inactive)
REMARK    1  A    between atoms: C_1  and  C_2
REMARK    2  A    between atoms: C_2  and  C_3
REMARK    3  A    between atoms: C_3  and  C_5
REMARK    4  A    between atoms: C_3  and  N_10
REMARK    5  A    between atoms: N_10  and  C_11
REMARK    6  A    between atoms: C_14  and  N_20
REMARK    7  A    between atoms: C_16  and  C_17
REMARK                            x       y       z     vdW  Elec       q    Type
REMARK                         _______ _______ _______ _____ _____    ______ ____
ROOT
ATOM      1  C   UNL     1      -2.708   1.074   1.391  0.00  0.00    +0.042 A 
ATOM      2  C   UNL     1      -2.611   2.006   0.366  0.00  0.00    +0.025 A 
ATOM      3  C   UNL     1      -3.179   3.254   0.508  0.00  0.00    +0.024 A 
ATOM      4  C   UNL     1      -3.856   3.591   1.677  0.00  0.00    +0.025 A 
ATOM      5  C   UNL     1      -3.963   2.676   2.708  0.00  0.00    +0.039 A 
ATOM      6  C   UNL     1      -3.394   1.405   2.572  0.00  0.00    +0.086 A 
ENDROOT
BRANCH   6   7
ATOM      7  C   UNL     1      -3.509   0.423   3.660  0.00  0.00    +0.388 C 
ATOM      8  O   UNL     1      -4.202   0.671   4.638  0.00  0.00    -0.241 OA
ATOM      9  O   UNL     1      -2.911  -0.643   3.588  0.00  0.00    -0.241 OA
ENDBRANCH   6   7
BRANCH   4  10
ATOM     10  N   UNL     1      -4.429   4.862   1.810  0.00  0.00    -0.358 N 
ATOM     11  H   UNL     1      -4.354   5.505   1.088  0.00  0.00    +0.142 HD
ATOM     12  H   UNL     1      -4.901   5.098   2.624  0.00  0.00    +0.142 HD
ENDBRANCH   4  10
BRANCH   1  13
ATOM     13  N   UNL     1      -2.134  -0.184   1.248  0.00  0.00    -0.336 N 
ATOM     14  H   UNL     1      -2.298  -0.871   1.913  0.00  0.00    +0.147 HD
BRANCH  13  15
ATOM     15  C   UNL     1      -1.282  -0.472   0.092  0.00  0.00    +0.107 C 
BRANCH  15  16
ATOM     16  C   UNL     1      -1.288  -1.954  -0.181  0.00  0.00    +0.010 A 
ATOM     17  C   UNL     1      -1.319  -2.603  -1.370  0.00  0.00    +0.013 A 
ATOM     18  C   UNL     1      -1.319  -3.985  -1.380  0.00  0.00    +0.008 A 
ATOM     19  C   UNL     1      -1.288  -4.651  -0.200  0.00  0.00    +0.045 A 
ATOM     20  S   UNL     1      -1.251  -3.311   0.979  0.00  0.00    -0.100 S 
ENDBRANCH  15  16
BRANCH  15  22
ATOM     21  C   UNL     1       0.175   1.508   0.540  0.00  0.00    +0.006 C 
ATOM     22  C   UNL     1       0.148  -0.014   0.386  0.00  0.00    +0.024 C 
ENDBRANCH  15  22
ENDBRANCH  13  15
ENDBRANCH   1  13
TORSDOF 6
