REMARK  Name = ZINC35641667
REMARK  11 active torsions:
REMARK  status: ('A' for Active; 'I' for Inactive)
REMARK    1  A    between atoms: C_1  and  C_2
REMARK    2  A    between atoms: C_2  and  O_3
REMARK    3  A    between atoms: O_3  and  C_4
REMARK    4  A    between atoms: C_4  and  C_6
REMARK    5  A    between atoms: C_7  and  C_22
REMARK    6  A    between atoms: N_8  and  C_21
REMARK    7  A    between atoms: C_12  and  C_14
REMARK    8  A    between atoms: C_22  and  N_23
REMARK    9  A    between atoms: N_23  and  C_24
REMARK   10  A    between atoms: N_23  and  C_25
REMARK   11  A    between atoms: C_25  and  C_26
REMARK                            x       y       z     vdW  Elec       q    Type
REMARK                         _______ _______ _______ _____ _____    ______ ____
ROOT
ATOM      1  C   UNL     1       0.948  -2.476  -2.466  0.00  0.00    +0.076 C 
ATOM      2  C   UNL     1       1.486  -3.706  -2.611  0.00  0.00    +0.010 C 
ATOM      3  N   UNL     1       2.455  -3.945  -3.543  0.00  0.00    -0.264 N 
ATOM      4  C   UNL     1       2.940  -3.008  -4.367  0.00  0.00    +0.307 C 
ATOM      5  O   UNL     1       3.804  -3.317  -5.165  0.00  0.00    -0.252 OA
ATOM      6  N   UNL     1       2.502  -1.734  -4.341  0.00  0.00    -0.288 N 
ATOM      7  C   UNL     1       1.452  -1.373  -3.375  0.00  0.00    +0.143 C 
ATOM      8  C   UNL     1       2.994  -5.303  -3.646  0.00  0.00    +0.139 C 
ATOM      9  H   UNL     1       2.868  -1.071  -4.948  0.00  0.00    +0.151 HD
ENDROOT
BRANCH   7  10
ATOM     10  C   UNL     1       1.986  -0.264  -2.507  0.00  0.00    -0.022 A 
ATOM     11  C   UNL     1       3.252  -0.363  -1.960  0.00  0.00    +0.007 A 
ATOM     12  C   UNL     1       3.743   0.654  -1.164  0.00  0.00    +0.020 A 
ATOM     13  C   UNL     1       2.968   1.773  -0.914  0.00  0.00    +0.041 A 
ATOM     14  C   UNL     1       1.701   1.872  -1.462  0.00  0.00    +0.020 A 
ATOM     15  C   UNL     1       1.213   0.856  -2.263  0.00  0.00    +0.007 A 
ATOM     16 CL   UNL     1       3.584   3.051   0.086  0.00  0.00    -0.084 Cl
ENDBRANCH   7  10
BRANCH   1  17
ATOM     17  C   UNL     1      -0.057  -2.227  -1.501  0.00  0.00    +0.339 C 
ATOM     18  O   UNL     1      -0.534  -3.149  -0.867  0.00  0.00    -0.245 OA
BRANCH  17  19
ATOM     19  O   UNL     1      -0.486  -0.966  -1.285  0.00  0.00    -0.462 OA
BRANCH  19  21
ATOM     20  C   UNL     1      -1.858   0.697  -0.192  0.00  0.00    +0.048 C 
ATOM     21  C   UNL     1      -1.503  -0.787  -0.296  0.00  0.00    +0.229 C 
ENDBRANCH  19  21
ENDBRANCH  17  19
ENDBRANCH   1  17
BRANCH   2  22
ATOM     22  C   UNL     1       1.009  -4.832  -1.731  0.00  0.00    -0.026 C 
BRANCH  22  23
ATOM     23  N   UNL     1      -0.226  -5.400  -2.288  0.00  0.00    +0.384 N 
ATOM     24  C   UNL     1       0.066  -6.037  -3.579  0.00  0.00    -0.095 C 
ATOM     25  H   UNL     1      -0.904  -4.665  -2.421  0.00  0.00    -0.081 HD
BRANCH  23  26
ATOM     26  C   UNL     1      -0.766  -6.402  -1.359  0.00  0.00    -0.043 C 
BRANCH  26  27
ATOM     27  C   UNL     1      -2.095  -6.895  -1.870  0.00  0.00    -0.064 A 
ATOM     28  C   UNL     1      -3.261  -6.251  -1.498  0.00  0.00    +0.002 A 
ATOM     29  C   UNL     1      -4.480  -6.704  -1.967  0.00  0.00    +0.000 A 
ATOM     30  C   UNL     1      -4.534  -7.800  -2.808  0.00  0.00    +0.000 A 
ATOM     31  C   UNL     1      -3.368  -8.443  -3.180  0.00  0.00    +0.000 A 
ATOM     32  C   UNL     1      -2.149  -7.988  -2.715  0.00  0.00    +0.002 A 
ENDBRANCH  26  27
ENDBRANCH  23  26
ENDBRANCH  22  23
ENDBRANCH   2  22
TORSDOF 8
