REMARK  Name = ZINC21224559
REMARK  12 active torsions:
REMARK  status: ('A' for Active; 'I' for Inactive)
REMARK    1  A    between atoms: C_1  and  C_2
REMARK    2  A    between atoms: C_2  and  O_3
REMARK    3  A    between atoms: O_3  and  C_4
REMARK    4  A    between atoms: C_7  and  C_12
REMARK    5  A    between atoms: C_9  and  O_10
REMARK    6  A    between atoms: O_10  and  C_11
REMARK    7  A    between atoms: C_17  and  C_27
REMARK    8  A    between atoms: C_30  and  O_35
REMARK    9  A    between atoms: C_31  and  O_33
REMARK   10  A    between atoms: O_33  and  C_34
REMARK   11  A    between atoms: O_35  and  C_36
REMARK   12  A    between atoms: C_36  and  C_38
REMARK                            x       y       z     vdW  Elec       q    Type
REMARK                         _______ _______ _______ _____ _____    ______ ____
ROOT
ATOM      1  C   UNL     1      -2.107   0.107  -4.780  0.00  0.00    +0.032 C 
ATOM      2  C   UNL     1      -2.641  -1.045  -3.930  0.00  0.00    +0.059 C 
ATOM      3  C   UNL     1      -2.508  -0.707  -2.455  0.00  0.00    +0.017 C 
ATOM      4  C   UNL     1      -2.610   0.566  -2.034  0.00  0.00    +0.036 C 
ATOM      5  C   UNL     1      -2.510   1.036  -0.603  0.00  0.00    +0.136 C 
ATOM      6  N   UNL     1      -2.547  -0.024   0.381  0.00  0.00    -0.331 N 
ATOM      7  C   UNL     1      -1.534  -0.975   0.453  0.00  0.00    +0.049 A 
ATOM      8  C   UNL     1      -0.666  -1.030   1.532  0.00  0.00    +0.025 A 
ATOM      9  C   UNL     1       0.398  -1.915   1.504  0.00  0.00    +0.002 A 
ATOM     10  C   UNL     1       0.595  -2.738   0.411  0.00  0.00    +0.002 A 
ATOM     11  C   UNL     1      -0.283  -2.701  -0.659  0.00  0.00    +0.025 A 
ATOM     12  C   UNL     1      -1.358  -1.830  -0.625  0.00  0.00    +0.052 A 
ATOM     13  N   UNL     1      -2.303  -1.774  -1.642  0.00  0.00    -0.316 N 
ATOM     14  C   UNL     1      -2.826   1.609  -2.966  0.00  0.00    +0.163 C 
ATOM     15  O   UNL     1      -2.933   2.748  -2.557  0.00  0.00    -0.292 OA
ATOM     16  C   UNL     1      -2.929   1.357  -4.441  0.00  0.00    +0.088 C 
ATOM     17  H   UNL     1      -3.387  -0.089   1.089  0.00  0.00    +0.147 HD
ATOM     18  H   UNL     1      -2.910  -2.683  -1.764  0.00  0.00    +0.152 HD
ENDROOT
BRANCH   1  22
ATOM     19  C   UNL     1      -2.548  -0.831  -8.929  0.00  0.00    +0.162 A 
ATOM     20  C   UNL     1      -3.662  -0.770  -8.107  0.00  0.00    +0.050 A 
ATOM     21  C   UNL     1      -3.516  -0.466  -6.767  0.00  0.00    +0.008 A 
ATOM     22  C   UNL     1      -2.260  -0.223  -6.242  0.00  0.00    -0.040 A 
ATOM     23  C   UNL     1      -1.145  -0.277  -7.058  0.00  0.00    +0.053 A 
ATOM     24  C   UNL     1      -1.284  -0.586  -8.401  0.00  0.00    +0.162 A 
BRANCH  24  25
ATOM     25  O   UNL     1      -0.187  -0.645  -9.204  0.00  0.00    -0.491 OA
ATOM     26  C   UNL     1       1.078  -0.382  -8.593  0.00  0.00    +0.277 C 
ENDBRANCH  24  25
BRANCH  19  27
ATOM     27  O   UNL     1      -2.690  -1.129 -10.248  0.00  0.00    -0.489 OA
BRANCH  27  29
ATOM     28  C   UNL     1      -3.977  -1.685 -12.217  0.00  0.00    +0.048 C 
ATOM     29  C   UNL     1      -4.017  -1.368 -10.720  0.00  0.00    +0.226 C 
ENDBRANCH  27  29
ENDBRANCH  19  27
ENDBRANCH   1  22
BRANCH   5  30
ATOM     30  C   UNL     1      -1.218   1.795  -0.439  0.00  0.00    -0.019 A 
ATOM     31  C   UNL     1      -0.010   1.146  -0.616  0.00  0.00    +0.009 A 
ATOM     32  C   UNL     1       1.177   1.838  -0.472  0.00  0.00    +0.050 A 
ATOM     33  C   UNL     1       1.159   3.184  -0.143  0.00  0.00    +0.173 A 
ATOM     34  C   UNL     1      -0.057   3.836   0.041  0.00  0.00    +0.163 A 
ATOM     35  C   UNL     1      -1.244   3.136  -0.105  0.00  0.00    +0.055 A 
BRANCH  34  36
ATOM     36  O   UNL     1      -0.080   5.157   0.362  0.00  0.00    -0.491 OA
ATOM     37  C   UNL     1      -1.363   5.760   0.536  0.00  0.00    +0.277 C 
ENDBRANCH  34  36
BRANCH  33  38
ATOM     38  O   UNL     1       2.327   3.867  -0.002  0.00  0.00    -0.422 OA
BRANCH  38  39
ATOM     39  C   UNL     1       2.785   4.038   1.248  0.00  0.00    +0.309 C 
ATOM     40  O   UNL     1       2.216   3.515   2.177  0.00  0.00    -0.251 OA
ATOM     41  C   UNL     1       4.009   4.882   1.493  0.00  0.00    +0.136 C 
ENDBRANCH  38  39
ENDBRANCH  33  38
ENDBRANCH   5  30
TORSDOF 8
