REMARK  Name = ZINC22001661
REMARK  13 active torsions:
REMARK  status: ('A' for Active; 'I' for Inactive)
REMARK    1  A    between atoms: C_1  and  C_2
REMARK    2  A    between atoms: C_2  and  C_4
REMARK    3  A    between atoms: C_2  and  O_29
REMARK    4  A    between atoms: C_10  and  C_28
REMARK    5  A    between atoms: C_15  and  C_16
REMARK    6  A    between atoms: C_19  and  O_27
REMARK    7  A    between atoms: C_22  and  O_26
REMARK    8  A    between atoms: O_29  and  C_30
REMARK    9  A    between atoms: C_30  and  C_31
REMARK   10  A    between atoms: C_31  and  C_32
REMARK   11  A    between atoms: C_32  and  C_33
REMARK   12  A    between atoms: C_32  and  C_34
REMARK   13  A    between atoms: C_32  and  O_35
REMARK                            x       y       z     vdW  Elec       q    Type
REMARK                         _______ _______ _______ _____ _____    ______ ____
ROOT
ATOM      1  C   UNL     1      -4.138   0.489   1.329  0.00  0.00    +0.024 C 
ATOM      2  C   UNL     1      -3.225  -0.583   0.679  0.00  0.00    +0.007 C 
ATOM      3  C   UNL     1      -1.873   0.122   0.373  0.00  0.00    +0.009 C 
ATOM      4  C   UNL     1      -2.275   1.595   0.271  0.00  0.00    +0.021 C 
ATOM      5  C   UNL     1      -3.269   1.735   1.459  0.00  0.00    -0.020 C 
ATOM      6  C   UNL     1      -3.920   3.094   1.352  0.00  0.00    +0.008 C 
ATOM      7  C   UNL     1      -2.838   4.150   1.632  0.00  0.00    +0.005 C 
ATOM      8  C   UNL     1      -1.677   4.046   0.653  0.00  0.00    +0.031 C 
ATOM      9  C   UNL     1      -1.198   2.607   0.527  0.00  0.00    -0.066 C 
ATOM     10  C   UNL     1       0.086   2.269   0.641  0.00  0.00    -0.000 C 
ATOM     11  C   UNL     1      -2.492   1.662   2.775  0.00  0.00    +0.012 C 
ENDROOT
BRANCH  10  12
ATOM     12  C   UNL     1       1.096   3.301   0.886  0.00  0.00    +0.004 C 
ATOM     13  C   UNL     1       2.397   2.959   0.996  0.00  0.00    -0.040 C 
ATOM     14  C   UNL     1       2.853   1.520   0.873  0.00  0.00    +0.067 C 
ATOM     15  C   UNL     1       3.823   1.221   2.021  0.00  0.00    +0.122 C 
ATOM     16  C   UNL     1       5.001   2.195   1.971  0.00  0.00    +0.067 C 
ATOM     17  C   UNL     1       4.511   3.618   2.260  0.00  0.00    +0.147 C 
ATOM     18  C   UNL     1       3.446   3.972   1.236  0.00  0.00    -0.023 C 
ATOM     19  C   UNL     1       3.454   5.137   0.588  0.00  0.00    +0.015 C 
BRANCH  17  20
ATOM     20  O   UNL     1       5.602   4.534   2.153  0.00  0.00    -0.387 OA
ATOM     21  H   UNL     1       5.438   5.607   2.328  0.00  0.00    +0.210 HD
ENDBRANCH  17  20
BRANCH  15  22
ATOM     22  O   UNL     1       4.308  -0.117   1.898  0.00  0.00    -0.391 OA
ATOM     23  H   UNL     1       5.020  -0.515   2.636  0.00  0.00    +0.210 HD
ENDBRANCH  15  22
ENDBRANCH  10  12
BRANCH   1  25
ATOM     24  C   UNL     1      -6.220  -0.461   0.329  0.00  0.00    +0.038 C 
ATOM     25  C   UNL     1      -5.337   0.785   0.427  0.00  0.00    +0.119 C 
BRANCH  25  26
ATOM     26  O   UNL     1      -4.876   1.146  -0.876  0.00  0.00    -0.376 OA
BRANCH  26  27
ATOM     27  C   UNL     1      -5.739   2.050  -1.569  0.00  0.00    +0.163 C 
BRANCH  27  28
ATOM     28  C   UNL     1      -5.149   2.365  -2.945  0.00  0.00    +0.062 C 
BRANCH  28  29
ATOM     29  C   UNL     1      -6.073   3.334  -3.686  0.00  0.00    +0.063 C 
ATOM     30  C   UNL     1      -5.549   3.552  -5.107  0.00  0.00    +0.041 C 
ATOM     31  C   UNL     1      -7.484   2.746  -3.747  0.00  0.00    +0.041 C 
BRANCH  29  32
ATOM     32  O   UNL     1      -6.107   4.584  -2.994  0.00  0.00    -0.389 OA
ATOM     33  H   UNL     1      -6.722   5.410  -3.380  0.00  0.00    +0.210 HD
ENDBRANCH  29  32
ENDBRANCH  28  29
ENDBRANCH  27  28
ENDBRANCH  26  27
ENDBRANCH  25  26
ENDBRANCH   1  25
TORSDOF 9
