REMARK  Name = ZINC02443321
REMARK  7 active torsions:
REMARK  status: ('A' for Active; 'I' for Inactive)
REMARK    1  A    between atoms: C_1  and  N_53
REMARK    2  A    between atoms: C_2  and  C_3
REMARK    3  A    between atoms: C_2  and  N_53
REMARK    4  A    between atoms: C_4  and  C_14
REMARK    5  A    between atoms: N_16  and  N_17
REMARK    6  A    between atoms: C_18  and  C_19
REMARK    7  A    between atoms: C_24  and  N_53
REMARK                            x       y       z     vdW  Elec       q    Type
REMARK                         _______ _______ _______ _____ _____    ______ ____
ROOT
ATOM      1  C   UNL     1       3.121  -2.200  -0.045  0.00  0.00    +0.063 A 
ATOM      2  C   UNL     1       3.084  -3.566  -0.047  0.00  0.00    +0.170 A 
ATOM      3  N   UNL     1       1.798  -3.957  -0.038  0.00  0.00    -0.124 NA
ATOM      4  N   UNL     1       1.032  -2.922  -0.025  0.00  0.00    -0.058 NA
ATOM      5  N   UNL     1       1.838  -1.775  -0.025  0.00  0.00    -0.194 N 
ATOM      6  C   UNL     1       1.399  -0.446  -0.014  0.00  0.00    +0.240 A 
ATOM      7  C   UNL     1       0.002  -0.004   0.002  0.00  0.00    +0.206 A 
ATOM      8  N   UNL     1      -0.016   1.300   0.009  0.00  0.00    -0.032 NA
ATOM      9  O   UNL     1       1.327   1.753  -0.001  0.00  0.00    -0.239 OA
ATOM     10  N   UNL     1       2.164   0.609  -0.015  0.00  0.00    -0.027 NA
ATOM     11  N   UNL     1      -1.114  -0.833   0.009  0.00  0.00    -0.337 N 
ATOM     12  H   UNL     1      -2.004  -0.448   0.019  0.00  0.00    +0.144 HD
ATOM     13  H   UNL     1      -1.002  -1.797   0.003  0.00  0.00    +0.144 HD
ENDROOT
BRANCH   2  14
ATOM     14  C   UNL     1       4.257  -4.460  -0.063  0.00  0.00    +0.285 C 
ATOM     15  O   UNL     1       5.379  -3.991  -0.071  0.00  0.00    -0.267 OA
ATOM     16  N   UNL     1       4.085  -5.797  -0.070  0.00  0.00    -0.202 N 
ATOM     17  H   UNL     1       3.190  -6.170  -0.064  0.00  0.00    +0.178 HD
BRANCH  16  18
ATOM     18  N   UNL     1       5.199  -6.646  -0.085  0.00  0.00    -0.187 NA
ATOM     19  C   UNL     1       5.033  -7.936  -0.091  0.00  0.00    +0.145 C 
BRANCH  19  20
ATOM     20  C   UNL     1       6.199  -8.825  -0.107  0.00  0.00    +0.032 A 
ATOM     21  C   UNL     1       6.241 -10.209  -0.116  0.00  0.00    +0.017 A 
ATOM     22  C   UNL     1       7.471 -10.825  -0.131  0.00  0.00    +0.008 A 
ATOM     23  C   UNL     1       8.596 -10.064  -0.137  0.00  0.00    +0.046 A 
ATOM     24  S   UNL     1       7.934  -8.406  -0.129  0.00  0.00    -0.096 S 
ENDBRANCH  19  20
ENDBRANCH  16  18
ENDBRANCH   2  14
BRANCH   1  25
ATOM     25  C   UNL     1       4.355  -1.335  -0.060  0.00  0.00    -0.020 C 
BRANCH  25  27
ATOM     26  C   UNL     1       5.219  -2.288   1.991  0.00  0.00    -0.095 C 
ATOM     27  N   UNL     1       4.753  -1.049   1.335  0.00  0.00    +0.383 N 
ATOM     28  H   UNL     1       3.939  -0.686   1.846  0.00  0.00    -0.081 HD
BRANCH  27  29
ATOM     29  C   UNL     1       5.825  -0.032   1.355  0.00  0.00    -0.068 C 
ATOM     30  C   UNL     1       7.083  -0.565   0.667  0.00  0.00    -0.015 C 
ATOM     31  C   UNL     1       8.177   0.504   0.704  0.00  0.00    -0.002 C 
ATOM     32  C   UNL     1       8.500   0.854   2.158  0.00  0.00    -0.000 C 
ATOM     33  C   UNL     1       7.242   1.387   2.846  0.00  0.00    -0.002 C 
ATOM     34  C   UNL     1       6.149   0.318   2.809  0.00  0.00    -0.015 C 
ENDBRANCH  27  29
ENDBRANCH  25  27
ENDBRANCH   1  25
TORSDOF 6
