REMARK  Name = ZINC09542670
REMARK  7 active torsions:
REMARK  status: ('A' for Active; 'I' for Inactive)
REMARK    1  A    between atoms: C_1  and  C_2
REMARK    2  A    between atoms: C_2  and  O_3
REMARK    3  A    between atoms: O_3  and  C_4
REMARK    4  A    between atoms: C_8  and  C_11
REMARK    5  A    between atoms: C_9  and  O_10
REMARK    6  A    between atoms: C_14  and  C_25
REMARK    7  A    between atoms: C_16  and  C_18
REMARK                            x       y       z     vdW  Elec       q    Type
REMARK                         _______ _______ _______ _____ _____    ______ ____
ROOT
ATOM      1  C   UNL     1       7.634   3.383   0.266  0.00  0.00    -0.028 C 
ATOM      2  C   UNL     1       6.126   3.558   0.052  0.00  0.00    +0.044 C 
ATOM      3  C   UNL     1       5.512   2.228  -0.288  0.00  0.00    +0.040 C 
ATOM      4  N   UNL     1       6.201   1.216  -0.665  0.00  0.00    -0.299 NA
ATOM      5  C   UNL     1       7.652   1.217  -0.796  0.00  0.00    +0.081 C 
ATOM      6  N   UNL     1       8.169   2.593  -0.860  0.00  0.00    +0.401 N 
ATOM      7  H   UNL     1       9.194   2.574  -0.806  0.00  0.00    -0.081 HD
ATOM      8  H   UNL     1       7.881   3.024  -1.746  0.00  0.00    -0.081 HD
ENDROOT
BRANCH   3   9
ATOM      9  C   UNL     1       4.048   2.084  -0.189  0.00  0.00    -0.001 A 
ATOM     10  C   UNL     1       3.264   3.166   0.219  0.00  0.00    +0.013 A 
ATOM     11  C   UNL     1       1.896   3.029   0.311  0.00  0.00    +0.050 A 
ATOM     12  C   UNL     1       1.292   1.818  -0.001  0.00  0.00    +0.166 A 
ATOM     13  C   UNL     1       2.069   0.734  -0.408  0.00  0.00    +0.167 A 
ATOM     14  C   UNL     1       3.441   0.865  -0.502  0.00  0.00    +0.059 A 
ATOM     15  O   UNL     1       1.244  -0.326  -0.651  0.00  0.00    -0.453 OA
ATOM     16  C   UNL     1       0.002  -0.004   0.002  0.00  0.00    +0.466 C 
ATOM     17  O   UNL     1      -0.017   1.435   0.010  0.00  0.00    -0.453 OA
ENDBRANCH   3   9
BRANCH   5  18
ATOM     18  C   UNL     1       8.037   0.489  -2.058  0.00  0.00    -0.038 A 
ATOM     19  C   UNL     1       7.241  -0.536  -2.534  0.00  0.00    +0.004 A 
ATOM     20  C   UNL     1       7.593  -1.205  -3.691  0.00  0.00    +0.003 A 
ATOM     21  C   UNL     1       8.742  -0.851  -4.373  0.00  0.00    +0.038 A 
ATOM     22  C   UNL     1       9.540   0.175  -3.897  0.00  0.00    +0.124 A 
ATOM     23  C   UNL     1       9.184   0.848  -2.740  0.00  0.00    +0.042 A 
ATOM     24  F   UNL     1      10.664   0.522  -4.562  0.00  0.00    -0.205 F 
ENDBRANCH   5  18
BRANCH   1  29
ATOM     25  C   UNL     1       8.998   6.686   1.514  0.00  0.00    +0.162 A 
ATOM     26  C   UNL     1       9.532   7.216   0.350  0.00  0.00    +0.049 A 
ATOM     27  C   UNL     1       9.450   6.506  -0.834  0.00  0.00    +0.004 A 
ATOM     28  C   UNL     1       8.841   5.265  -0.858  0.00  0.00    +0.006 A 
ATOM     29  C   UNL     1       8.302   4.733   0.298  0.00  0.00    -0.016 A 
ATOM     30  C   UNL     1       8.381   5.439   1.488  0.00  0.00    +0.160 A 
BRANCH  30  31
ATOM     31  O   UNL     1       7.856   4.915   2.627  0.00  0.00    -0.503 OA
ATOM     32  H   UNL     1       8.478   4.376   3.135  0.00  0.00    +0.292 HD
ENDBRANCH  30  31
BRANCH  25  33
ATOM     33  O   UNL     1       9.078   7.383   2.679  0.00  0.00    -0.489 OA
BRANCH  33  35
ATOM     34  C   UNL     1       9.719   9.285   4.024  0.00  0.00    +0.048 C 
ATOM     35  C   UNL     1       9.726   8.656   2.630  0.00  0.00    +0.226 C 
ENDBRANCH  33  35
ENDBRANCH  25  33
ENDBRANCH   1  29
TORSDOF 6
