REMARK  Name = ZINC39684536
REMARK  12 active torsions:
REMARK  status: ('A' for Active; 'I' for Inactive)
REMARK    1  A    between atoms: C_1  and  C_2
REMARK    2  A    between atoms: C_3  and  C_12
REMARK    3  A    between atoms: C_7  and  O_8
REMARK    4  A    between atoms: O_8  and  C_9
REMARK    5  A    between atoms: C_9  and  C_11
REMARK    6  A    between atoms: C_16  and  C_25
REMARK    7  A    between atoms: N_27  and  C_28
REMARK    8  A    between atoms: C_28  and  C_30
REMARK    9  A    between atoms: C_28  and  C_31
REMARK   10  A    between atoms: C_31  and  C_32
REMARK   11  A    between atoms: C_31  and  C_33
REMARK   12  A    between atoms: C_31  and  C_34
REMARK                            x       y       z     vdW  Elec       q    Type
REMARK                         _______ _______ _______ _____ _____    ______ ____
ROOT
ATOM      1  C   UNL     1      -0.368   0.005  -2.843  0.00  0.00    +0.247 C 
ATOM      2  O   UNL     1      -0.320   1.212  -2.984  0.00  0.00    -0.270 OA
ATOM      3  N   UNL     1      -0.548  -0.792  -3.914  0.00  0.00    -0.296 N 
ATOM      4  C   UNL     1      -0.758  -2.259  -3.929  0.00  0.00    +0.121 C 
ATOM      5  C   UNL     1      -1.818  -2.490  -5.030  0.00  0.00    +0.100 C 
ATOM      6  C   UNL     1      -1.695  -1.268  -5.955  0.00  0.00    -0.004 C 
ATOM      7  C   UNL     1      -0.587  -0.400  -5.343  0.00  0.00    +0.115 C 
ATOM      8  C   UNL     1      -3.009  -0.494  -5.985  0.00  0.00    -0.010 C 
ATOM      9  C   UNL     1      -2.880   0.684  -6.956  0.00  0.00    -0.082 C 
ATOM     10  N   UNL     1      -2.555   0.181  -8.296  0.00  0.00    +0.379 N 
ATOM     11  C   UNL     1      -1.246  -0.482  -8.278  0.00  0.00    -0.082 C 
ATOM     12  C   UNL     1      -1.305  -1.709  -7.363  0.00  0.00    -0.010 C 
ATOM     13  H   UNL     1      -3.261  -0.478  -8.587  0.00  0.00    -0.086 HD
ATOM     14  H   UNL     1      -2.531   0.953  -8.946  0.00  0.00    -0.086 HD
ENDROOT
BRANCH   1  17
ATOM     15  C   UNL     1      -1.481   1.382  -0.554  0.00  0.00    +0.048 C 
ATOM     16  C   UNL     1      -0.762   0.068  -0.384  0.00  0.00    +0.004 A 
ATOM     17  C   UNL     1      -0.229  -0.587  -1.495  0.00  0.00    +0.043 A 
ATOM     18  C   UNL     1       0.435  -1.803  -1.329  0.00  0.00    +0.013 A 
ATOM     19  C   UNL     1       0.563  -2.353  -0.070  0.00  0.00    +0.004 A 
ATOM     20  C   UNL     1       0.034  -1.703   1.030  0.00  0.00    +0.047 A 
ATOM     21  C   UNL     1      -0.624  -0.490   0.875  0.00  0.00    +0.135 A 
BRANCH  21  22
ATOM     22  O   UNL     1      -1.138   0.147   1.961  0.00  0.00    -0.426 OA
BRANCH  22  23
ATOM     23  C   UNL     1      -0.471   1.208   2.443  0.00  0.00    +0.309 C 
ATOM     24  O   UNL     1       0.600   1.513   1.973  0.00  0.00    -0.251 OA
ATOM     25  C   UNL     1      -1.057   2.018   3.571  0.00  0.00    +0.136 C 
ENDBRANCH  22  23
ENDBRANCH  21  22
ENDBRANCH   1  17
BRANCH   5  26
ATOM     26  C   UNL     1      -3.197  -2.557  -4.425  0.00  0.00    +0.218 C 
ATOM     27  O   UNL     1      -3.472  -1.869  -3.465  0.00  0.00    -0.275 OA
ATOM     28  N   UNL     1      -4.124  -3.381  -4.952  0.00  0.00    -0.312 N 
ATOM     29  H   UNL     1      -3.905  -3.931  -5.720  0.00  0.00    +0.149 HD
BRANCH  28  30
ATOM     30  C   UNL     1      -5.465  -3.446  -4.364  0.00  0.00    +0.075 C 
ATOM     31  C   UNL     1      -6.333  -2.331  -4.951  0.00  0.00    +0.028 C 
BRANCH  30  32
ATOM     32  C   UNL     1      -6.095  -4.803  -4.679  0.00  0.00    -0.020 C 
ATOM     33  C   UNL     1      -5.226  -5.918  -4.092  0.00  0.00    +0.012 C 
ATOM     34  C   UNL     1      -7.495  -4.871  -4.066  0.00  0.00    +0.012 C 
ATOM     35  C   UNL     1      -6.194  -4.979  -6.196  0.00  0.00    +0.012 C 
ENDBRANCH  30  32
ENDBRANCH  28  30
ENDBRANCH   5  26
TORSDOF 6
