REMARK  Name = ZINC39290024
REMARK  5 active torsions:
REMARK  status: ('A' for Active; 'I' for Inactive)
REMARK    1  A    between atoms: C_4  and  C_7
REMARK    2  A    between atoms: C_7  and  N_8
REMARK    3  A    between atoms: C_9  and  C_15
REMARK    4  A    between atoms: N_18  and  C_22
REMARK    5  A    between atoms: C_19  and  N_21
REMARK                            x       y       z     vdW  Elec       q    Type
REMARK                         _______ _______ _______ _____ _____    ______ ____
ROOT
ATOM      1  C   UNL     1       6.344   0.120   1.562  0.00  0.00    -0.007 C 
ATOM      2  C   UNL     1       6.758  -0.385   0.419  0.00  0.00    +0.090 C 
ATOM      3  N   UNL     1       8.054  -0.008   0.128  0.00  0.00    -0.272 N 
ATOM      4  N   UNL     1       8.562   0.813   1.145  0.00  0.00    -0.264 N 
ATOM      5  C   UNL     1       7.476   0.947   2.130  0.00  0.00    +0.066 C 
ATOM      6  H   UNL     1       8.544  -0.273  -0.666  0.00  0.00    +0.169 HD
ENDROOT
BRANCH   1   8
ATOM      7  N   UNL     1       4.152  -0.952   1.338  0.00  0.00    -0.280 N 
ATOM      8  C   UNL     1       4.988  -0.083   2.187  0.00  0.00    +0.240 C 
ATOM      9  N   UNL     1       5.104  -0.829   3.449  0.00  0.00    -0.191 NA
ATOM     10  N   UNL     1       4.473  -1.883   3.332  0.00  0.00    -0.221 N 
ATOM     11  C   UNL     1       3.878  -2.023   2.115  0.00  0.00    +0.154 C 
ATOM     12  S   UNL     1       2.927  -3.364   1.638  0.00  0.00    -0.017 S 
ATOM     13  H   UNL     1       4.404  -2.543   4.038  0.00  0.00    +0.176 HD
BRANCH   7  14
ATOM     14  C   UNL     1       3.711  -0.707  -0.038  0.00  0.00    +0.144 C 
BRANCH  14  18
ATOM     15  C   UNL     1      -0.017   1.378   0.010  0.00  0.00    +0.000 A 
ATOM     16  C   UNL     1       1.171   2.086   0.002  0.00  0.00    +0.000 A 
ATOM     17  C   UNL     1       2.377   1.411  -0.013  0.00  0.00    +0.005 A 
ATOM     18  C   UNL     1       2.396   0.029  -0.020  0.00  0.00    -0.030 A 
ATOM     19  C   UNL     1       1.208  -0.679  -0.012  0.00  0.00    +0.005 A 
ATOM     20  C   UNL     1       0.002  -0.004   0.002  0.00  0.00    +0.000 A 
ENDBRANCH  14  18
ENDBRANCH   7  14
ENDBRANCH   1   8
BRANCH   4  21
ATOM     21  C   UNL     1       9.833   1.389   1.208  0.00  0.00    +0.046 A 
ATOM     22  C   UNL     1      10.186   2.179   2.295  0.00  0.00    +0.024 A 
ATOM     23  C   UNL     1      11.444   2.747   2.354  0.00  0.00    +0.002 A 
ATOM     24  C   UNL     1      12.351   2.530   1.333  0.00  0.00    +0.000 A 
ATOM     25  C   UNL     1      12.002   1.745   0.249  0.00  0.00    +0.002 A 
ATOM     26  C   UNL     1      10.748   1.169   0.187  0.00  0.00    +0.024 A 
ENDBRANCH   4  21
BRANCH   5  27
ATOM     27  N   UNL     1       7.898   0.412   3.431  0.00  0.00    +0.394 N 
ATOM     28  H   UNL     1       8.212  -0.540   3.317  0.00  0.00    -0.087 HD
ATOM     29  H   UNL     1       8.653   0.973   3.797  0.00  0.00    -0.087 HD
ATOM     30  H   UNL     1       7.120   0.435   4.073  0.00  0.00    -0.087 HD
ENDBRANCH   5  27
TORSDOF 5
