REMARK  Name = ZINC09119950
REMARK  9 active torsions:
REMARK  status: ('A' for Active; 'I' for Inactive)
REMARK    1  A    between atoms: N_7  and  C_15
REMARK    2  A    between atoms: C_15  and  C_16
REMARK    3  A    between atoms: C_16  and  C_17
REMARK    4  A    between atoms: C_17  and  O_19
REMARK    5  A    between atoms: O_19  and  C_20
REMARK    6  A    between atoms: C_20  and  C_21
REMARK    7  A    between atoms: N_23  and  C_24
REMARK    8  A    between atoms: C_27  and  S_30
REMARK    9  A    between atoms: S_30  and  N_33
REMARK                            x       y       z     vdW  Elec       q    Type
REMARK                         _______ _______ _______ _____ _____    ______ ____
ROOT
ATOM      1  C   UNL     1       4.781   1.540   0.162  0.00  0.00    +0.309 C 
ATOM      2  O   UNL     1       4.992   0.354   0.249  0.00  0.00    -0.251 OA
ENDROOT
BRANCH   1   3
ATOM      3  C   UNL     1       5.934   2.511   0.145  0.00  0.00    +0.140 C 
BRANCH   3   4
ATOM      4  C   UNL     1       7.251   1.740   0.249  0.00  0.00    +0.122 C 
BRANCH   4  11
ATOM      5  C   UNL     1       9.363   2.919   3.768  0.00  0.00    +0.002 A 
ATOM      6  C   UNL     1       9.780   4.235   3.844  0.00  0.00    +0.001 A 
ATOM      7  C   UNL     1       9.732   5.044   2.721  0.00  0.00    +0.017 A 
ATOM      8  C   UNL     1       9.266   4.531   1.526  0.00  0.00    +0.034 A 
ATOM      9  C   UNL     1       8.843   3.202   1.443  0.00  0.00    +0.048 A 
ATOM     10  C   UNL     1       8.895   2.401   2.573  0.00  0.00    +0.024 A 
ATOM     11  N   UNL     1       8.372   2.684   0.232  0.00  0.00    -0.298 N 
ATOM     12  C   UNL     1       8.944   3.038  -0.995  0.00  0.00    +0.048 A 
ATOM     13  C   UNL     1       9.079   2.100  -2.003  0.00  0.00    +0.024 A 
ATOM     14  C   UNL     1       9.644   2.461  -3.214  0.00  0.00    +0.002 A 
ATOM     15  C   UNL     1      10.074   3.757  -3.427  0.00  0.00    +0.001 A 
ATOM     16  C   UNL     1       9.941   4.706  -2.427  0.00  0.00    +0.017 A 
ATOM     17  C   UNL     1       9.377   4.351  -1.216  0.00  0.00    +0.034 A 
ATOM     18  S   UNL     1       9.193   5.538   0.078  0.00  0.00    -0.086 S 
ENDBRANCH   4  11
ENDBRANCH   3   4
ENDBRANCH   1   3
BRANCH   1  19
ATOM     19  O   UNL     1       3.520   1.994   0.082  0.00  0.00    -0.455 OA
BRANCH  19  20
ATOM     20  C   UNL     1       2.460   1.002   0.104  0.00  0.00    +0.328 C 
BRANCH  20  21
ATOM     21  C   UNL     1       1.124   1.692   0.005  0.00  0.00    +0.255 C 
ATOM     22  O   UNL     1       1.071   2.901  -0.076  0.00  0.00    -0.272 OA
ATOM     23  N   UNL     1      -0.011   0.966   0.007  0.00  0.00    -0.283 N 
ATOM     24  H   UNL     1       0.033  -0.003   0.005  0.00  0.00    +0.155 HD
BRANCH  23  25
ATOM     25  C   UNL     1      -1.253   1.610   0.007  0.00  0.00    +0.034 A 
ATOM     26  C   UNL     1      -2.325   1.055   0.695  0.00  0.00    +0.025 A 
ATOM     27  C   UNL     1      -3.548   1.696   0.698  0.00  0.00    +0.030 A 
ATOM     28  C   UNL     1      -3.710   2.883   0.008  0.00  0.00    +0.105 A 
ATOM     29  C   UNL     1      -2.647   3.435  -0.683  0.00  0.00    +0.030 A 
ATOM     30  C   UNL     1      -1.419   2.802  -0.685  0.00  0.00    +0.025 A 
BRANCH  28  31
ATOM     31  S   UNL     1      -5.274   3.695   0.008  0.00  0.00    +0.056 S 
ATOM     32  O   UNL     1      -5.957   3.260   1.176  0.00  0.00    -0.153 OA
ATOM     33  O   UNL     1      -5.020   5.067  -0.259  0.00  0.00    -0.153 OA
BRANCH  31  34
ATOM     34  N   UNL     1      -6.128   3.111  -1.285  0.00  0.00    -0.204 NA
ATOM     35  H   UNL     1      -5.732   2.443  -1.867  0.00  0.00    +0.144 HD
ATOM     36  H   UNL     1      -7.025   3.436  -1.460  0.00  0.00    +0.144 HD
ENDBRANCH  31  34
ENDBRANCH  28  31
ENDBRANCH  23  25
ENDBRANCH  20  21
ENDBRANCH  19  20
ENDBRANCH   1  19
TORSDOF 9
