REMARK  Name = ZINC35789112
REMARK  14 active torsions:
REMARK  status: ('A' for Active; 'I' for Inactive)
REMARK    1  A    between atoms: C_1  and  C_2
REMARK    2  A    between atoms: C_3  and  C_21
REMARK    3  A    between atoms: C_4  and  O_13
REMARK    4  A    between atoms: N_5  and  C_7
REMARK    5  A    between atoms: O_13  and  C_14
REMARK    6  A    between atoms: C_21  and  N_22
REMARK    7  A    between atoms: N_22  and  C_23
REMARK    8  A    between atoms: N_22  and  C_36
REMARK    9  A    between atoms: C_23  and  C_24
REMARK   10  A    between atoms: C_24  and  C_26
REMARK   11  A    between atoms: C_24  and  O_35
REMARK   12  A    between atoms: C_26  and  O_27
REMARK   13  A    between atoms: O_27  and  C_28
REMARK   14  A    between atoms: C_28  and  C_29
REMARK                            x       y       z     vdW  Elec       q    Type
REMARK                         _______ _______ _______ _____ _____    ______ ____
ROOT
ATOM      1  C   UNL     1       0.377  -3.420  -2.038  0.00  0.00    +0.068 C 
ATOM      2  C   UNL     1      -0.493  -2.815  -3.110  0.00  0.00    +0.065 A 
ATOM      3  C   UNL     1      -0.676  -1.448  -3.340  0.00  0.00    +0.021 A 
ATOM      4  C   UNL     1      -1.529  -1.312  -4.390  0.00  0.00    +0.225 A 
ATOM      5  N   UNL     1      -1.870  -2.562  -4.804  0.00  0.00    -0.200 N 
ATOM      6  N   UNL     1      -1.201  -3.481  -3.986  0.00  0.00    -0.168 NA
ENDROOT
BRANCH   5   7
ATOM      7  C   UNL     1      -2.733  -2.874  -5.864  0.00  0.00    +0.069 A 
ATOM      8  C   UNL     1      -3.918  -2.168  -6.027  0.00  0.00    +0.028 A 
ATOM      9  C   UNL     1      -4.766  -2.478  -7.072  0.00  0.00    +0.002 A 
ATOM     10  C   UNL     1      -4.436  -3.489  -7.956  0.00  0.00    +0.000 A 
ATOM     11  C   UNL     1      -3.256  -4.194  -7.796  0.00  0.00    +0.002 A 
ATOM     12  C   UNL     1      -2.402  -3.885  -6.756  0.00  0.00    +0.028 A 
ENDBRANCH   5   7
BRANCH   4  13
ATOM     13  O   UNL     1      -1.962  -0.142  -4.926  0.00  0.00    -0.435 OA
BRANCH  13  14
ATOM     14  C   UNL     1      -3.055   0.447  -4.374  0.00  0.00    +0.165 A 
ATOM     15  C   UNL     1      -3.628  -0.086  -3.229  0.00  0.00    +0.049 A 
ATOM     16  C   UNL     1      -4.740   0.514  -2.669  0.00  0.00    +0.004 A 
ATOM     17  C   UNL     1      -5.282   1.646  -3.249  0.00  0.00    +0.003 A 
ATOM     18  C   UNL     1      -4.715   2.181  -4.391  0.00  0.00    +0.042 A 
ATOM     19  C   UNL     1      -3.598   1.587  -4.953  0.00  0.00    +0.165 A 
ATOM     20  F   UNL     1      -3.040   2.112  -6.065  0.00  0.00    -0.202 F 
ENDBRANCH  13  14
ENDBRANCH   4  13
BRANCH   3  21
ATOM     21  C   UNL     1      -0.040  -0.325  -2.562  0.00  0.00    -0.035 C 
BRANCH  21  22
ATOM     22  N   UNL     1       1.309  -0.071  -3.084  0.00  0.00    +0.386 N 
ATOM     23  H   UNL     1       1.839  -0.929  -3.079  0.00  0.00    -0.081 HD
BRANCH  22  24
ATOM     24  C   UNL     1       1.982   0.924  -2.238  0.00  0.00    -0.068 C 
ATOM     25  C   UNL     1       3.422   0.633  -1.812  0.00  0.00    -0.017 C 
ATOM     26  C   UNL     1       2.288   0.531  -0.791  0.00  0.00    -0.017 C 
ENDBRANCH  22  24
BRANCH  22  27
ATOM     27  C   UNL     1       1.215   0.439  -4.458  0.00  0.00    -0.044 C 
BRANCH  27  28
ATOM     28  C   UNL     1       2.620   0.586  -5.045  0.00  0.00    +0.124 C 
BRANCH  28  29
ATOM     29  O   UNL     1       3.225  -0.703  -5.161  0.00  0.00    -0.391 OA
ATOM     30  H   UNL     1       2.741  -1.316  -5.731  0.00  0.00    +0.210 HD
ENDBRANCH  28  29
BRANCH  28  31
ATOM     31  C   UNL     1       2.529   1.233  -6.429  0.00  0.00    +0.189 C 
BRANCH  31  32
ATOM     32  O   UNL     1       3.846   1.477  -6.928  0.00  0.00    -0.373 OA
BRANCH  32  33
ATOM     33  C   UNL     1       3.874   2.082  -8.222  0.00  0.00    +0.195 C 
BRANCH  33  34
ATOM     34  C   UNL     1       5.305   2.293  -8.647  0.00  0.00    -0.022 A 
ATOM     35  C   UNL     1       5.954   3.471  -8.330  0.00  0.00    +0.006 A 
ATOM     36  C   UNL     1       7.266   3.664  -8.720  0.00  0.00    +0.000 A 
ATOM     37  C   UNL     1       7.929   2.678  -9.426  0.00  0.00    +0.000 A 
ATOM     38  C   UNL     1       7.280   1.499  -9.743  0.00  0.00    +0.000 A 
ATOM     39  C   UNL     1       5.970   1.305  -9.349  0.00  0.00    +0.006 A 
ENDBRANCH  33  34
ENDBRANCH  32  33
ENDBRANCH  31  32
ENDBRANCH  28  31
ENDBRANCH  27  28
ENDBRANCH  22  27
ENDBRANCH  21  22
ENDBRANCH   3  21
TORSDOF 13
