REMARK  Name = ZINC51328428
REMARK  6 active torsions:
REMARK  status: ('A' for Active; 'I' for Inactive)
REMARK    1  A    between atoms: C_4  and  N_19
REMARK    2  A    between atoms: C_5  and  C_7
REMARK    3  A    between atoms: C_7  and  C_9
REMARK    4  A    between atoms: C_7  and  O_18
REMARK    5  A    between atoms: C_9  and  S_10
REMARK    6  A    between atoms: S_10  and  C_11
REMARK                            x       y       z     vdW  Elec       q    Type
REMARK                         _______ _______ _______ _____ _____    ______ ____
ROOT
ATOM      1  C   UNL     1       1.226  -2.187  -0.022  0.00  0.00    +0.156 C 
ENDROOT
BRANCH   1   6
ATOM      2  C   UNL     1      -0.017   1.378   0.010  0.00  0.00    +0.000 A 
ATOM      3  C   UNL     1       1.170   2.089   0.002  0.00  0.00    +0.002 A 
ATOM      4  C   UNL     1       2.377   1.420  -0.013  0.00  0.00    +0.023 A 
ATOM      5  C   UNL     1       2.400   0.031  -0.021  0.00  0.00    +0.030 A 
ATOM      6  C   UNL     1       1.207  -0.680  -0.013  0.00  0.00    +0.002 A 
ATOM      7  C   UNL     1       0.002  -0.004   0.002  0.00  0.00    +0.008 A 
BRANCH   5   8
ATOM      8  N   UNL     1       3.620  -0.649  -0.036  0.00  0.00    -0.358 N 
ATOM      9  H   UNL     1       4.452  -0.152  -0.042  0.00  0.00    +0.142 HD
ATOM     10  H   UNL     1       3.634  -1.619  -0.042  0.00  0.00    +0.142 HD
ENDBRANCH   5   8
ENDBRANCH   1   6
BRANCH   1  11
ATOM     11  O   UNL     1       0.017  -2.682   0.557  0.00  0.00    -0.386 OA
ATOM     12  H   UNL     1      -0.784  -2.404   0.091  0.00  0.00    +0.210 HD
ENDBRANCH   1  11
BRANCH   1  13
ATOM     13  C   UNL     1       1.344  -2.687  -1.463  0.00  0.00    +0.113 C 
BRANCH  13  14
ATOM     14  S   UNL     1       1.368  -4.501  -1.473  0.00  0.00    -0.083 S 
BRANCH  14  15
ATOM     15  C   UNL     1       1.506  -4.915  -3.180  0.00  0.00    +0.192 A 
ATOM     16  N   UNL     1       1.549  -6.192  -3.534  0.00  0.00    -0.230 NA
ATOM     17  C   UNL     1       1.652  -6.541  -4.807  0.00  0.00    +0.119 A 
ATOM     18  C   UNL     1       1.715  -5.557  -5.775  0.00  0.00    +0.092 A 
ATOM     19  C   UNL     1       1.667  -4.223  -5.372  0.00  0.00    +0.274 A 
ATOM     20  N   UNL     1       1.558  -3.943  -4.080  0.00  0.00    -0.183 NA
ATOM     21  O   UNL     1       1.726  -3.226  -6.288  0.00  0.00    -0.266 OA
ENDBRANCH  14  15
ENDBRANCH  13  14
ENDBRANCH   1  13
TORSDOF 6
