REMARK  Name = ZINC66925792
REMARK  5 active torsions:
REMARK  status: ('A' for Active; 'I' for Inactive)
REMARK    1  A    between atoms: C_10  and  C_11
REMARK    2  A    between atoms: C_10  and  O_29
REMARK    3  A    between atoms: C_11  and  N_12
REMARK    4  A    between atoms: N_15  and  N_16
REMARK    5  A    between atoms: C_17  and  C_19
REMARK                            x       y       z     vdW  Elec       q    Type
REMARK                         _______ _______ _______ _____ _____    ______ ____
ROOT
ATOM      1  N   UNL     1       4.733   1.477  -0.622  0.00  0.00    -0.295 N 
ATOM      2  C   UNL     1       5.418   2.343  -1.394  0.00  0.00    +0.316 C 
ATOM      3  O   UNL     1       5.985   1.948  -2.395  0.00  0.00    -0.251 OA
ATOM      4  N   UNL     1       5.475   3.647  -1.058  0.00  0.00    -0.218 N 
ATOM      5  H   UNL     1       4.281   1.792   0.177  0.00  0.00    +0.150 HD
ATOM      6  H   UNL     1       5.968   4.270  -1.614  0.00  0.00    +0.174 HD
ENDROOT
BRANCH   4   7
ATOM      7  N   UNL     1       4.823   4.102   0.095  0.00  0.00    -0.230 N 
ATOM      8  C   UNL     1       4.880   5.406   0.431  0.00  0.00    +0.270 C 
ATOM      9  O   UNL     1       5.497   6.185  -0.264  0.00  0.00    -0.270 OA
ATOM     10  H   UNL     1       4.330   3.479   0.651  0.00  0.00    +0.173 HD
BRANCH   8  11
ATOM     11  C   UNL     1       4.178   5.896   1.672  0.00  0.00    +0.264 C 
ATOM     12  C   UNL     1       2.643   5.793   1.509  0.00  0.00    +0.093 C 
ATOM     13  C   UNL     1       2.167   7.032   2.242  0.00  0.00    -0.002 A 
ATOM     14  C   UNL     1       0.928   7.409   2.713  0.00  0.00    +0.007 A 
ATOM     15  C   UNL     1       0.776   8.619   3.366  0.00  0.00    +0.000 A 
ATOM     16  C   UNL     1       1.870   9.446   3.543  0.00  0.00    +0.004 A 
ATOM     17  C   UNL     1       3.111   9.072   3.069  0.00  0.00    +0.046 A 
ATOM     18  C   UNL     1       3.271   7.857   2.408  0.00  0.00    +0.125 A 
ATOM     19  O   UNL     1       4.389   7.306   1.853  0.00  0.00    -0.479 OA
ENDBRANCH   8  11
ENDBRANCH   4   7
BRANCH   1  20
ATOM     20  C   UNL     1       4.671   0.060  -0.987  0.00  0.00    +0.145 C 
BRANCH  20  30
ATOM     21  C   UNL     1       3.635  -4.797  -1.159  0.00  0.00    +0.000 A 
ATOM     22  C   UNL     1       3.604  -3.797  -2.113  0.00  0.00    +0.000 A 
ATOM     23  C   UNL     1       3.643  -2.475  -1.720  0.00  0.00    +0.007 A 
ATOM     24  C   UNL     1       3.714  -2.140  -0.374  0.00  0.00    -0.011 A 
ATOM     25  C   UNL     1       3.749  -3.136   0.575  0.00  0.00    -0.041 A 
ATOM     26  C   UNL     1       3.706  -4.467   0.178  0.00  0.00    +0.004 A 
ATOM     27  C   UNL     1       3.843  -2.847   2.051  0.00  0.00    +0.035 C 
ATOM     28  C   UNL     1       3.451  -1.399   2.340  0.00  0.00    +0.008 C 
ATOM     29  C   UNL     1       4.257  -0.485   1.410  0.00  0.00    +0.041 C 
ATOM     30  C   UNL     1       3.746  -0.677  -0.016  0.00  0.00    +0.107 C 
BRANCH  30  31
ATOM     31  O   UNL     1       2.427  -0.138  -0.121  0.00  0.00    -0.382 OA
ATOM     32  H   UNL     1       2.042  -0.209  -1.006  0.00  0.00    +0.211 HD
ENDBRANCH  30  31
ENDBRANCH  20  30
ENDBRANCH   1  20
TORSDOF 5
