REMARK  Name = ZINC12296919
REMARK  6 active torsions:
REMARK  status: ('A' for Active; 'I' for Inactive)
REMARK    1  A    between atoms: C_1  and  C_2
REMARK    2  A    between atoms: C_7  and  C_9
REMARK    3  A    between atoms: C_7  and  C_10
REMARK    4  A    between atoms: C_13  and  C_15
REMARK    5  A    between atoms: C_15  and  C_16
REMARK    6  A    between atoms: C_16  and  N_17
REMARK                            x       y       z     vdW  Elec       q    Type
REMARK                         _______ _______ _______ _____ _____    ______ ____
ROOT
ATOM      1  N   UNL     1       2.465  -3.164  -5.554  0.00  0.00    -0.299 N 
ATOM      2  C   UNL     1       2.732  -4.008  -6.570  0.00  0.00    +0.303 C 
ATOM      3  O   UNL     1       2.157  -5.076  -6.640  0.00  0.00    -0.253 OA
ATOM      4  N   UNL     1       3.637  -3.666  -7.509  0.00  0.00    -0.280 N 
ATOM      5  C   UNL     1       3.861  -4.520  -8.686  0.00  0.00    +0.114 C 
ATOM      6  C   UNL     1       3.445  -3.750  -9.945  0.00  0.00    +0.056 C 
ATOM      7  C   UNL     1       3.998  -2.349  -9.868  0.00  0.00    -0.016 A 
ATOM      8  C   UNL     1       4.170  -1.392 -10.943  0.00  0.00    +0.003 A 
ATOM      9  C   UNL     1       3.901  -1.448 -12.313  0.00  0.00    +0.010 A 
ATOM     10  C   UNL     1       4.197  -0.327 -13.050  0.00  0.00    +0.001 A 
ATOM     11  C   UNL     1       4.737   0.811 -12.473  0.00  0.00    +0.002 A 
ATOM     12  C   UNL     1       5.012   0.893 -11.119  0.00  0.00    +0.026 A 
ATOM     13  C   UNL     1       4.722  -0.229 -10.347  0.00  0.00    +0.047 A 
ATOM     14  N   UNL     1       4.865  -0.484  -9.013  0.00  0.00    -0.356 N 
ATOM     15  C   UNL     1       4.431  -1.754  -8.736  0.00  0.00    +0.038 A 
ATOM     16  H   UNL     1       5.220   0.139  -8.360  0.00  0.00    +0.166 HD
ATOM     17  C   UNL     1       4.422  -2.426  -7.386  0.00  0.00    +0.162 C 
ATOM     18  H   UNL     1       2.975  -2.345  -5.456  0.00  0.00    +0.150 HD
ENDROOT
BRANCH   1  19
ATOM     19  C   UNL     1       1.403  -3.483  -4.596  0.00  0.00    +0.115 C 
BRANCH  19  20
ATOM     20  C   UNL     1       1.307  -2.370  -3.551  0.00  0.00    +0.114 C 
BRANCH  20  32
ATOM     21  C   UNL     1      -0.011   1.530   0.016  0.00  0.00    +0.013 C 
ATOM     22  C   UNL     1       0.007  -0.006   0.005  0.00  0.00    -0.014 C 
ATOM     23  C   UNL     1      -1.423  -0.613  -0.022  0.00  0.00    +0.030 C 
ATOM     24  C   UNL     1      -1.088  -2.043  -0.513  0.00  0.00    +0.077 C 
ATOM     25  C   UNL     1      -0.482  -2.797   0.668  0.00  0.00    +0.029 C 
ATOM     26  C   UNL     1       0.725  -2.111   1.281  0.00  0.00    -0.033 C 
ATOM     27  C   UNL     1       0.729  -0.596   1.216  0.00  0.00    +0.014 C 
ATOM     28  C   UNL     1       0.761  -2.505   2.779  0.00  0.00    +0.011 C 
ATOM     29  C   UNL     1       2.012  -2.670   0.657  0.00  0.00    +0.011 C 
ATOM     30  N   UNL     1      -0.053  -1.855  -1.550  0.00  0.00    -0.298 N 
ATOM     31  C   UNL     1       0.629  -0.578  -1.288  0.00  0.00    +0.114 C 
ATOM     32  C   UNL     1       0.214  -2.699  -2.566  0.00  0.00    +0.217 C 
ATOM     33  O   UNL     1      -0.424  -3.723  -2.688  0.00  0.00    -0.276 OA
ENDBRANCH  20  32
ENDBRANCH  19  20
ENDBRANCH   1  19
TORSDOF 3
