REMARK  Name = ZINC39778809
REMARK  8 active torsions:
REMARK  status: ('A' for Active; 'I' for Inactive)
REMARK    1  A    between atoms: C_4  and  C_7
REMARK    2  A    between atoms: C_7  and  C_9
REMARK    3  A    between atoms: C_7  and  N_20
REMARK    4  A    between atoms: C_9  and  C_11
REMARK    5  A    between atoms: N_20  and  C_21
REMARK    6  A    between atoms: C_21  and  C_22
REMARK    7  A    between atoms: C_22  and  C_23
REMARK    8  A    between atoms: C_23  and  N_24
REMARK                            x       y       z     vdW  Elec       q    Type
REMARK                         _______ _______ _______ _____ _____    ______ ____
ROOT
ATOM      1  C   UNL     1       3.711  -0.707  -0.038  0.00  0.00    +0.156 C 
ENDROOT
BRANCH   1   5
ATOM      2  C   UNL     1      -0.017   1.378   0.010  0.00  0.00    +0.000 A 
ATOM      3  C   UNL     1       1.171   2.086   0.002  0.00  0.00    +0.000 A 
ATOM      4  C   UNL     1       2.377   1.411  -0.013  0.00  0.00    +0.005 A 
ATOM      5  C   UNL     1       2.396   0.029  -0.020  0.00  0.00    -0.023 A 
ATOM      6  C   UNL     1       1.208  -0.679  -0.012  0.00  0.00    +0.005 A 
ATOM      7  C   UNL     1       0.002  -0.004   0.002  0.00  0.00    +0.000 A 
ENDBRANCH   1   5
BRANCH   1   8
ATOM      8  C   UNL     1       4.014  -1.161  -1.442  0.00  0.00    +0.183 C 
ATOM      9  O   UNL     1       3.797  -2.310  -1.770  0.00  0.00    -0.290 OA
BRANCH   8  10
ATOM     10  C   UNL     1       4.551  -0.250  -2.377  0.00  0.00    +0.025 C 
ATOM     11  C   UNL     1       4.879  -0.502  -3.697  0.00  0.00    +0.006 A 
ATOM     12  C   UNL     1       4.798  -1.662  -4.505  0.00  0.00    +0.010 A 
ATOM     13  C   UNL     1       5.198  -1.623  -5.795  0.00  0.00    +0.001 A 
ATOM     14  C   UNL     1       5.704  -0.457  -6.392  0.00  0.00    +0.002 A 
ATOM     15  C   UNL     1       5.823   0.702  -5.710  0.00  0.00    +0.026 A 
ATOM     16  C   UNL     1       5.409   0.747  -4.297  0.00  0.00    +0.043 A 
ATOM     17  N   UNL     1       5.414   1.709  -3.420  0.00  0.00    -0.380 N 
ATOM     18  C   UNL     1       4.884   1.208  -2.147  0.00  0.00    +0.152 C 
ATOM     19  H   UNL     1       5.717   2.615  -3.583  0.00  0.00    +0.160 HD
ENDBRANCH   8  10
ENDBRANCH   1   8
BRANCH   1  20
ATOM     20  N   UNL     1       3.630  -1.877   0.848  0.00  0.00    -0.303 NA
ATOM     21  H   UNL     1       2.727  -2.321   0.777  0.00  0.00    +0.123 HD
BRANCH  20  22
ATOM     22  C   UNL     1       3.928  -1.506   2.238  0.00  0.00    +0.083 C 
BRANCH  22  23
ATOM     23  C   UNL     1       3.833  -2.747   3.128  0.00  0.00    +0.035 C 
BRANCH  23  24
ATOM     24  C   UNL     1       4.143  -2.361   4.575  0.00  0.00    +0.119 C 
BRANCH  24  25
ATOM     25  N   UNL     1       4.053  -3.550   5.427  0.00  0.00    -0.224 N 
ATOM     26  C   UNL     1       2.922  -3.960   6.041  0.00  0.00    +0.246 C 
ATOM     27  O   UNL     1       1.829  -3.437   5.995  0.00  0.00    -0.273 OA
ATOM     28  C   UNL     1       3.308  -5.207   6.795  0.00  0.00    +0.113 C 
ATOM     29  C   UNL     1       2.490  -6.415   6.318  0.00  0.00    +0.035 C 
ATOM     30  C   UNL     1       2.280  -7.256   7.604  0.00  0.00    +0.003 C 
ATOM     31  C   UNL     1       2.080  -6.174   8.695  0.00  0.00    +0.003 C 
ATOM     32  C   UNL     1       3.060  -5.048   8.296  0.00  0.00    +0.035 C 
ATOM     33  N   UNL     1       4.732  -5.385   6.504  0.00  0.00    -0.285 N 
ATOM     34  C   UNL     1       5.080  -4.368   5.690  0.00  0.00    +0.309 C 
ATOM     35  O   UNL     1       6.201  -4.209   5.248  0.00  0.00    -0.252 OA
ATOM     36  H   UNL     1       5.309  -6.094   6.830  0.00  0.00    +0.151 HD
ENDBRANCH  24  25
ENDBRANCH  23  24
ENDBRANCH  22  23
ENDBRANCH  20  22
ENDBRANCH   1  20
TORSDOF 8
