REMARK  Name = ZINC10384381
REMARK  12 active torsions:
REMARK  status: ('A' for Active; 'I' for Inactive)
REMARK    1  A    between atoms: N_14  and  C_15
REMARK    2  A    between atoms: C_15  and  C_16
REMARK    3  A    between atoms: C_16  and  C_18
REMARK    4  A    between atoms: C_16  and  O_26
REMARK    5  A    between atoms: C_18  and  N_48
REMARK    6  A    between atoms: C_19  and  C_20
REMARK    7  A    between atoms: C_19  and  C_22
REMARK    8  A    between atoms: C_19  and  C_24
REMARK    9  A    between atoms: C_19  and  N_48
REMARK   10  A    between atoms: C_20  and  O_21
REMARK   11  A    between atoms: C_22  and  O_23
REMARK   12  A    between atoms: C_24  and  O_25
REMARK                            x       y       z     vdW  Elec       q    Type
REMARK                         _______ _______ _______ _____ _____    ______ ____
ROOT
ATOM      1  C   UNL     1       2.987   5.559  -1.439  0.00  0.00    +0.117 C 
ENDROOT
BRANCH   1   2
ATOM      2  O   UNL     1       4.055   4.870  -2.092  0.00  0.00    -0.392 OA
ATOM      3  H   UNL     1       4.917   4.993  -1.673  0.00  0.00    +0.210 HD
ENDBRANCH   1   2
BRANCH   1   4
ATOM      4  C   UNL     1       2.864   5.060   0.002  0.00  0.00    +0.151 C 
BRANCH   4  18
ATOM      5  C   UNL     1      -1.236   3.138   0.030  0.00  0.00    +0.017 A 
ATOM      6  C   UNL     1      -0.061   3.857   0.023  0.00  0.00    +0.027 A 
ATOM      7  C   UNL     1       1.162   3.193   0.008  0.00  0.00    +0.050 A 
ATOM      8  C   UNL     1       1.183   1.791   0.000  0.00  0.00    +0.009 A 
ATOM      9  C   UNL     1      -0.013   1.076   0.008  0.00  0.00    +0.026 A 
ATOM     10  C   UNL     1      -1.215   1.751   0.017  0.00  0.00    +0.019 A 
ATOM     11 BR   UNL     1      -2.839   0.783   0.020  0.00  0.00    -0.050 Br
ATOM     12  C   UNL     1       2.603   1.393  -0.016  0.00  0.00    +0.009 A 
ATOM     13  C   UNL     1       3.253   0.162  -0.029  0.00  0.00    +0.026 A 
ATOM     14  C   UNL     1       4.631   0.115  -0.043  0.00  0.00    +0.019 A 
ATOM     15  C   UNL     1       5.370   1.289  -0.044  0.00  0.00    +0.017 A 
ATOM     16  C   UNL     1       4.738   2.514  -0.031  0.00  0.00    +0.027 A 
ATOM     17  C   UNL     1       3.349   2.581  -0.017  0.00  0.00    +0.050 A 
ATOM     18  N   UNL     1       2.469   3.649  -0.002  0.00  0.00    -0.337 N 
ATOM     19 BR   UNL     1       5.517  -1.556  -0.062  0.00  0.00    -0.050 Br
ENDBRANCH   4  18
ENDBRANCH   1   4
BRANCH   1  20
ATOM     20  C   UNL     1       3.277   7.061  -1.435  0.00  0.00    -0.048 C 
BRANCH  20  21
ATOM     21  N   UNL     1       3.276   7.558  -2.824  0.00  0.00    +0.389 N 
ATOM     22  H   UNL     1       2.356   7.381  -3.246  0.00  0.00    -0.085 HD
ATOM     23  H   UNL     1       3.999   7.064  -3.361  0.00  0.00    -0.085 HD
BRANCH  21  24
ATOM     24  C   UNL     1       3.553   9.006  -2.851  0.00  0.00    +0.002 C 
BRANCH  24  25
ATOM     25  C   UNL     1       2.477   9.751  -2.058  0.00  0.00    +0.148 C 
BRANCH  25  26
ATOM     26  O   UNL     1       1.187   9.405  -2.565  0.00  0.00    -0.396 OA
ATOM     27  H   UNL     1       0.455   9.841  -2.108  0.00  0.00    +0.209 HD
ENDBRANCH  25  26
ENDBRANCH  24  25
BRANCH  24  28
ATOM     28  C   UNL     1       4.925   9.279  -2.230  0.00  0.00    +0.148 C 
BRANCH  28  29
ATOM     29  O   UNL     1       5.930   8.583  -2.970  0.00  0.00    -0.396 OA
ATOM     30  H   UNL     1       6.826   8.711  -2.632  0.00  0.00    +0.209 HD
ENDBRANCH  28  29
ENDBRANCH  24  28
BRANCH  24  31
ATOM     31  C   UNL     1       3.545   9.492  -4.302  0.00  0.00    +0.148 C 
BRANCH  31  32
ATOM     32  O   UNL     1       3.813  10.895  -4.336  0.00  0.00    -0.396 OA
ATOM     33  H   UNL     1       3.824  11.271  -5.227  0.00  0.00    +0.209 HD
ENDBRANCH  31  32
ENDBRANCH  24  31
ENDBRANCH  21  24
ENDBRANCH  20  21
ENDBRANCH   1  20
TORSDOF 12
