REMARK  Name = ZINC18935225
REMARK  6 active torsions:
REMARK  status: ('A' for Active; 'I' for Inactive)
REMARK    1  A    between atoms: C_1  and  N_46
REMARK    2  A    between atoms: C_2  and  C_3
REMARK    3  A    between atoms: C_2  and  N_46
REMARK    4  A    between atoms: N_5  and  C_6
REMARK    5  A    between atoms: C_9  and  N_13
REMARK    6  A    between atoms: C_16  and  N_46
REMARK                            x       y       z     vdW  Elec       q    Type
REMARK                         _______ _______ _______ _____ _____    ______ ____
ROOT
ATOM      1  C   UNL     1       0.132   4.308   0.423  0.00  0.00    +0.019 C 
ENDROOT
BRANCH   1   2
ATOM      2  C   UNL     1       0.258   5.588   1.210  0.00  0.00    +0.201 C 
ATOM      3  O   UNL     1       1.076   5.674   2.100  0.00  0.00    -0.278 OA
ATOM      4  N   UNL     1      -0.540   6.636   0.923  0.00  0.00    -0.286 N 
ATOM      5  H   UNL     1      -1.249   6.541   0.268  0.00  0.00    +0.155 HD
BRANCH   4   6
ATOM      6  C   UNL     1      -0.345   7.861   1.571  0.00  0.00    +0.048 A 
ATOM      7  C   UNL     1       0.903   8.184   2.088  0.00  0.00    +0.026 A 
ATOM      8  C   UNL     1       1.093   9.397   2.721  0.00  0.00    +0.034 A 
ATOM      9  C   UNL     1       0.041  10.284   2.851  0.00  0.00    +0.127 A 
ATOM     10  C   UNL     1      -1.204   9.964   2.343  0.00  0.00    +0.049 A 
ATOM     11  C   UNL     1      -1.401   8.755   1.703  0.00  0.00    +0.041 A 
ATOM     12 BR   UNL     1      -3.104   8.317   1.008  0.00  0.00    -0.048 Br
BRANCH   9  13
ATOM     13  N   UNL     1       0.248  11.580   3.536  0.00  0.00    +0.056 N 
ATOM     14  O   UNL     1      -0.679  12.362   3.652  0.00  0.00    -0.126 OA
ATOM     15  O   UNL     1       1.344  11.863   3.985  0.00  0.00    -0.126 OA
ENDBRANCH   9  13
ENDBRANCH   4   6
ENDBRANCH   1   2
BRANCH   1  17
ATOM     16  C   UNL     1       0.712   2.828   2.249  0.00  0.00    -0.095 C 
ATOM     17  N   UNL     1       1.129   3.341   0.928  0.00  0.00    +0.388 N 
ATOM     18  H   UNL     1       2.035   3.816   1.025  0.00  0.00    -0.081 HD
BRANCH  17  19
ATOM     19  C   UNL     1       1.275   2.221  -0.026  0.00  0.00    -0.037 C 
ATOM     20  C   UNL     1      -0.085   1.587  -0.309  0.00  0.00    -0.010 C 
ATOM     21  C   UNL     1       0.078   0.586  -1.459  0.00  0.00    +0.003 C 
ATOM     22  C   UNL     1       0.340   1.369  -2.744  0.00  0.00    +0.035 C 
ATOM     23  C   UNL     1       1.462   2.353  -2.545  0.00  0.00    -0.046 A 
ATOM     24  C   UNL     1       1.888   2.749  -1.297  0.00  0.00    -0.058 A 
ATOM     25  C   UNL     1       2.926   3.664  -1.182  0.00  0.00    +0.002 A 
ATOM     26  C   UNL     1       3.532   4.181  -2.309  0.00  0.00    +0.000 A 
ATOM     27  C   UNL     1       3.107   3.781  -3.562  0.00  0.00    +0.000 A 
ATOM     28  C   UNL     1       2.077   2.872  -3.677  0.00  0.00    +0.004 A 
ENDBRANCH  17  19
ENDBRANCH   1  17
TORSDOF 5
