REMARK  Name = ZINC06194679
REMARK  9 active torsions:
REMARK  status: ('A' for Active; 'I' for Inactive)
REMARK    1  A    between atoms: C_1  and  C_2
REMARK    2  A    between atoms: C_2  and  O_3
REMARK    3  A    between atoms: O_3  and  C_4
REMARK    4  A    between atoms: C_4  and  C_6
REMARK    5  A    between atoms: C_11  and  C_13
REMARK    6  A    between atoms: C_11  and  C_28
REMARK    7  A    between atoms: C_11  and  N_67
REMARK    8  A    between atoms: N_32  and  C_33
REMARK    9  A    between atoms: C_33  and  C_34
REMARK                            x       y       z     vdW  Elec       q    Type
REMARK                         _______ _______ _______ _____ _____    ______ ____
ROOT
ATOM      1  C   UNL     1       0.651  -1.955   1.280  0.00  0.00    +0.039 C 
ENDROOT
BRANCH   1   2
ATOM      2  C   UNL     1       1.507  -2.428   2.427  0.00  0.00    +0.011 A 
ATOM      3  C   UNL     1       2.467  -3.363   2.213  0.00  0.00    +0.017 A 
ATOM      4  C   UNL     1       3.285  -3.796   3.345  0.00  0.00    +0.002 A 
ATOM      5  C   UNL     1       4.293  -4.755   3.183  0.00  0.00    +0.059 A 
ATOM      6  C   UNL     1       5.044  -5.147   4.268  0.00  0.00    +0.167 A 
ATOM      7  C   UNL     1       4.804  -4.590   5.531  0.00  0.00    +0.168 A 
ATOM      8  C   UNL     1       3.811  -3.643   5.700  0.00  0.00    +0.075 A 
ATOM      9  C   UNL     1       3.043  -3.239   4.616  0.00  0.00    +0.053 A 
ATOM     10  N   UNL     1       2.046  -2.296   4.767  0.00  0.00    -0.322 N 
ATOM     11  H   UNL     1       1.874  -1.901   5.669  0.00  0.00    +0.169 HD
ATOM     12  C   UNL     1       1.303  -1.901   3.718  0.00  0.00    +0.251 A 
ATOM     13  O   UNL     1       0.431  -1.066   3.889  0.00  0.00    -0.268 OA
ATOM     14  O   UNL     1       5.678  -5.143   6.421  0.00  0.00    -0.453 OA
ATOM     15  C   UNL     1       6.720  -5.734   5.623  0.00  0.00    +0.466 C 
ATOM     16  O   UNL     1       6.067  -6.046   4.378  0.00  0.00    -0.453 OA
ENDBRANCH   1   2
BRANCH   1  22
ATOM     17  C   UNL     1       1.420   2.051  -0.001  0.00  0.00    +0.094 C 
ATOM     18  C   UNL     1      -0.019   1.526   0.010  0.00  0.00    -0.004 C 
ATOM     19  C   UNL     1       0.002  -0.004   0.002  0.00  0.00    -0.077 C 
ATOM     20  C   UNL     1       2.126  -0.039   1.168  0.00  0.00    -0.077 C 
ATOM     21  C   UNL     1       2.169   1.490   1.211  0.00  0.00    -0.004 C 
ATOM     22  N   UNL     1       0.716  -0.481   1.206  0.00  0.00    +0.389 N 
ATOM     23  H   UNL     1       0.265  -0.085   2.039  0.00  0.00    -0.080 HD
BRANCH  17  24
ATOM     24  C   UNL     1       1.407   3.557   0.068  0.00  0.00    +0.310 C 
ATOM     25  O   UNL     1       0.355   4.150   0.121  0.00  0.00    -0.251 OA
BRANCH  24  26
ATOM     26  O   UNL     1       2.563   4.238   0.071  0.00  0.00    -0.465 OA
BRANCH  26  28
ATOM     27  C   UNL     1       3.883   6.284   0.132  0.00  0.00    +0.048 C 
ATOM     28  C   UNL     1       2.474   5.686   0.139  0.00  0.00    +0.229 C 
ENDBRANCH  26  28
ENDBRANCH  24  26
ENDBRANCH  17  24
ENDBRANCH   1  22
BRANCH   1  29
ATOM     29  C   UNL     1      -0.779  -2.367   1.518  0.00  0.00    +0.143 A 
ATOM     30  N   UNL     1      -1.620  -1.822   2.363  0.00  0.00    -0.115 NA
ATOM     31  N   UNL     1      -2.740  -2.453   2.272  0.00  0.00    -0.023 NA
ATOM     32  N   UNL     1      -2.636  -3.385   1.391  0.00  0.00    -0.044 NA
ATOM     33  N   UNL     1      -1.443  -3.361   0.899  0.00  0.00    -0.228 N 
BRANCH  33  34
ATOM     34  C   UNL     1      -0.910  -4.250  -0.136  0.00  0.00    +0.178 C 
BRANCH  34  35
ATOM     35  C   UNL     1      -0.290  -5.484   0.522  0.00  0.00    +0.140 C 
ATOM     36  C   UNL     1       0.232  -6.465  -0.558  0.00  0.00    +0.035 C 
ATOM     37  C   UNL     1       1.323  -7.229   0.239  0.00  0.00    +0.031 C 
ATOM     38  C   UNL     1       1.871  -6.133   1.178  0.00  0.00    +0.160 C 
ATOM     39  O   UNL     1       0.870  -5.113   1.283  0.00  0.00    -0.375 OA
ENDBRANCH  34  35
ENDBRANCH  33  34
ENDBRANCH   1  29
TORSDOF 8
