REMARK  Name = ZINC16806092
REMARK  7 active torsions:
REMARK  status: ('A' for Active; 'I' for Inactive)
REMARK    1  A    between atoms: C_1  and  C_2
REMARK    2  A    between atoms: C_5  and  C_8
REMARK    3  A    between atoms: N_13  and  S_14
REMARK    4  A    between atoms: S_14  and  C_17
REMARK    5  A    between atoms: C_20  and  N_23
REMARK    6  A    between atoms: C_24  and  C_26
REMARK    7  A    between atoms: C_26  and  N_27
REMARK                            x       y       z     vdW  Elec       q    Type
REMARK                         _______ _______ _______ _____ _____    ______ ____
ROOT
ATOM      1  C   UNL     1      -3.826   2.615   0.295  0.00  0.00    +0.113 A 
ATOM      2  C   UNL     1      -3.662   1.243   0.350  0.00  0.00    +0.031 A 
ATOM      3  C   UNL     1      -2.398   0.693   0.255  0.00  0.00    +0.025 A 
ATOM      4  C   UNL     1      -1.292   1.520   0.104  0.00  0.00    +0.033 A 
ATOM      5  C   UNL     1      -1.460   2.897   0.055  0.00  0.00    +0.025 A 
ATOM      6  C   UNL     1      -2.727   3.441   0.145  0.00  0.00    +0.031 A 
ENDROOT
BRANCH   4   7
ATOM      7  N   UNL     1      -0.011   0.966   0.007  0.00  0.00    -0.287 N 
ATOM      8  C   UNL     1       0.924   1.561  -0.759  0.00  0.00    +0.201 C 
ATOM      9  O   UNL     1       0.631   2.523  -1.436  0.00  0.00    -0.278 OA
ATOM     10  H   UNL     1       0.233   0.044   0.557  0.00  0.00    +0.155 HD
BRANCH   8  11
ATOM     11  C   UNL     1       2.335   1.031  -0.773  0.00  0.00    +0.019 C 
BRANCH  11  12
ATOM     12  N   UNL     1       3.155   1.847  -1.679  0.00  0.00    +0.385 N 
ATOM     13  C   UNL     1       2.637   1.784  -3.064  0.00  0.00    -0.078 C 
ATOM     14  C   UNL     1       3.588   2.374  -4.070  0.00  0.00    -0.019 C 
ATOM     15  C   UNL     1       4.463   1.238  -4.642  0.00  0.00    -0.002 C 
ATOM     16  C   UNL     1       5.536   0.858  -3.731  0.00  0.00    -0.002 C 
ATOM     17  C   UNL     1       4.998   0.334  -2.383  0.00  0.00    -0.019 C 
ATOM     18  C   UNL     1       4.590   1.512  -1.542  0.00  0.00    -0.078 C 
ATOM     19  H   UNL     1       3.070   2.902  -1.382  0.00  0.00    -0.081 HD
ENDBRANCH  11  12
ENDBRANCH   8  11
ENDBRANCH   4   7
BRANCH   1  20
ATOM     20  S   UNL     1      -5.439   3.313   0.416  0.00  0.00    +0.101 S 
ATOM     21  O   UNL     1      -5.379   4.587  -0.210  0.00  0.00    -0.146 OA
ATOM     22  O   UNL     1      -6.351   2.304   0.003  0.00  0.00    -0.146 OA
BRANCH  20  28
ATOM     23  C   UNL     1      -4.231   5.795   4.490  0.00  0.00    +0.055 A 
ATOM     24  C   UNL     1      -3.296   6.374   3.680  0.00  0.00    +0.075 A 
ATOM     25  S   UNL     1      -3.628   5.537   2.135  0.00  0.00    -0.056 S 
ATOM     26  C   UNL     1      -4.975   4.516   2.717  0.00  0.00    +0.192 A 
ATOM     27  N   UNL     1      -5.051   4.876   3.985  0.00  0.00    -0.332 N 
ATOM     28  N   UNL     1      -5.734   3.588   2.022  0.00  0.00    -0.103 NA
ATOM     29  H   UNL     1      -5.809   4.403   4.627  0.00  0.00    +0.168 HD
BRANCH  23  34
ATOM     30  C   UNL     1      -4.621   7.313  10.031  0.00  0.00    +0.044 C 
ATOM     31  C   UNL     1      -4.519   6.916   8.581  0.00  0.00    -0.050 A 
ATOM     32  C   UNL     1      -5.377   5.960   8.066  0.00  0.00    +0.004 A 
ATOM     33  C   UNL     1      -5.288   5.593   6.739  0.00  0.00    +0.010 A 
ATOM     34  C   UNL     1      -4.332   6.186   5.917  0.00  0.00    -0.001 A 
ATOM     35  C   UNL     1      -3.466   7.145   6.442  0.00  0.00    +0.010 A 
ATOM     36  C   UNL     1      -3.568   7.509   7.769  0.00  0.00    +0.004 A 
ENDBRANCH  23  34
ENDBRANCH  20  28
ENDBRANCH   1  20
TORSDOF 6
