REMARK  Name = ZINC20479871
REMARK  6 active torsions:
REMARK  status: ('A' for Active; 'I' for Inactive)
REMARK    1  A    between atoms: C_3  and  C_6
REMARK    2  A    between atoms: C_6  and  C_7
REMARK    3  A    between atoms: C_13  and  C_17
REMARK    4  A    between atoms: C_17  and  C_18
REMARK    5  A    between atoms: C_25  and  C_28
REMARK    6  A    between atoms: C_28  and  C_29
REMARK                            x       y       z     vdW  Elec       q    Type
REMARK                         _______ _______ _______ _____ _____    ______ ____
ROOT
ATOM      1  C   UNL     1       0.468   5.263   7.148  0.00  0.00    +0.070 C 
ENDROOT
BRANCH   1   8
ATOM      2  C   UNL     1       1.496   4.027   1.430  0.00  0.00    +0.113 A 
ATOM      3  N   UNL     1       2.541   4.730   1.945  0.00  0.00    -0.342 N 
ATOM      4  H   UNL     1       3.402   4.981   1.309  0.00  0.00    +0.167 HD
ATOM      5  C   UNL     1       2.249   4.987   3.270  0.00  0.00    +0.066 A 
ATOM      6  C   UNL     1       2.911   5.649   4.295  0.00  0.00    +0.028 A 
ATOM      7  C   UNL     1       2.329   5.733   5.541  0.00  0.00    +0.006 A 
ATOM      8  C   UNL     1       1.087   5.161   5.778  0.00  0.00    -0.041 A 
ATOM      9  C   UNL     1       0.421   4.506   4.781  0.00  0.00    +0.033 A 
ATOM     10  C   UNL     1       0.991   4.408   3.509  0.00  0.00    +0.089 A 
ATOM     11  N   UNL     1       0.587   3.844   2.342  0.00  0.00    -0.232 NA
BRANCH   2  12
ATOM     12  C   UNL     1       1.402   3.539   0.007  0.00  0.00    +0.116 C 
BRANCH  12  15
ATOM     13  C   UNL     1       0.002  -0.004   0.002  0.00  0.00    +0.008 A 
ATOM     14  C   UNL     1      -0.017   1.378   0.010  0.00  0.00    +0.011 A 
ATOM     15  C   UNL     1       1.160   2.051   0.002  0.00  0.00    -0.003 A 
ATOM     16  S   UNL     1       2.348   0.719  -0.017  0.00  0.00    -0.101 S 
ATOM     17  C   UNL     1       1.196  -0.645  -0.013  0.00  0.00    +0.045 A 
ENDBRANCH  12  15
ENDBRANCH   2  12
ENDBRANCH   1   8
BRANCH   1  18
ATOM     18  C   UNL     1       0.893   4.081   7.981  0.00  0.00    -0.041 A 
ATOM     19  C   UNL     1       2.047   4.162   8.748  0.00  0.00    +0.006 A 
ATOM     20  C   UNL     1       2.451   3.091   9.517  0.00  0.00    +0.028 A 
ATOM     21  C   UNL     1       1.697   1.925   9.521  0.00  0.00    +0.066 A 
ATOM     22  C   UNL     1       0.530   1.844   8.744  0.00  0.00    +0.089 A 
ATOM     23  C   UNL     1       0.137   2.944   7.977  0.00  0.00    +0.033 A 
ATOM     24  N   UNL     1       0.007   0.606   8.942  0.00  0.00    -0.232 NA
ATOM     25  C   UNL     1       0.760  -0.059   9.769  0.00  0.00    +0.113 A 
ATOM     26  N   UNL     1       1.816   0.706  10.158  0.00  0.00    -0.342 N 
ATOM     27  H   UNL     1       2.664   0.519  10.834  0.00  0.00    +0.167 HD
BRANCH  25  28
ATOM     28  C   UNL     1       0.500  -1.470  10.230  0.00  0.00    +0.116 C 
BRANCH  28  29
ATOM     29  C   UNL     1      -0.884  -1.559  10.819  0.00  0.00    -0.003 A 
ATOM     30  C   UNL     1      -2.057  -1.847  10.204  0.00  0.00    +0.011 A 
ATOM     31  C   UNL     1      -3.218  -1.874  10.954  0.00  0.00    +0.008 A 
ATOM     32  C   UNL     1      -3.149  -1.611  12.282  0.00  0.00    +0.045 A 
ATOM     33  S   UNL     1      -1.403  -1.319  12.511  0.00  0.00    -0.101 S 
ENDBRANCH  28  29
ENDBRANCH  25  28
ENDBRANCH   1  18
TORSDOF 6
