REMARK  Name = ZINC14881037
REMARK  11 active torsions:
REMARK  status: ('A' for Active; 'I' for Inactive)
REMARK    1  A    between atoms: C_1  and  N_72
REMARK    2  A    between atoms: C_2  and  N_72
REMARK    3  A    between atoms: C_3  and  C_4
REMARK    4  A    between atoms: C_3  and  N_72
REMARK    5  A    between atoms: C_4  and  C_5
REMARK    6  A    between atoms: C_5  and  N_6
REMARK    7  A    between atoms: C_9  and  C_13
REMARK    8  A    between atoms: C_9  and  C_21
REMARK    9  A    between atoms: C_13  and  C_14
REMARK   10  A    between atoms: C_26  and  C_27
REMARK   11  A    between atoms: C_26  and  N_74
REMARK                            x       y       z     vdW  Elec       q    Type
REMARK                         _______ _______ _______ _____ _____    ______ ____
ROOT
ATOM      1  N   UNL     1      -2.683  -4.067  -0.484  0.00  0.00    -0.224 N 
ATOM      2  C   UNL     1      -2.575  -4.998   0.483  0.00  0.00    +0.247 C 
ATOM      3  O   UNL     1      -2.502  -4.807   1.679  0.00  0.00    -0.273 OA
ATOM      4  C   UNL     1      -2.564  -6.334  -0.233  0.00  0.00    +0.119 C 
ATOM      5  N   UNL     1      -2.677  -5.966  -1.654  0.00  0.00    -0.284 N 
ATOM      6  C   UNL     1      -2.745  -4.623  -1.700  0.00  0.00    +0.309 C 
ATOM      7  O   UNL     1      -2.849  -3.986  -2.730  0.00  0.00    -0.252 OA
ATOM      8  H   UNL     1      -2.701  -6.573  -2.410  0.00  0.00    +0.151 HD
ENDROOT
BRANCH   4   9
ATOM      9  C   UNL     1      -1.250  -7.074   0.029  0.00  0.00    +0.018 C 
ATOM     10  C   UNL     1      -1.155  -7.439   1.513  0.00  0.00    -0.013 C 
ATOM     11  C   UNL     1       0.187  -8.123   1.780  0.00  0.00    -0.078 C 
ATOM     12  C   UNL     1       1.239  -6.893  -0.023  0.00  0.00    -0.078 C 
ATOM     13  C   UNL     1      -0.071  -6.171  -0.344  0.00  0.00    -0.013 C 
ATOM     14  N   UNL     1       1.280  -7.193   1.424  0.00  0.00    +0.380 N 
ATOM     15  H   UNL     1       1.158  -6.319   1.949  0.00  0.00    -0.082 HD
BRANCH  14  16
ATOM     16  C   UNL     1       2.585  -7.788   1.779  0.00  0.00    -0.075 C 
BRANCH  16  17
ATOM     17  C   UNL     1       2.685  -7.882   3.303  0.00  0.00    -0.024 C 
ATOM     18  C   UNL     1       3.994  -8.581   3.692  0.00  0.00    +0.006 C 
ATOM     19  C   UNL     1       3.985  -8.820   5.203  0.00  0.00    +0.027 C 
ATOM     20  C   UNL     1       3.618  -7.556   5.924  0.00  0.00    -0.031 C 
ATOM     21  C   UNL     1       3.051  -6.538   5.361  0.00  0.00    -0.031 C 
ATOM     22  C   UNL     1       2.684  -6.476   3.906  0.00  0.00    +0.028 C 
ENDBRANCH  16  17
ENDBRANCH  14  16
ENDBRANCH   4   9
BRANCH   1  23
ATOM     23  C   UNL     1      -2.732  -2.624  -0.236  0.00  0.00    +0.116 C 
BRANCH  23  24
ATOM     24  C   UNL     1      -1.311  -2.056  -0.247  0.00  0.00    +0.001 C 
BRANCH  24  25
ATOM     25  C   UNL     1      -1.362  -0.549   0.012  0.00  0.00    -0.078 C 
BRANCH  25  28
ATOM     26  C   UNL     1      -0.018   1.465   0.010  0.00  0.00    -0.097 C 
ATOM     27  C   UNL     1       0.786  -0.526   1.129  0.00  0.00    -0.097 C 
ATOM     28  N   UNL     1       0.015  -0.013  -0.022  0.00  0.00    +0.376 N 
ATOM     29  H   UNL     1       0.470  -0.317  -0.891  0.00  0.00    -0.083 HD
ENDBRANCH  25  28
ENDBRANCH  24  25
ENDBRANCH  23  24
ENDBRANCH   1  23
BRANCH   4  30
ATOM     30  C   UNL     1      -3.756  -7.188   0.202  0.00  0.00    +0.070 C 
BRANCH  30  31
ATOM     31  C   UNL     1      -5.037  -6.517  -0.224  0.00  0.00    -0.045 A 
ATOM     32  C   UNL     1      -5.666  -5.627   0.626  0.00  0.00    +0.006 A 
ATOM     33  C   UNL     1      -6.838  -5.008   0.235  0.00  0.00    +0.038 A 
ATOM     34  C   UNL     1      -7.387  -5.286  -1.005  0.00  0.00    +0.123 A 
ATOM     35  C   UNL     1      -6.758  -6.181  -1.854  0.00  0.00    +0.038 A 
ATOM     36  C   UNL     1      -5.584  -6.796  -1.462  0.00  0.00    +0.006 A 
ATOM     37  F   UNL     1      -8.534  -4.684  -1.387  0.00  0.00    -0.205 F 
ENDBRANCH  30  31
ENDBRANCH   4  30
TORSDOF 9
