REMARK  Name = ZINC64031565
REMARK  10 active torsions:
REMARK  status: ('A' for Active; 'I' for Inactive)
REMARK    1  A    between atoms: C_1  and  N_2
REMARK    2  A    between atoms: N_2  and  C_3
REMARK    3  A    between atoms: C_3  and  C_4
REMARK    4  A    between atoms: C_13  and  C_15
REMARK    5  A    between atoms: C_15  and  C_16
REMARK    6  A    between atoms: C_16  and  C_17
REMARK    7  A    between atoms: C_17  and  C_23
REMARK    8  A    between atoms: C_23  and  C_24
REMARK    9  A    between atoms: C_27  and  O_34
REMARK   10  A    between atoms: O_34  and  C_35
REMARK                            x       y       z     vdW  Elec       q    Type
REMARK                         _______ _______ _______ _____ _____    ______ ____
ROOT
ATOM      1  C   UNL     1       0.006  -0.029  -4.896  0.00  0.00    +0.039 C 
ATOM      2  C   UNL     1      -1.154   0.990  -4.866  0.00  0.00    +0.035 C 
ATOM      3  C   UNL     1      -0.508   2.224  -5.537  0.00  0.00    +0.098 C 
ATOM      4  C   UNL     1       0.975   2.044  -5.294  0.00  0.00    +0.214 C 
ATOM      5  O   UNL     1       1.808   2.917  -5.409  0.00  0.00    -0.276 OA
ATOM      6  N   UNL     1       1.233   0.775  -4.932  0.00  0.00    -0.309 N 
ATOM      7  H   UNL     1       2.117   0.435  -4.721  0.00  0.00    +0.149 HD
ENDROOT
BRANCH   1   8
ATOM      8  C   UNL     1      -0.020  -0.899  -3.638  0.00  0.00    +0.035 C 
BRANCH   8   9
ATOM      9  C   UNL     1       1.241  -1.764  -3.589  0.00  0.00    +0.098 C 
BRANCH   9  12
ATOM     10  C   UNL     1       3.365  -3.551  -3.019  0.00  0.00    +0.132 C 
ATOM     11  N   UNL     1       2.244  -3.449  -2.082  0.00  0.00    -0.301 N 
ATOM     12  C   UNL     1       1.226  -2.604  -2.338  0.00  0.00    +0.216 C 
ATOM     13  O   UNL     1       0.298  -2.519  -1.562  0.00  0.00    -0.276 OA
BRANCH  11  14
ATOM     14  C   UNL     1       2.229  -4.266  -0.866  0.00  0.00    +0.154 C 
BRANCH  14  15
ATOM     15  C   UNL     1       2.915  -3.503   0.270  0.00  0.00    +0.192 C 
ATOM     16  N   UNL     1       2.253  -2.209   0.479  0.00  0.00    -0.362 N 
ATOM     17  C   UNL     1       3.138  -1.279   0.267  0.00  0.00    +0.060 A 
ATOM     18  C   UNL     1       3.078   0.189   0.320  0.00  0.00    +0.027 A 
ATOM     19  C   UNL     1       4.183   0.910   0.045  0.00  0.00    +0.002 A 
ATOM     20  C   UNL     1       5.410   0.316  -0.297  0.00  0.00    +0.002 A 
ATOM     21  C   UNL     1       5.574  -1.020  -0.376  0.00  0.00    +0.027 A 
ATOM     22  C   UNL     1       4.438  -1.908  -0.095  0.00  0.00    +0.060 A 
ATOM     23  N   UNL     1       4.305  -3.203  -0.093  0.00  0.00    -0.362 N 
ATOM     24  H   UNL     1       1.325  -2.073   0.729  0.00  0.00    +0.162 HD
ATOM     25  H   UNL     1       4.999  -3.851  -0.294  0.00  0.00    +0.162 HD
ENDBRANCH  14  15
ENDBRANCH  11  14
ENDBRANCH   9  12
ENDBRANCH   8   9
ENDBRANCH   1   8
BRANCH   1  26
ATOM     26  C   UNL     1      -0.089  -0.906  -6.147  0.00  0.00    +0.061 C 
BRANCH  26  27
ATOM     27  C   UNL     1       0.062  -0.046  -7.376  0.00  0.00    -0.037 A 
ATOM     28  C   UNL     1      -1.042   0.430  -8.016  0.00  0.00    +0.008 A 
ATOM     29  C   UNL     1      -0.926   1.225  -9.152  0.00  0.00    +0.046 A 
ATOM     30  C   UNL     1       0.301   1.552  -9.658  0.00  0.00    +0.128 A 
ATOM     31  C   UNL     1       1.465   1.077  -9.021  0.00  0.00    +0.024 A 
ATOM     32  C   UNL     1       1.341   0.272  -7.861  0.00  0.00    -0.011 A 
ATOM     33  C   UNL     1       2.502  -0.199  -7.222  0.00  0.00    +0.009 A 
ATOM     34  C   UNL     1       3.725   0.129  -7.721  0.00  0.00    +0.001 A 
ATOM     35  C   UNL     1       3.846   0.926  -8.858  0.00  0.00    +0.001 A 
ATOM     36  C   UNL     1       2.744   1.389  -9.509  0.00  0.00    +0.012 A 
BRANCH  30  37
ATOM     37  O   UNL     1       0.398   2.328 -10.768  0.00  0.00    -0.495 OA
ATOM     38  C   UNL     1      -0.825   2.771 -11.359  0.00  0.00    +0.277 C 
ENDBRANCH  30  37
ENDBRANCH  26  27
ENDBRANCH   1  26
TORSDOF 8
