REMARK  Name = ZINC64644869
REMARK  5 active torsions:
REMARK  status: ('A' for Active; 'I' for Inactive)
REMARK    1  A    between atoms: C_1  and  C_2
REMARK    2  A    between atoms: C_2  and  C_3
REMARK    3  A    between atoms: C_2  and  N_15
REMARK    4  A    between atoms: C_5  and  C_8
REMARK    5  A    between atoms: C_22  and  C_23
REMARK                            x       y       z     vdW  Elec       q    Type
REMARK                         _______ _______ _______ _____ _____    ______ ____
ROOT
ATOM      1  C   UNL     1      -0.019   1.526   0.010  0.00  0.00    +0.038 C 
ATOM      2  C   UNL     1       0.002  -0.004   0.002  0.00  0.00    +0.160 C 
ENDROOT
BRANCH   2   3
ATOM      3  N   UNL     1      -1.372  -0.511   0.012  0.00  0.00    -0.288 N 
ATOM      4  C   UNL     1      -2.029  -0.655   1.181  0.00  0.00    +0.303 C 
ATOM      5  O   UNL     1      -1.480  -0.364   2.226  0.00  0.00    -0.253 OA
ATOM      6  N   UNL     1      -3.293  -1.122   1.190  0.00  0.00    -0.278 N 
ATOM      7  C   UNL     1      -4.072  -1.517   0.003  0.00  0.00    +0.110 C 
ATOM      8  C   UNL     1      -5.129  -2.515   0.536  0.00  0.00    +0.021 C 
ATOM      9  C   UNL     1      -5.477  -1.894   1.915  0.00  0.00    +0.029 C 
ATOM     10  C   UNL     1      -4.122  -1.327   2.387  0.00  0.00    +0.114 C 
ATOM     11  H   UNL     1      -1.810  -0.743  -0.822  0.00  0.00    +0.151 HD
BRANCH  10  12
ATOM     12  C   UNL     1      -4.337  -0.013   3.093  0.00  0.00    +0.010 A 
ATOM     13  C   UNL     1      -4.364   0.247   4.423  0.00  0.00    +0.013 A 
ATOM     14  C   UNL     1      -4.579   1.545   4.848  0.00  0.00    +0.008 A 
ATOM     15  C   UNL     1      -4.758   2.519   3.922  0.00  0.00    +0.045 A 
ATOM     16  S   UNL     1      -4.616   1.606   2.394  0.00  0.00    -0.100 S 
ENDBRANCH  10  12
ENDBRANCH   2   3
BRANCH   2  17
ATOM     17  C   UNL     1       0.707  -0.490  -1.238  0.00  0.00    +0.248 A 
ATOM     18  N   UNL     1       1.909  -0.990  -1.283  0.00  0.00    -0.190 NA
ATOM     19  C   UNL     1       2.224  -1.320  -2.549  0.00  0.00    +0.202 A 
ATOM     20  N   UNL     1       1.208  -1.026  -3.322  0.00  0.00    -0.056 NA
ATOM     21  O   UNL     1       0.202  -0.486  -2.478  0.00  0.00    -0.336 OA
BRANCH  19  22
ATOM     22  C   UNL     1       3.507  -1.917  -2.995  0.00  0.00    +0.023 A 
ATOM     23  C   UNL     1       4.511  -2.187  -2.067  0.00  0.00    +0.014 A 
ATOM     24  C   UNL     1       5.703  -2.743  -2.486  0.00  0.00    +0.039 A 
ATOM     25  C   UNL     1       5.902  -3.031  -3.826  0.00  0.00    +0.123 A 
ATOM     26  C   UNL     1       4.906  -2.763  -4.752  0.00  0.00    +0.039 A 
ATOM     27  C   UNL     1       3.709  -2.213  -4.341  0.00  0.00    +0.014 A 
ATOM     28  F   UNL     1       7.070  -3.575  -4.232  0.00  0.00    -0.205 F 
ENDBRANCH  19  22
ENDBRANCH   2  17
TORSDOF 4
