REMARK  Name = ZINC13132249
REMARK  13 active torsions:
REMARK  status: ('A' for Active; 'I' for Inactive)
REMARK    1  A    between atoms: C_1  and  N_2
REMARK    2  A    between atoms: N_2  and  C_3
REMARK    3  A    between atoms: N_2  and  C_4
REMARK    4  A    between atoms: C_7  and  C_10
REMARK    5  A    between atoms: C_10  and  C_12
REMARK    6  A    between atoms: C_10  and  C_29
REMARK    7  A    between atoms: C_12  and  N_13
REMARK    8  A    between atoms: C_14  and  C_16
REMARK    9  A    between atoms: C_16  and  N_17
REMARK   10  A    between atoms: N_17  and  S_18
REMARK   11  A    between atoms: S_18  and  C_21
REMARK   12  A    between atoms: C_24  and  O_27
REMARK   13  A    between atoms: O_27  and  C_28
REMARK                            x       y       z     vdW  Elec       q    Type
REMARK                         _______ _______ _______ _____ _____    ______ ____
ROOT
ATOM      1  C   UNL     1      -2.527  -0.809   0.022  0.00  0.00    +0.068 C 
ENDROOT
BRANCH   1   2
ATOM      2  C   UNL     1      -1.037  -1.037   0.006  0.00  0.00    -0.013 A 
ATOM      3  C   UNL     1      -0.411  -2.224  -0.006  0.00  0.00    +0.088 A 
ATOM      4  N   UNL     1       0.945  -2.036  -0.018  0.00  0.00    -0.360 N 
ATOM      5  H   UNL     1       1.605  -2.746  -0.028  0.00  0.00    +0.165 HD
ATOM      6  C   UNL     1       1.231  -0.689  -0.013  0.00  0.00    +0.047 A 
ATOM      7  C   UNL     1       0.002  -0.004   0.002  0.00  0.00    +0.003 A 
ATOM      8  C   UNL     1      -0.017   1.392   0.010  0.00  0.00    +0.010 A 
ATOM      9  C   UNL     1       1.160   2.086   0.002  0.00  0.00    +0.001 A 
ATOM     10  C   UNL     1       2.375   1.415  -0.013  0.00  0.00    +0.002 A 
ATOM     11  C   UNL     1       2.417   0.038  -0.021  0.00  0.00    +0.026 A 
ENDBRANCH   1   2
BRANCH   1  15
ATOM     12  C   UNL     1      -4.273  -2.567  -3.461  0.00  0.00    +0.029 A 
ATOM     13  C   UNL     1      -4.400  -1.203  -3.231  0.00  0.00    +0.023 A 
ATOM     14  C   UNL     1      -3.835  -0.638  -2.105  0.00  0.00    +0.006 A 
ATOM     15  C   UNL     1      -3.142  -1.429  -1.206  0.00  0.00    -0.038 A 
ATOM     16  C   UNL     1      -3.008  -2.786  -1.435  0.00  0.00    +0.006 A 
ATOM     17  C   UNL     1      -3.576  -3.358  -2.556  0.00  0.00    +0.023 A 
BRANCH  12  19
ATOM     18  C   UNL     1      -5.577  -2.305  -5.552  0.00  0.00    +0.129 C 
ATOM     19  N   UNL     1      -4.843  -3.141  -4.599  0.00  0.00    -0.336 N 
ATOM     20  C   UNL     1      -4.707  -4.580  -4.840  0.00  0.00    +0.129 C 
ENDBRANCH  12  19
ENDBRANCH   1  15
BRANCH   1  21
ATOM     21  C   UNL     1      -3.128  -1.452   1.273  0.00  0.00    +0.117 C 
BRANCH  21  22
ATOM     22  N   UNL     1      -2.619  -0.769   2.466  0.00  0.00    -0.313 N 
ATOM     23  C   UNL     1      -3.015  -1.167   3.691  0.00  0.00    +0.229 C 
ATOM     24  O   UNL     1      -3.792  -2.091   3.807  0.00  0.00    -0.274 OA
ATOM     25  H   UNL     1      -1.998  -0.030   2.373  0.00  0.00    +0.149 HD
BRANCH  23  26
ATOM     26  C   UNL     1      -2.491  -0.464   4.917  0.00  0.00    +0.201 C 
BRANCH  26  27
ATOM     27  N   UNL     1      -3.067  -1.080   6.115  0.00  0.00    -0.181 NA
ATOM     28  H   UNL     1      -3.836  -1.666   6.038  0.00  0.00    +0.149 HD
BRANCH  27  29
ATOM     29  S   UNL     1      -2.405  -0.774   7.602  0.00  0.00    +0.059 S 
ATOM     30  O   UNL     1      -3.191  -1.484   8.550  0.00  0.00    -0.153 OA
ATOM     31  O   UNL     1      -1.004  -0.975   7.472  0.00  0.00    -0.153 OA
BRANCH  29  32
ATOM     32  C   UNL     1      -2.640   0.940   7.935  0.00  0.00    +0.105 A 
ATOM     33  C   UNL     1      -1.677   1.855   7.552  0.00  0.00    +0.032 A 
ATOM     34  C   UNL     1      -1.861   3.201   7.807  0.00  0.00    +0.047 A 
ATOM     35  C   UNL     1      -3.008   3.631   8.458  0.00  0.00    +0.120 A 
ATOM     36  C   UNL     1      -3.970   2.710   8.846  0.00  0.00    +0.047 A 
ATOM     37  C   UNL     1      -3.784   1.367   8.584  0.00  0.00    +0.032 A 
BRANCH  35  38
ATOM     38  O   UNL     1      -3.189   4.954   8.714  0.00  0.00    -0.495 OA
ATOM     39  C   UNL     1      -2.158   5.845   8.285  0.00  0.00    +0.277 C 
ENDBRANCH  35  38
ENDBRANCH  29  32
ENDBRANCH  27  29
ENDBRANCH  26  27
ENDBRANCH  23  26
ENDBRANCH  21  22
ENDBRANCH   1  21
TORSDOF 10
