REMARK  Name = ZINC06418245
REMARK  4 active torsions:
REMARK  status: ('A' for Active; 'I' for Inactive)
REMARK    1  A    between atoms: C_1  and  C_2
REMARK    2  A    between atoms: C_3  and  C_8
REMARK    3  A    between atoms: C_8  and  C_9
REMARK    4  A    between atoms: C_9  and  O_10
REMARK                            x       y       z     vdW  Elec       q    Type
REMARK                         _______ _______ _______ _____ _____    ______ ____
ROOT
ATOM      1  C   UNL     1      -1.372  -2.412   2.465  0.00  0.00    +0.066 C 
ATOM      2  C   UNL     1      -1.386  -2.910   1.043  0.00  0.00    +0.050 A 
ATOM      3  C   UNL     1      -1.413  -2.041   0.005  0.00  0.00    +0.015 A 
ATOM      4  S   UNL     1      -1.410  -3.173  -1.378  0.00  0.00    -0.065 S 
ATOM      5  C   UNL     1      -1.381  -4.648  -0.462  0.00  0.00    +0.146 A 
ATOM      6  N   UNL     1      -1.375  -4.203   0.781  0.00  0.00    -0.237 NA
ATOM      7  S   UNL     1      -1.362  -6.311  -1.043  0.00  0.00    -0.023 SA
ENDROOT
BRANCH   3   8
ATOM      8  C   UNL     1      -1.433  -0.534   0.013  0.00  0.00    +0.072 C 
BRANCH   8   9
ATOM      9  C   UNL     1       0.002  -0.004   0.002  0.00  0.00    +0.161 C 
BRANCH   9  10
ATOM     10  O   UNL     1      -0.017   1.425   0.010  0.00  0.00    -0.395 OA
ATOM     11  H   UNL     1       0.928   1.988   0.004  0.00  0.00    +0.209 HD
ENDBRANCH   9  10
ENDBRANCH   8   9
ENDBRANCH   3   8
TORSDOF 3
