REMARK  Name = ZINC20274572
REMARK  11 active torsions:
REMARK  status: ('A' for Active; 'I' for Inactive)
REMARK    1  A    between atoms: C_1  and  O_2
REMARK    2  A    between atoms: O_2  and  C_3
REMARK    3  A    between atoms: C_7  and  C_10
REMARK    4  A    between atoms: C_8  and  O_9
REMARK    5  A    between atoms: N_11  and  N_12
REMARK    6  A    between atoms: C_15  and  S_18
REMARK    7  A    between atoms: S_18  and  C_19
REMARK    8  A    between atoms: C_19  and  C_20
REMARK    9  A    between atoms: C_26  and  S_28
REMARK   10  A    between atoms: S_28  and  C_29
REMARK   11  A    between atoms: C_29  and  C_30
REMARK                            x       y       z     vdW  Elec       q    Type
REMARK                         _______ _______ _______ _____ _____    ______ ____
ROOT
ATOM      1  N   UNL     1      -1.109  -0.835   0.008  0.00  0.00    -0.205 N 
ATOM      2  C   UNL     1       0.002  -0.004   0.002  0.00  0.00    +0.232 A 
ATOM      3  N   UNL     1      -0.017   1.363   0.009  0.00  0.00    -0.186 NA
ATOM      4  C   UNL     1       1.277   1.803  -0.000  0.00  0.00    +0.211 A 
ATOM      5  N   UNL     1       2.062   0.752  -0.014  0.00  0.00    -0.144 NA
ATOM      6  N   UNL     1       1.254  -0.392  -0.012  0.00  0.00    -0.245 N 
ATOM      7  H   UNL     1      -2.120  -0.401   0.020  0.00  0.00    +0.177 HD
ATOM      8  H   UNL     1       1.498  -1.465  -0.020  0.00  0.00    +0.192 HD
ENDROOT
BRANCH   1  10
ATOM      9  C   UNL     1      -1.984  -3.003   0.005  0.00  0.00    +0.142 C 
ATOM     10  N   UNL     1      -0.944  -2.226  -0.001  0.00  0.00    -0.187 NA
BRANCH   9  15
ATOM     11  C   UNL     1      -0.372  -6.403  -0.028  0.00  0.00    +0.162 A 
ATOM     12  C   UNL     1      -1.489  -7.224  -0.022  0.00  0.00    +0.049 A 
ATOM     13  C   UNL     1      -2.760  -6.676  -0.007  0.00  0.00    +0.004 A 
ATOM     14  C   UNL     1      -2.927  -5.307   0.002  0.00  0.00    +0.013 A 
ATOM     15  C   UNL     1      -1.810  -4.467  -0.005  0.00  0.00    +0.040 A 
ATOM     16  C   UNL     1      -0.525  -5.022  -0.026  0.00  0.00    +0.167 A 
BRANCH  11  18
ATOM     17  C   UNL     1       0.956  -8.376  -0.051  0.00  0.00    +0.277 C 
ATOM     18  O   UNL     1       0.873  -6.950  -0.043  0.00  0.00    -0.491 OA
ENDBRANCH  11  18
BRANCH  16  19
ATOM     19  O   UNL     1       0.568  -4.215  -0.038  0.00  0.00    -0.503 OA
ATOM     20  H   UNL     1       0.444  -3.122  -0.036  0.00  0.00    +0.292 HD
ENDBRANCH  16  19
ENDBRANCH   9  15
ENDBRANCH   1  10
BRANCH   4  21
ATOM     21  S   UNL     1       1.798   3.486   0.003  0.00  0.00    -0.075 S 
BRANCH  21  22
ATOM     22  C   UNL     1       3.609   3.384  -0.015  0.00  0.00    +0.173 C 
BRANCH  22  23
ATOM     23  C   UNL     1       4.191   4.775  -0.013  0.00  0.00    +0.229 C 
ATOM     24  O   UNL     1       3.455   5.739  -0.001  0.00  0.00    -0.275 OA
ATOM     25  N   UNL     1       5.527   4.946  -0.025  0.00  0.00    -0.263 N 
ATOM     26  C   UNL     1       6.064   6.231  -0.023  0.00  0.00    +0.189 A 
ATOM     27  N   UNL     1       5.457   7.407  -0.011  0.00  0.00    -0.125 NA
ATOM     28  N   UNL     1       6.101   8.491  -0.012  0.00  0.00    -0.133 NA
ATOM     29  C   UNL     1       7.425   8.520  -0.024  0.00  0.00    +0.160 A 
ATOM     30  S   UNL     1       7.774   6.764  -0.029  0.00  0.00    -0.024 S 
ATOM     31  H   UNL     1       6.194   4.071  -0.035  0.00  0.00    +0.157 HD
BRANCH  29  32
ATOM     32  S   UNL     1       8.529   9.894  -0.026  0.00  0.00    -0.093 S 
BRANCH  32  33
ATOM     33  C   UNL     1       7.431  11.338  -0.008  0.00  0.00    +0.103 C 
BRANCH  33  34
ATOM     34  C   UNL     1       8.258  12.598  -0.008  0.00  0.00    -0.023 C 
ATOM     35  C   UNL     1       8.208  13.415  -1.032  0.00  0.00    +0.005 C 
ENDBRANCH  33  34
ENDBRANCH  32  33
ENDBRANCH  29  32
ENDBRANCH  22  23
ENDBRANCH  21  22
ENDBRANCH   4  21
TORSDOF 10
