REMARK  Name = ZINC25985105
REMARK  7 active torsions:
REMARK  status: ('A' for Active; 'I' for Inactive)
REMARK    1  A    between atoms: C_6  and  N_7
REMARK    2  A    between atoms: N_7  and  C_8
REMARK    3  A    between atoms: C_8  and  C_9
REMARK    4  A    between atoms: C_9  and  N_10
REMARK    5  A    between atoms: C_13  and  N_17
REMARK    6  A    between atoms: N_17  and  S_18
REMARK    7  A    between atoms: S_18  and  C_21
REMARK                            x       y       z     vdW  Elec       q    Type
REMARK                         _______ _______ _______ _____ _____    ______ ____
ROOT
ATOM      1  N   UNL     1      -4.860   2.999   4.630  0.00  0.00    -0.299 N 
ATOM      2  C   UNL     1      -6.295   2.716   4.757  0.00  0.00    +0.110 C 
ATOM      3  C   UNL     1      -6.956   3.384   3.530  0.00  0.00    +0.049 C 
ATOM      4  C   UNL     1      -5.788   3.409   2.517  0.00  0.00    +0.164 C 
ATOM      5  C   UNL     1      -4.547   3.384   3.381  0.00  0.00    +0.234 C 
ATOM      6  O   UNL     1      -3.431   3.670   3.002  0.00  0.00    -0.274 OA
ENDROOT
BRANCH   4   7
ATOM      7  N   UNL     1      -5.834   2.227   1.653  0.00  0.00    -0.178 NA
ATOM      8  H   UNL     1      -6.016   1.233   2.088  0.00  0.00    +0.149 HD
BRANCH   7   9
ATOM      9  S   UNL     1      -5.372   2.342   0.067  0.00  0.00    +0.065 S 
ATOM     10  O   UNL     1      -6.045   3.472  -0.471  0.00  0.00    -0.153 OA
ATOM     11  O   UNL     1      -5.502   1.042  -0.490  0.00  0.00    -0.153 OA
BRANCH   9  12
ATOM     12  C   UNL     1      -3.652   2.727   0.052  0.00  0.00    +0.144 A 
ATOM     13  C   UNL     1      -2.612   1.879   0.037  0.00  0.00    +0.048 A 
ATOM     14  C   UNL     1      -1.260   2.413   0.021  0.00  0.00    +0.028 A 
ATOM     15  C   UNL     1      -1.184   3.826   0.034  0.00  0.00    +0.026 A 
ATOM     16  S   UNL     1      -2.881   4.335   0.053  0.00  0.00    -0.068 S 
ATOM     17  C   UNL     1       0.035   4.471   0.026  0.00  0.00    +0.035 A 
ATOM     18  C   UNL     1       1.179   3.716   0.011  0.00  0.00    +0.113 A 
ATOM     19  N   UNL     1       1.110   2.395   0.004  0.00  0.00    -0.243 NA
ATOM     20  C   UNL     1      -0.021   1.732   0.012  0.00  0.00    +0.137 A 
ATOM     21 CL   UNL     1       0.002  -0.004   0.002  0.00  0.00    -0.061 Cl
ENDBRANCH   9  12
ENDBRANCH   7   9
ENDBRANCH   4   7
BRANCH   1  22
ATOM     22  C   UNL     1      -3.894   2.876   5.725  0.00  0.00    +0.126 C 
BRANCH  22  23
ATOM     23  C   UNL     1      -3.319   1.458   5.741  0.00  0.00    +0.120 C 
BRANCH  23  24
ATOM     24  N   UNL     1      -2.353   1.336   6.836  0.00  0.00    -0.342 N 
ATOM     25  H   UNL     1      -2.148   2.198   7.487  0.00  0.00    +0.146 HD
BRANCH  24  31
ATOM     26  C   UNL     1      -1.946  -0.978   6.239  0.00  0.00    +0.040 A 
ATOM     27  C   UNL     1      -1.268  -2.154   6.482  0.00  0.00    +0.084 A 
ATOM     28  N   UNL     1      -0.401  -2.243   7.474  0.00  0.00    -0.367 N 
ATOM     29  C   UNL     1      -0.141  -1.221   8.267  0.00  0.00    +0.084 A 
ATOM     30  C   UNL     1      -0.772  -0.008   8.088  0.00  0.00    +0.040 A 
ATOM     31  C   UNL     1      -1.695   0.129   7.051  0.00  0.00    +0.030 A 
ATOM     32  H   UNL     1       0.128  -3.189   7.658  0.00  0.00    +0.165 HD
ENDBRANCH  24  31
ENDBRANCH  23  24
ENDBRANCH  22  23
ENDBRANCH   1  22
TORSDOF 7
