REMARK  Name = ZINC15980259
REMARK  7 active torsions:
REMARK  status: ('A' for Active; 'I' for Inactive)
REMARK    1  A    between atoms: C_7  and  C_11
REMARK    2  A    between atoms: C_11  and  C_12
REMARK    3  A    between atoms: N_16  and  C_20
REMARK    4  A    between atoms: C_20  and  C_21
REMARK    5  A    between atoms: N_23  and  C_24
REMARK    6  A    between atoms: C_28  and  S_30
REMARK    7  A    between atoms: S_30  and  N_33
REMARK                            x       y       z     vdW  Elec       q    Type
REMARK                         _______ _______ _______ _____ _____    ______ ____
ROOT
ATOM      1  C   UNL     1       0.977   1.988  -4.496  0.00  0.00    +0.214 C 
ENDROOT
BRANCH   1   5
ATOM      2  C   UNL     1      -0.748   1.590  -1.231  0.00  0.00    +0.165 C 
ATOM      3  C   UNL     1      -0.129   1.019  -2.491  0.00  0.00    +0.244 C 
ATOM      4  O   UNL     1      -0.043  -0.150  -2.800  0.00  0.00    -0.273 OA
ATOM      5  N   UNL     1       0.306   2.081  -3.197  0.00  0.00    -0.216 N 
ATOM      6  C   UNL     1       0.050   3.232  -2.565  0.00  0.00    +0.310 C 
ATOM      7  O   UNL     1       0.347   4.325  -3.005  0.00  0.00    -0.252 OA
ATOM      8  N   UNL     1      -0.574   3.044  -1.388  0.00  0.00    -0.287 N 
ATOM      9  H   UNL     1      -0.855   3.732  -0.764  0.00  0.00    +0.151 HD
BRANCH   2  10
ATOM     10  C   UNL     1      -0.004   1.089   0.009  0.00  0.00    +0.069 C 
BRANCH  10  17
ATOM     11  C   UNL     1      -3.622  -0.570   2.485  0.00  0.00    +0.001 A 
ATOM     12  C   UNL     1      -3.938   0.224   3.579  0.00  0.00    +0.002 A 
ATOM     13  C   UNL     1      -3.218   1.367   3.849  0.00  0.00    +0.026 A 
ATOM     14  C   UNL     1      -2.164   1.733   3.017  0.00  0.00    +0.047 A 
ATOM     15  C   UNL     1      -1.852   0.928   1.906  0.00  0.00    +0.003 A 
ATOM     16  C   UNL     1      -2.591  -0.230   1.655  0.00  0.00    +0.010 A 
ATOM     17  C   UNL     1      -0.712   1.571   1.249  0.00  0.00    -0.020 A 
ATOM     18  C   UNL     1      -0.421   2.674   1.957  0.00  0.00    +0.087 A 
ATOM     19  N   UNL     1      -1.279   2.787   3.017  0.00  0.00    -0.360 N 
ATOM     20  H   UNL     1      -1.264   3.503   3.672  0.00  0.00    +0.165 HD
ENDBRANCH  10  17
ENDBRANCH   2  10
ENDBRANCH   1   5
BRANCH   1  21
ATOM     21  C   UNL     1      -0.052   2.035  -5.597  0.00  0.00    +0.235 C 
ATOM     22  O   UNL     1      -1.229   2.136  -5.323  0.00  0.00    -0.274 OA
ATOM     23  N   UNL     1       0.336   1.964  -6.886  0.00  0.00    -0.284 N 
ATOM     24  H   UNL     1       1.281   1.950  -7.107  0.00  0.00    +0.155 HD
BRANCH  23  25
ATOM     25  C   UNL     1      -0.622   1.910  -7.903  0.00  0.00    +0.035 A 
ATOM     26  C   UNL     1      -1.815   2.611  -7.774  0.00  0.00    +0.023 A 
ATOM     27  C   UNL     1      -2.759   2.555  -8.780  0.00  0.00    +0.004 A 
ATOM     28  C   UNL     1      -2.518   1.803  -9.916  0.00  0.00    +0.028 A 
ATOM     29  C   UNL     1      -1.333   1.104 -10.047  0.00  0.00    +0.107 A 
ATOM     30  C   UNL     1      -0.382   1.160  -9.047  0.00  0.00    +0.051 A 
BRANCH  29  31
ATOM     31  S   UNL     1      -1.032   0.147 -11.495  0.00  0.00    +0.061 S 
ATOM     32  O   UNL     1      -0.084  -0.848 -11.134  0.00  0.00    -0.153 OA
ATOM     33  O   UNL     1      -2.304  -0.175 -12.041  0.00  0.00    -0.153 OA
BRANCH  31  34
ATOM     34  N   UNL     1      -0.284   1.138 -12.591  0.00  0.00    -0.177 NA
ATOM     35  C   UNL     1      -1.072   1.923 -13.550  0.00  0.00    +0.109 C 
ATOM     36  C   UNL     1      -0.658   3.397 -13.433  0.00  0.00    +0.017 C 
ATOM     37  C   UNL     1       0.857   3.512 -13.622  0.00  0.00    +0.003 C 
ATOM     38  C   UNL     1       1.571   2.722 -12.522  0.00  0.00    +0.017 C 
ATOM     39  C   UNL     1       1.181   1.244 -12.626  0.00  0.00    +0.109 C 
ENDBRANCH  31  34
ENDBRANCH  29  31
ENDBRANCH  23  25
ENDBRANCH   1  21
TORSDOF 7
