REMARK  Name = ZINC20331591
REMARK  9 active torsions:
REMARK  status: ('A' for Active; 'I' for Inactive)
REMARK    1  A    between atoms: C_1  and  C_2
REMARK    2  A    between atoms: C_2  and  C_3
REMARK    3  A    between atoms: C_10  and  C_12
REMARK    4  A    between atoms: C_12  and  C_13
REMARK    5  A    between atoms: C_13  and  C_14
REMARK    6  A    between atoms: C_14  and  C_15
REMARK    7  A    between atoms: C_15  and  N_16
REMARK    8  A    between atoms: C_23  and  O_29
REMARK    9  A    between atoms: O_29  and  C_30
REMARK                            x       y       z     vdW  Elec       q    Type
REMARK                         _______ _______ _______ _____ _____    ______ ____
ROOT
ATOM      1  N   UNL     1       3.702   7.563  -4.897  0.00  0.00    -0.287 N 
ATOM      2  C   UNL     1       4.742   8.241  -4.373  0.00  0.00    +0.279 A 
ATOM      3  O   UNL     1       5.696   7.640  -3.911  0.00  0.00    -0.265 OA
ATOM      4  C   UNL     1       4.716   9.659  -4.363  0.00  0.00    +0.129 A 
ATOM      5  C   UNL     1       3.615  10.303  -4.897  0.00  0.00    +0.079 A 
ATOM      6  C   UNL     1       3.855  11.739  -4.756  0.00  0.00    +0.027 A 
ATOM      7  C   UNL     1       3.120  12.878  -5.101  0.00  0.00    +0.057 A 
ATOM      8  C   UNL     1       3.632  14.130  -4.829  0.00  0.00    +0.121 A 
ATOM      9  C   UNL     1       4.875  14.262  -4.213  0.00  0.00    +0.047 A 
ATOM     10  C   UNL     1       5.607  13.149  -3.869  0.00  0.00    +0.030 A 
ATOM     11  C   UNL     1       5.110  11.876  -4.134  0.00  0.00    +0.049 A 
ATOM     12  N   UNL     1       5.611  10.612  -3.906  0.00  0.00    -0.349 N 
ATOM     13  H   UNL     1       6.559  10.299  -3.443  0.00  0.00    +0.166 HD
ATOM     14  N   UNL     1       2.577   9.554  -5.422  0.00  0.00    -0.333 N 
ATOM     15  C   UNL     1       2.643   8.209  -5.417  0.00  0.00    +0.161 A 
ATOM     16  S   UNL     1       1.350   7.304  -6.078  0.00  0.00    -0.013 S 
ATOM     17  H   UNL     1       1.695  10.057  -5.845  0.00  0.00    +0.168 HD
ENDROOT
BRANCH   8  18
ATOM     18  O   UNL     1       2.921  15.240  -5.163  0.00  0.00    -0.495 OA
ATOM     19  C   UNL     1       3.508  16.505  -4.853  0.00  0.00    +0.277 C 
ENDBRANCH   8  18
BRANCH   1  20
ATOM     20  C   UNL     1       3.727   6.098  -4.908  0.00  0.00    +0.127 C 
BRANCH  20  21
ATOM     21  C   UNL     1       3.097   5.568  -3.618  0.00  0.00    +0.022 C 
BRANCH  21  22
ATOM     22  C   UNL     1       3.124   4.038  -3.629  0.00  0.00    +0.011 C 
BRANCH  22  23
ATOM     23  C   UNL     1       2.494   3.508  -2.339  0.00  0.00    +0.096 C 
BRANCH  23  30
ATOM     24  C   UNL     1       2.133  -0.152  -1.252  0.00  0.00    +0.076 C 
ATOM     25  C   UNL     1       0.739  -0.752  -1.042  0.00  0.00    +0.022 C 
ATOM     26  C   UNL     1       0.100  -0.124   0.199  0.00  0.00    +0.003 C 
ATOM     27  C   UNL     1      -0.050   1.384  -0.009  0.00  0.00    +0.019 C 
ATOM     28  C   UNL     1       1.335   2.008  -0.208  0.00  0.00    +0.108 C 
ATOM     29  N   UNL     1       2.015   1.312  -1.308  0.00  0.00    -0.298 N 
ATOM     30  C   UNL     1       2.520   2.002  -2.350  0.00  0.00    +0.216 C 
ATOM     31  O   UNL     1       2.996   1.410  -3.296  0.00  0.00    -0.276 OA
BRANCH  24  33
ATOM     32  C   UNL     1       2.867  -2.194  -2.490  0.00  0.00    +0.006 C 
ATOM     33  C   UNL     1       2.724  -0.673  -2.564  0.00  0.00    +0.019 C 
ENDBRANCH  24  33
ENDBRANCH  23  30
ENDBRANCH  22  23
ENDBRANCH  21  22
ENDBRANCH  20  21
ENDBRANCH   1  20
TORSDOF 7
