REMARK  Name = ZINC12702389
REMARK  9 active torsions:
REMARK  status: ('A' for Active; 'I' for Inactive)
REMARK    1  A    between atoms: C_3  and  C_6
REMARK    2  A    between atoms: C_6  and  N_7
REMARK    3  A    between atoms: N_7  and  C_8
REMARK    4  A    between atoms: C_8  and  C_10
REMARK    5  A    between atoms: C_8  and  C_17
REMARK    6  A    between atoms: N_19  and  C_20
REMARK    7  A    between atoms: C_25  and  C_27
REMARK    8  A    between atoms: C_28  and  N_35
REMARK    9  A    between atoms: C_29  and  C_32
REMARK                            x       y       z     vdW  Elec       q    Type
REMARK                         _______ _______ _______ _____ _____    ______ ____
ROOT
ATOM      1  N   UNL     1      -0.001   2.998   5.755  0.00  0.00    -0.274 N 
ATOM      2  C   UNL     1       0.520   3.326   6.954  0.00  0.00    +0.258 C 
ATOM      3  O   UNL     1       1.727   3.332   7.112  0.00  0.00    -0.269 OA
ENDROOT
BRANCH   2   4
ATOM      4  C   UNL     1      -0.366   3.676   8.066  0.00  0.00    +0.115 A 
ATOM      5  C   UNL     1      -0.219   4.668   9.036  0.00  0.00    +0.076 A 
ATOM      6  C   UNL     1      -1.282   4.695   9.938  0.00  0.00    +0.155 A 
ATOM      7  N   UNL     1      -2.266   3.835   9.799  0.00  0.00    -0.203 NA
ATOM      8  S   UNL     1      -1.924   2.954   8.537  0.00  0.00    +0.019 S 
BRANCH   6   9
ATOM      9  C   UNL     1      -1.303   5.679  11.037  0.00  0.00    +0.262 C 
ATOM     10  O   UNL     1      -0.389   6.472  11.160  0.00  0.00    -0.269 OA
ATOM     11  N   UNL     1      -2.334   5.699  11.904  0.00  0.00    -0.324 N 
ATOM     12  H   UNL     1      -3.063   5.066  11.806  0.00  0.00    +0.145 HD
ATOM     13  H   UNL     1      -2.347   6.345  12.627  0.00  0.00    +0.145 HD
ENDBRANCH   6   9
BRANCH   5  14
ATOM     14  N   UNL     1       0.866   5.532   9.097  0.00  0.00    -0.355 N 
ATOM     15  H   UNL     1       1.577   5.465   8.441  0.00  0.00    +0.142 HD
ATOM     16  H   UNL     1       0.913   6.203   9.796  0.00  0.00    +0.142 HD
ENDBRANCH   5  14
ENDBRANCH   2   4
BRANCH   1  17
ATOM     17  C   UNL     1      -1.426   3.208   5.493  0.00  0.00    +0.183 C 
BRANCH  17  20
ATOM     18  C   UNL     1      -2.143   6.800   5.085  0.00  0.00    +0.041 A 
ATOM     19  C   UNL     1      -1.830   5.531   4.547  0.00  0.00    +0.046 A 
ATOM     20  C   UNL     1      -1.742   4.679   5.585  0.00  0.00    +0.122 A 
ATOM     21  O   UNL     1      -1.989   5.360   6.715  0.00  0.00    -0.466 OA
ATOM     22  C   UNL     1      -2.227   6.648   6.419  0.00  0.00    +0.195 A 
ENDBRANCH  17  20
ENDBRANCH   1  17
BRANCH   1  23
ATOM     23  C   UNL     1       0.860   2.430   4.713  0.00  0.00    +0.193 C 
BRANCH  23  24
ATOM     24  C   UNL     1       0.508   0.979   4.507  0.00  0.00    -0.018 A 
ATOM     25  C   UNL     1      -0.816   0.600   4.383  0.00  0.00    +0.007 A 
ATOM     26  C   UNL     1      -1.139  -0.729   4.188  0.00  0.00    +0.020 A 
ATOM     27  C   UNL     1      -0.138  -1.683   4.128  0.00  0.00    +0.041 A 
ATOM     28  C   UNL     1       1.187  -1.303   4.258  0.00  0.00    +0.020 A 
ATOM     29  C   UNL     1       1.508   0.028   4.447  0.00  0.00    +0.007 A 
ATOM     30 CL   UNL     1      -0.543  -3.354   3.890  0.00  0.00    -0.084 Cl
ENDBRANCH  23  24
BRANCH  23  31
ATOM     31  C   UNL     1       0.654   3.185   3.425  0.00  0.00    +0.238 C 
ATOM     32  O   UNL     1      -0.451   3.589   3.129  0.00  0.00    -0.273 OA
ATOM     33  N   UNL     1       1.698   3.412   2.603  0.00  0.00    -0.311 N 
ATOM     34  H   UNL     1       2.581   3.089   2.840  0.00  0.00    +0.149 HD
BRANCH  33  35
ATOM     35  C   UNL     1       1.498   4.146   1.351  0.00  0.00    +0.073 C 
ATOM     36  C   UNL     1       2.584   3.766   0.324  0.00  0.00    +0.022 C 
ATOM     37  C   UNL     1       2.942   5.056  -0.436  0.00  0.00    +0.002 C 
ATOM     38  C   UNL     1       2.060   6.175   0.156  0.00  0.00    +0.002 C 
ATOM     39  C   UNL     1       1.701   5.666   1.574  0.00  0.00    +0.022 C 
ENDBRANCH  33  35
ENDBRANCH  23  31
ENDBRANCH   1  23
TORSDOF 9
