REMARK  Name = ZINC08710838
REMARK  7 active torsions:
REMARK  status: ('A' for Active; 'I' for Inactive)
REMARK    1  A    between atoms: C_1  and  C_2
REMARK    2  A    between atoms: C_7  and  N_12
REMARK    3  A    between atoms: C_9  and  C_11
REMARK    4  A    between atoms: C_13  and  C_15
REMARK    5  A    between atoms: C_15  and  C_17
REMARK    6  A    between atoms: C_15  and  N_18
REMARK    7  A    between atoms: N_18  and  C_19
REMARK                            x       y       z     vdW  Elec       q    Type
REMARK                         _______ _______ _______ _____ _____    ______ ____
ROOT
ATOM      1  C   UNL     1      -3.432   1.327   4.879  0.00  0.00    +0.154 C 
ATOM      2  C   UNL     1      -4.941   1.359   4.628  0.00  0.00    +0.038 C 
ENDROOT
BRANCH   1   4
ATOM      3  N   UNL     1      -2.850   1.522   2.483  0.00  0.00    -0.311 N 
ATOM      4  C   UNL     1      -2.727   0.841   3.639  0.00  0.00    +0.233 C 
ATOM      5  O   UNL     1      -2.049  -0.164   3.682  0.00  0.00    -0.274 OA
ATOM      6  H   UNL     1      -3.393   2.325   2.449  0.00  0.00    +0.149 HD
BRANCH   3  12
ATOM      7  C   UNL     1      -2.167  -0.467  -1.229  0.00  0.00    +0.008 C 
ATOM      8  C   UNL     1      -2.188   1.063  -1.221  0.00  0.00    -0.009 C 
ATOM      9  C   UNL     1      -0.753   1.593  -1.232  0.00  0.00    +0.003 C 
ATOM     10  C   UNL     1      -0.013   1.086   0.008  0.00  0.00    +0.002 C 
ATOM     11  C   UNL     1      -0.729   1.579   1.267  0.00  0.00    +0.022 C 
ATOM     12  C   UNL     1      -2.164   1.050   1.278  0.00  0.00    +0.076 C 
ATOM     13  C   UNL     1      -2.904   1.556   0.038  0.00  0.00    +0.009 C 
ATOM     14  C   UNL     1      -4.340   1.027   0.049  0.00  0.00    +0.009 C 
ENDBRANCH   3  12
ENDBRANCH   1   4
BRANCH   1  15
ATOM     15  N   UNL     1      -3.142   0.420   5.993  0.00  0.00    -0.333 N 
ATOM     16  H   UNL     1      -2.899  -0.502   5.817  0.00  0.00    +0.147 HD
BRANCH  15  17
ATOM     17  C   UNL     1      -3.216   0.885   7.311  0.00  0.00    +0.031 A 
ATOM     18  C   UNL     1      -3.559   2.207   7.562  0.00  0.00    +0.027 A 
ATOM     19  C   UNL     1      -3.636   2.666   8.864  0.00  0.00    +0.051 A 
ATOM     20  C   UNL     1      -3.363   1.813   9.920  0.00  0.00    +0.166 A 
ATOM     21  C   UNL     1      -3.014   0.488   9.670  0.00  0.00    +0.168 A 
ATOM     22  C   UNL     1      -2.941   0.027   8.366  0.00  0.00    +0.072 A 
ATOM     23  O   UNL     1      -2.796  -0.138  10.864  0.00  0.00    -0.453 OA
ATOM     24  C   UNL     1      -2.617   0.918  11.825  0.00  0.00    +0.466 C 
ATOM     25  O   UNL     1      -3.364   2.016  11.271  0.00  0.00    -0.453 OA
ENDBRANCH  15  17
ENDBRANCH   1  15
TORSDOF 4
