REMARK  Name = ZINC63818763
REMARK  10 active torsions:
REMARK  status: ('A' for Active; 'I' for Inactive)
REMARK    1  A    between atoms: C_1  and  O_2
REMARK    2  A    between atoms: O_2  and  C_3
REMARK    3  A    between atoms: C_6  and  O_31
REMARK    4  A    between atoms: C_10  and  C_13
REMARK    5  A    between atoms: N_15  and  C_16
REMARK    6  A    between atoms: C_16  and  C_17
REMARK    7  A    between atoms: C_17  and  N_18
REMARK    8  A    between atoms: C_19  and  C_21
REMARK    9  A    between atoms: C_21  and  C_22
REMARK   10  A    between atoms: O_31  and  C_32
REMARK                            x       y       z     vdW  Elec       q    Type
REMARK                         _______ _______ _______ _____ _____    ______ ____
ROOT
ATOM      1  C   UNL     1      -0.247  -5.569  -0.025  0.00  0.00    +0.260 C 
ATOM      2  O   UNL     1       0.968  -5.639  -0.037  0.00  0.00    -0.269 OA
ATOM      3  N   UNL     1      -0.988  -6.694  -0.024  0.00  0.00    -0.309 N 
ATOM      4  H   UNL     1      -1.956  -6.638  -0.015  0.00  0.00    +0.149 HD
ENDROOT
BRANCH   1  12
ATOM      5  C   UNL     1      -1.200  -0.637   0.010  0.00  0.00    +0.129 A 
ATOM      6  C   UNL     1      -2.369   0.095   0.019  0.00  0.00    +0.050 A 
ATOM      7  C   UNL     1      -3.601  -0.546   0.028  0.00  0.00    +0.051 A 
ATOM      8  C   UNL     1      -3.677  -1.925   0.027  0.00  0.00    +0.144 A 
ATOM      9  C   UNL     1      -2.509  -2.688   0.017  0.00  0.00    +0.093 A 
ATOM     10  C   UNL     1      -1.258  -2.042   0.003  0.00  0.00    +0.046 A 
ATOM     11  C   UNL     1      -0.270  -3.054  -0.012  0.00  0.00    +0.044 A 
ATOM     12  C   UNL     1      -0.906  -4.255  -0.012  0.00  0.00    +0.103 A 
ATOM     13  N   UNL     1      -2.272  -4.044   0.014  0.00  0.00    -0.348 N 
ATOM     14  H   UNL     1      -2.951  -4.737   0.018  0.00  0.00    +0.166 HD
BRANCH   5  16
ATOM     15  C   UNL     1      -0.017   1.425   0.010  0.00  0.00    +0.277 C 
ATOM     16  O   UNL     1       0.002  -0.004   0.002  0.00  0.00    -0.494 OA
ENDBRANCH   5  16
BRANCH   8  17
ATOM     17  O   UNL     1      -4.891  -2.539   0.036  0.00  0.00    -0.493 OA
ATOM     18  C   UNL     1      -6.045  -1.696   0.047  0.00  0.00    +0.277 C 
ENDBRANCH   8  17
ENDBRANCH   1  12
BRANCH   3  19
ATOM     19  C   UNL     1      -0.331  -8.004  -0.038  0.00  0.00    +0.123 C 
BRANCH  19  20
ATOM     20  C   UNL     1      -1.391  -9.107  -0.033  0.00  0.00    +0.123 C 
BRANCH  20  21
ATOM     21  N   UNL     1      -0.734 -10.416  -0.047  0.00  0.00    -0.314 N 
ATOM     22  C   UNL     1      -1.474 -11.542  -0.046  0.00  0.00    +0.217 C 
ATOM     23  O   UNL     1      -2.685 -11.471  -0.034  0.00  0.00    -0.275 OA
ATOM     24  H   UNL     1       0.235 -10.472  -0.056  0.00  0.00    +0.149 HD
BRANCH  22  25
ATOM     25  C   UNL     1      -0.798 -12.889  -0.059  0.00  0.00    +0.129 C 
BRANCH  25  26
ATOM     26  C   UNL     1      -1.843 -13.975  -0.055  0.00  0.00    -0.033 C 
ATOM     27  C   UNL     1      -2.345 -14.624  -1.130  0.00  0.00    -0.001 A 
ATOM     28  C   UNL     1      -2.080 -14.517  -2.570  0.00  0.00    +0.010 A 
ATOM     29  C   UNL     1      -2.755 -15.320  -3.423  0.00  0.00    +0.001 A 
ATOM     30  C   UNL     1      -3.700 -16.250  -2.968  0.00  0.00    +0.002 A 
ATOM     31  C   UNL     1      -3.998 -16.407  -1.660  0.00  0.00    +0.026 A 
ATOM     32  C   UNL     1      -3.347 -15.614  -0.675  0.00  0.00    +0.043 A 
ATOM     33  N   UNL     1      -3.460 -15.578   0.631  0.00  0.00    -0.380 N 
ATOM     34  C   UNL     1      -2.537 -14.564   1.152  0.00  0.00    +0.145 C 
ATOM     35  H   UNL     1      -4.053 -16.132   1.163  0.00  0.00    +0.160 HD
ENDBRANCH  25  26
ENDBRANCH  22  25
ENDBRANCH  20  21
ENDBRANCH  19  20
ENDBRANCH   3  19
TORSDOF 8
