REMARK  Name = ZINC04878430
REMARK  5 active torsions:
REMARK  status: ('A' for Active; 'I' for Inactive)
REMARK    1  A    between atoms: C_1  and  C_2
REMARK    2  A    between atoms: C_3  and  C_19
REMARK    3  A    between atoms: C_4  and  C_12
REMARK    4  A    between atoms: C_19  and  O_21
REMARK    5  A    between atoms: O_21  and  C_22
REMARK                            x       y       z     vdW  Elec       q    Type
REMARK                         _______ _______ _______ _____ _____    ______ ____
ROOT
ATOM      1  C   UNL     1      -0.018   1.503   0.010  0.00  0.00    +0.061 C 
ATOM      2  C   UNL     1       0.002  -0.004   0.002  0.00  0.00    +0.020 C 
ATOM      3  C   UNL     1      -1.164  -0.668   0.004  0.00  0.00    +0.082 C 
ATOM      4  C   UNL     1      -1.253  -2.171   0.008  0.00  0.00    +0.179 C 
ATOM      5  N   UNL     1       0.061  -2.737  -0.283  0.00  0.00    -0.221 N 
ATOM      6  C   UNL     1       1.207  -2.012  -0.280  0.00  0.00    +0.218 A 
ATOM      7  N   UNL     1       2.193  -2.817  -0.570  0.00  0.00    -0.201 NA
ATOM      8  C   UNL     1       1.720  -4.051  -0.766  0.00  0.00    +0.247 A 
ATOM      9  N   UNL     1       0.420  -4.046  -0.602  0.00  0.00    -0.156 NA
ATOM     10  N   UNL     1       1.212  -0.651  -0.013  0.00  0.00    -0.287 N 
ATOM     11  H   UNL     1       2.040  -0.175   0.160  0.00  0.00    +0.155 HD
ENDROOT
BRANCH   4  12
ATOM     12  C   UNL     1      -1.716  -2.644   1.362  0.00  0.00    -0.017 A 
ATOM     13  C   UNL     1      -0.972  -2.346   2.489  0.00  0.00    +0.006 A 
ATOM     14  C   UNL     1      -1.396  -2.779   3.731  0.00  0.00    +0.001 A 
ATOM     15  C   UNL     1      -2.563  -3.510   3.848  0.00  0.00    +0.015 A 
ATOM     16  C   UNL     1      -3.308  -3.808   2.721  0.00  0.00    +0.018 A 
ATOM     17  C   UNL     1      -2.886  -3.370   1.478  0.00  0.00    +0.021 A 
ATOM     18 BR   UNL     1      -4.904  -4.809   2.879  0.00  0.00    -0.050 Br
ENDBRANCH   4  12
BRANCH   3  19
ATOM     19  C   UNL     1      -2.364   0.077   0.003  0.00  0.00    +0.339 C 
ATOM     20  O   UNL     1      -2.324   1.294   0.000  0.00  0.00    -0.245 OA
BRANCH  19  21
ATOM     21  O   UNL     1      -3.554  -0.559   0.005  0.00  0.00    -0.458 OA
BRANCH  21  22
ATOM     22  C   UNL     1      -4.726   0.258   0.004  0.00  0.00    +0.177 C 
ATOM     23  C   UNL     1      -5.144   0.552   1.446  0.00  0.00    +0.044 C 
ATOM     24  C   UNL     1      -6.400   1.427   1.445  0.00  0.00    +0.004 C 
ATOM     25  C   UNL     1      -7.532   0.692   0.726  0.00  0.00    +0.000 C 
ATOM     26  C   UNL     1      -7.115   0.397  -0.717  0.00  0.00    +0.004 C 
ATOM     27  C   UNL     1      -5.859  -0.477  -0.715  0.00  0.00    +0.044 C 
ENDBRANCH  21  22
ENDBRANCH  19  21
ENDBRANCH   3  19
TORSDOF 4
