REMARK  Name = ZINC08328426
REMARK  7 active torsions:
REMARK  status: ('A' for Active; 'I' for Inactive)
REMARK    1  A    between atoms: C_4  and  C_7
REMARK    2  A    between atoms: C_7  and  C_9
REMARK    3  A    between atoms: C_7  and  N_56
REMARK    4  A    between atoms: C_9  and  C_11
REMARK    5  A    between atoms: C_21  and  C_22
REMARK    6  A    between atoms: C_21  and  N_56
REMARK    7  A    between atoms: C_25  and  N_28
REMARK                            x       y       z     vdW  Elec       q    Type
REMARK                         _______ _______ _______ _____ _____    ______ ____
ROOT
ATOM      1  C   UNL     1       3.653   2.178  -0.021  0.00  0.00    +0.032 C 
ENDROOT
BRANCH   1   5
ATOM      2  C   UNL     1       0.002  -0.038   0.048  0.00  0.00    +0.000 A 
ATOM      3  C   UNL     1      -0.028   1.344   0.054  0.00  0.00    +0.000 A 
ATOM      4  C   UNL     1       1.153   2.061   0.033  0.00  0.00    +0.002 A 
ATOM      5  C   UNL     1       2.365   1.396   0.003  0.00  0.00    -0.054 A 
ATOM      6  C   UNL     1       2.395   0.014  -0.002  0.00  0.00    +0.002 A 
ATOM      7  C   UNL     1       1.213  -0.703   0.021  0.00  0.00    +0.000 A 
ENDBRANCH   1   5
BRANCH   1   8
ATOM      8  N   UNL     1       3.538   3.345   0.873  0.00  0.00    +0.391 N 
ATOM      9  H   UNL     1       2.576   3.704   0.839  0.00  0.00    -0.084 HD
ATOM     10  H   UNL     1       4.187   4.077   0.560  0.00  0.00    -0.084 HD
BRANCH   8  11
ATOM     11  C   UNL     1       3.866   2.964   2.259  0.00  0.00    -0.045 C 
BRANCH  11  12
ATOM     12  C   UNL     1       3.739   4.174   3.148  0.00  0.00    -0.064 A 
ATOM     13  C   UNL     1       4.834   4.992   3.360  0.00  0.00    +0.003 A 
ATOM     14  C   UNL     1       4.720   6.105   4.170  0.00  0.00    +0.024 A 
ATOM     15  C   UNL     1       3.507   6.397   4.779  0.00  0.00    +0.036 A 
ATOM     16  C   UNL     1       2.411   5.571   4.569  0.00  0.00    +0.024 A 
ATOM     17  C   UNL     1       2.530   4.462   3.754  0.00  0.00    +0.003 A 
BRANCH  15  18
ATOM     18  N   UNL     1       3.390   7.521   5.604  0.00  0.00    -0.271 N 
ATOM     19  C   UNL     1       2.130   7.987   6.195  0.00  0.00    +0.114 C 
ATOM     20  C   UNL     1       2.394   9.443   6.635  0.00  0.00    +0.029 C 
ATOM     21  C   UNL     1       3.926   9.437   6.844  0.00  0.00    +0.098 C 
ATOM     22  C   UNL     1       4.418   8.310   5.961  0.00  0.00    +0.220 C 
ATOM     23  O   UNL     1       5.571   8.146   5.623  0.00  0.00    -0.275 OA
ENDBRANCH  15  18
ENDBRANCH  11  12
ENDBRANCH   8  11
ENDBRANCH   1   8
BRANCH   1  24
ATOM     24  C   UNL     1       3.925   2.654  -1.425  0.00  0.00    +0.156 C 
ATOM     25  O   UNL     1       3.749   3.820  -1.715  0.00  0.00    -0.293 OA
BRANCH  24  26
ATOM     26  C   UNL     1       4.386   1.741  -2.406  0.00  0.00    +0.041 A 
ATOM     27  C   UNL     1       4.633   0.396  -2.234  0.00  0.00    +0.095 A 
ATOM     28  N   UNL     1       5.059  -0.138  -3.395  0.00  0.00    -0.360 N 
ATOM     29  H   UNL     1       5.296  -1.070  -3.519  0.00  0.00    +0.165 HD
ATOM     30  C   UNL     1       5.115   0.824  -4.383  0.00  0.00    +0.047 A 
ATOM     31  C   UNL     1       4.693   2.038  -3.819  0.00  0.00    +0.010 A 
ATOM     32  C   UNL     1       4.643   3.191  -4.597  0.00  0.00    +0.011 A 
ATOM     33  C   UNL     1       5.007   3.134  -5.925  0.00  0.00    +0.001 A 
ATOM     34  C   UNL     1       5.421   1.935  -6.486  0.00  0.00    +0.002 A 
ATOM     35  C   UNL     1       5.482   0.788  -5.724  0.00  0.00    +0.026 A 
ENDBRANCH  24  26
ENDBRANCH   1  24
TORSDOF 7
