REMARK  Name = ZINC26963980
REMARK  9 active torsions:
REMARK  status: ('A' for Active; 'I' for Inactive)
REMARK    1  A    between atoms: C_1  and  C_2
REMARK    2  A    between atoms: C_5  and  C_8
REMARK    3  A    between atoms: C_8  and  S_9
REMARK    4  A    between atoms: S_9  and  N_12
REMARK    5  A    between atoms: N_12  and  C_13
REMARK    6  A    between atoms: C_16  and  C_35
REMARK    7  A    between atoms: N_17  and  C_20
REMARK    8  A    between atoms: C_20  and  C_21
REMARK    9  A    between atoms: N_23  and  C_24
REMARK                            x       y       z     vdW  Elec       q    Type
REMARK                         _______ _______ _______ _____ _____    ______ ____
ROOT
ATOM      1  C   UNL     1      -0.017   1.396   0.010  0.00  0.00    +0.112 A 
ATOM      2  C   UNL     1       1.153   2.104   0.002  0.00  0.00    +0.031 A 
ATOM      3  C   UNL     1       1.106   3.506   0.010  0.00  0.00    +0.023 A 
ATOM      4  C   UNL     1      -0.087   4.143   0.025  0.00  0.00    +0.020 A 
ATOM      5  N   UNL     1      -1.252   3.441   0.033  0.00  0.00    -0.302 N 
ATOM      6  C   UNL     1      -1.245   2.094   0.019  0.00  0.00    +0.274 A 
ATOM      7  O   UNL     1      -2.298   1.478   0.021  0.00  0.00    -0.266 OA
ATOM      8  C   UNL     1      -0.126   5.649   0.034  0.00  0.00    +0.063 C 
ENDROOT
BRANCH   1   9
ATOM      9  N   UNL     1       0.002  -0.004   0.002  0.00  0.00    -0.215 N 
ATOM     10  H   UNL     1      -0.943  -0.567   0.008  0.00  0.00    +0.173 HD
BRANCH   9  11
ATOM     11  S   UNL     1       1.447  -0.812  -0.016  0.00  0.00    +0.047 S 
ATOM     12  O   UNL     1       1.093  -2.188  -0.045  0.00  0.00    -0.155 OA
ATOM     13  O   UNL     1       2.175  -0.230  -1.088  0.00  0.00    -0.155 OA
BRANCH  11  14
ATOM     14  C   UNL     1       2.231  -0.402   1.567  0.00  0.00    +0.223 C 
BRANCH  14  19
ATOM     15  C   UNL     1       7.357  -3.046   1.923  0.00  0.00    +0.044 C 
ATOM     16  C   UNL     1       6.020  -2.356   1.831  0.00  0.00    -0.050 A 
ATOM     17  C   UNL     1       5.932  -1.091   1.282  0.00  0.00    +0.003 A 
ATOM     18  C   UNL     1       4.706  -0.458   1.197  0.00  0.00    +0.005 A 
ATOM     19  C   UNL     1       3.568  -1.091   1.660  0.00  0.00    -0.025 A 
ATOM     20  C   UNL     1       3.657  -2.355   2.214  0.00  0.00    +0.005 A 
ATOM     21  C   UNL     1       4.882  -2.989   2.295  0.00  0.00    +0.003 A 
ENDBRANCH  14  19
ENDBRANCH  11  14
ENDBRANCH   9  11
ENDBRANCH   1   9
BRANCH   5  22
ATOM     22  C   UNL     1      -2.529   4.158   0.049  0.00  0.00    +0.220 C 
BRANCH  22  23
ATOM     23  C   UNL     1      -2.981   4.412  -1.367  0.00  0.00    +0.233 C 
ATOM     24  O   UNL     1      -2.302   4.031  -2.297  0.00  0.00    -0.274 OA
ATOM     25  N   UNL     1      -4.138   5.061  -1.598  0.00  0.00    -0.311 N 
ATOM     26  H   UNL     1      -4.754   5.407  -0.754  0.00  0.00    +0.149 HD
BRANCH  25  27
ATOM     27  C   UNL     1      -4.578   5.308  -2.974  0.00  0.00    +0.078 C 
ATOM     28  C   UNL     1      -6.099   5.483  -3.004  0.00  0.00    +0.029 C 
ATOM     29  C   UNL     1      -6.598   5.496  -4.450  0.00  0.00    +0.058 C 
ATOM     30  C   UNL     1      -5.806   6.537  -5.233  0.00  0.00    +0.054 A 
ATOM     31  C   UNL     1      -4.618   6.991  -4.760  0.00  0.00    +0.016 A 
ATOM     32  S   UNL     1      -4.121   8.152  -6.003  0.00  0.00    -0.057 S 
ATOM     33  C   UNL     1      -5.500   7.954  -7.043  0.00  0.00    +0.156 A 
ATOM     34  N   UNL     1      -6.209   7.054  -6.392  0.00  0.00    -0.230 NA
ATOM     35  N   UNL     1      -5.781   8.582  -8.246  0.00  0.00    -0.338 N 
ATOM     36  C   UNL     1      -3.923   6.595  -3.501  0.00  0.00    +0.066 C 
ATOM     37  H   UNL     1      -6.708   8.342  -8.788  0.00  0.00    +0.144 HD
ATOM     38  H   UNL     1      -5.077   9.319  -8.660  0.00  0.00    +0.144 HD
ENDBRANCH  25  27
ENDBRANCH  22  23
ENDBRANCH   5  22
TORSDOF 7
