REMARK  Name = ZINC10289759
REMARK  12 active torsions:
REMARK  status: ('A' for Active; 'I' for Inactive)
REMARK    1  A    between atoms: C_1  and  C_2
REMARK    2  A    between atoms: C_2  and  O_3
REMARK    3  A    between atoms: O_3  and  C_4
REMARK    4  A    between atoms: C_4  and  C_6
REMARK    5  A    between atoms: C_11  and  N_12
REMARK    6  A    between atoms: C_13  and  C_15
REMARK    7  A    between atoms: C_15  and  S_16
REMARK    8  A    between atoms: S_16  and  C_17
REMARK    9  A    between atoms: C_20  and  C_29
REMARK   10  A    between atoms: N_21  and  C_22
REMARK   11  A    between atoms: C_22  and  C_23
REMARK   12  A    between atoms: C_29  and  N_66
REMARK                            x       y       z     vdW  Elec       q    Type
REMARK                         _______ _______ _______ _____ _____    ______ ____
ROOT
ATOM      1  C   UNL     1       1.220  -0.430   0.046  0.00  0.00    +0.192 A 
ATOM      2  N   UNL     1      -0.022  -0.005   0.074  0.00  0.00    -0.123 NA
ATOM      3  N   UNL     1      -0.043   1.280   0.096  0.00  0.00    -0.135 NA
ATOM      4  C   UNL     1       1.173   1.748   0.085  0.00  0.00    +0.118 A 
ATOM      5  N   UNL     1       2.022   0.676   0.052  0.00  0.00    -0.303 N 
ENDROOT
BRANCH   1   6
ATOM      6  S   UNL     1       1.752  -2.109   0.007  0.00  0.00    -0.077 S 
BRANCH   6   7
ATOM      7  C   UNL     1       0.148  -2.947   0.020  0.00  0.00    +0.173 C 
BRANCH   7   9
ATOM      8  N   UNL     1      -0.700  -5.271  -0.007  0.00  0.00    -0.284 N 
ATOM      9  C   UNL     1       0.360  -4.439  -0.010  0.00  0.00    +0.228 C 
ATOM     10  O   UNL     1       1.485  -4.891  -0.037  0.00  0.00    -0.275 OA
ATOM     11  H   UNL     1      -1.597  -4.913   0.080  0.00  0.00    +0.155 HD
BRANCH   8  17
ATOM     12  C   UNL     1      -1.432  -7.426  -0.838  0.00  0.00    +0.080 A 
ATOM     13  C   UNL     1      -1.227  -8.804  -0.952  0.00  0.00    +0.017 A 
ATOM     14  C   UNL     1      -0.122  -9.385  -0.369  0.00  0.00    +0.001 A 
ATOM     15  C   UNL     1       0.789  -8.610   0.331  0.00  0.00    +0.002 A 
ATOM     16  C   UNL     1       0.603  -7.247   0.448  0.00  0.00    +0.024 A 
ATOM     17  C   UNL     1      -0.508  -6.645  -0.128  0.00  0.00    +0.047 A 
BRANCH  12  18
ATOM     18  C   UNL     1      -2.611  -6.798  -1.460  0.00  0.00    +0.341 C 
ATOM     19  O   UNL     1      -2.736  -5.590  -1.443  0.00  0.00    -0.245 OA
BRANCH  18  20
ATOM     20  O   UNL     1      -3.552  -7.564  -2.047  0.00  0.00    -0.461 OA
BRANCH  20  22
ATOM     21  C   UNL     1      -5.640  -7.904  -3.253  0.00  0.00    +0.048 C 
ATOM     22  C   UNL     1      -4.686  -6.878  -2.639  0.00  0.00    +0.229 C 
ENDBRANCH  20  22
ENDBRANCH  18  20
ENDBRANCH  12  18
ENDBRANCH   8  17
ENDBRANCH   7   9
ENDBRANCH   6   7
ENDBRANCH   1   6
BRANCH   5  23
ATOM     23  C   UNL     1       3.486   0.707   0.028  0.00  0.00    +0.160 C 
BRANCH  23  24
ATOM     24  C   UNL     1       3.964   0.742  -1.401  0.00  0.00    -0.028 A 
ATOM     25  C   UNL     1       4.214  -0.439  -2.076  0.00  0.00    +0.005 A 
ATOM     26  C   UNL     1       4.648  -0.406  -3.388  0.00  0.00    +0.000 A 
ATOM     27  C   UNL     1       4.842   0.807  -4.022  0.00  0.00    +0.000 A 
ATOM     28  C   UNL     1       4.597   1.987  -3.346  0.00  0.00    +0.000 A 
ATOM     29  C   UNL     1       4.158   1.955  -2.035  0.00  0.00    +0.005 A 
ENDBRANCH  23  24
ENDBRANCH   5  23
BRANCH   4  30
ATOM     30  C   UNL     1       1.571   3.201   0.103  0.00  0.00    -0.001 C 
BRANCH  30  36
ATOM     31  C   UNL     1       0.436   3.626   2.198  0.00  0.00    -0.078 C 
ATOM     32  C   UNL     1       0.655   3.957   3.676  0.00  0.00    -0.019 C 
ATOM     33  C   UNL     1       1.297   5.343   3.793  0.00  0.00    -0.004 C 
ATOM     34  C   UNL     1       2.613   5.355   3.010  0.00  0.00    -0.019 C 
ATOM     35  C   UNL     1       2.337   4.983   1.552  0.00  0.00    -0.078 C 
ATOM     36  N   UNL     1       1.742   3.630   1.506  0.00  0.00    +0.384 N 
ATOM     37  H   UNL     1       2.373   2.973   1.981  0.00  0.00    -0.081 HD
ENDBRANCH  30  36
ENDBRANCH   4  30
TORSDOF 11
