REMARK  Name = ZINC13487339
REMARK  9 active torsions:
REMARK  status: ('A' for Active; 'I' for Inactive)
REMARK    1  A    between atoms: C_1  and  C_2
REMARK    2  A    between atoms: C_2  and  C_3
REMARK    3  A    between atoms: C_3  and  N_4
REMARK    4  A    between atoms: N_4  and  C_5
REMARK    5  A    between atoms: N_4  and  C_10
REMARK    6  A    between atoms: C_15  and  C_16
REMARK    7  A    between atoms: C_15  and  N_75
REMARK    8  A    between atoms: C_21  and  C_23
REMARK    9  A    between atoms: C_29  and  C_31
REMARK                            x       y       z     vdW  Elec       q    Type
REMARK                         _______ _______ _______ _____ _____    ______ ____
ROOT
ATOM      1  C   UNL     1       4.831   2.262  -0.241  0.00  0.00    -0.073 C 
ENDROOT
BRANCH   1   7
ATOM      2  C   UNL     1       7.378  -0.639  -2.079  0.00  0.00    +0.071 C 
ATOM      3  C   UNL     1       6.126  -0.160  -2.817  0.00  0.00    +0.004 C 
ATOM      4  C   UNL     1       5.679   1.183  -2.236  0.00  0.00    -0.077 C 
ATOM      5  C   UNL     1       6.595   0.614  -0.066  0.00  0.00    -0.077 C 
ATOM      6  C   UNL     1       7.070  -0.746  -0.583  0.00  0.00    +0.004 C 
ATOM      7  N   UNL     1       5.374   1.007  -0.800  0.00  0.00    +0.380 N 
ATOM      8  H   UNL     1       4.671   0.265  -0.698  0.00  0.00    -0.082 HD
BRANCH   2   9
ATOM      9  N   UNL     1       7.777  -1.952  -2.592  0.00  0.00    -0.314 N 
BRANCH   9  10
ATOM     10  C   UNL     1       9.068  -2.149  -3.067  0.00  0.00    +0.099 A 
ATOM     11  C   UNL     1       9.985  -1.103  -3.028  0.00  0.00    +0.042 A 
ATOM     12  C   UNL     1      11.266  -1.314  -3.504  0.00  0.00    +0.005 A 
ATOM     13  C   UNL     1      11.590  -2.568  -4.005  0.00  0.00    +0.018 A 
ATOM     14  C   UNL     1      10.630  -3.561  -4.013  0.00  0.00    +0.084 A 
ATOM     15  N   UNL     1       9.364  -3.392  -3.548  0.00  0.00    -0.350 N 
ATOM     16  H   UNL     1       8.673  -4.151  -3.559  0.00  0.00    +0.166 HD
ENDBRANCH   9  10
BRANCH   9  17
ATOM     17  C   UNL     1       6.815  -3.056  -2.605  0.00  0.00    +0.106 C 
BRANCH  17  19
ATOM     18  C   UNL     1       5.048  -4.207  -3.944  0.00  0.00    +0.005 C 
ATOM     19  C   UNL     1       6.053  -3.054  -3.931  0.00  0.00    +0.016 C 
ENDBRANCH  17  19
ENDBRANCH   9  17
ENDBRANCH   2   9
ENDBRANCH   1   7
BRANCH   1  20
ATOM     20  C   UNL     1       3.367   2.393  -0.665  0.00  0.00    -0.001 C 
ATOM     21  C   UNL     1       2.479   1.363   0.081  0.00  0.00    +0.110 C 
ATOM     22  N   UNL     1       1.130   1.957   0.076  0.00  0.00    -0.300 N 
ATOM     23  C   UNL     1       1.258   3.415  -0.057  0.00  0.00    +0.116 C 
ATOM     24  C   UNL     1       2.763   3.735  -0.171  0.00  0.00    +0.039 C 
ATOM     25  C   UNL     1      -0.028   1.276   0.183  0.00  0.00    +0.219 C 
ATOM     26  O   UNL     1      -0.014   0.068   0.289  0.00  0.00    -0.275 OA
BRANCH  24  27
ATOM     27  C   UNL     1       3.000   4.832  -1.177  0.00  0.00    -0.043 A 
ATOM     28  C   UNL     1       2.591   4.669  -2.487  0.00  0.00    +0.004 A 
ATOM     29  C   UNL     1       2.805   5.678  -3.408  0.00  0.00    +0.000 A 
ATOM     30  C   UNL     1       3.436   6.845  -3.021  0.00  0.00    +0.000 A 
ATOM     31  C   UNL     1       3.849   7.006  -1.712  0.00  0.00    +0.000 A 
ATOM     32  C   UNL     1       3.631   6.000  -0.790  0.00  0.00    +0.004 A 
ENDBRANCH  24  27
BRANCH  25  33
ATOM     33  C   UNL     1      -1.341   2.015   0.163  0.00  0.00    +0.075 C 
ATOM     34  C   UNL     1      -1.739   2.599   1.529  0.00  0.00    +0.013 C 
ATOM     35  C   UNL     1      -3.179   2.167   1.206  0.00  0.00    +0.001 C 
ATOM     36  C   UNL     1      -2.568   1.096   0.287  0.00  0.00    +0.013 C 
ENDBRANCH  25  33
ENDBRANCH   1  20
TORSDOF 8
