REMARK  Name = ZINC25424411
REMARK  6 active torsions:
REMARK  status: ('A' for Active; 'I' for Inactive)
REMARK    1  A    between atoms: C_1  and  O_2
REMARK    2  A    between atoms: O_2  and  C_3
REMARK    3  A    between atoms: C_6  and  N_9
REMARK    4  A    between atoms: C_13  and  C_15
REMARK    5  A    between atoms: C_15  and  N_16
REMARK    6  A    between atoms: C_20  and  C_22
REMARK                            x       y       z     vdW  Elec       q    Type
REMARK                         _______ _______ _______ _____ _____    ______ ____
ROOT
ATOM      1  N   UNL     1      -0.042   0.905   0.048  0.00  0.00    -0.269 N 
ATOM      2  C   UNL     1       1.088   1.640   0.049  0.00  0.00    +0.310 C 
ATOM      3  O   UNL     1       1.024   2.852  -0.011  0.00  0.00    -0.252 OA
ATOM      4  N   UNL     1       2.288   1.031   0.117  0.00  0.00    -0.241 N 
ATOM      5  C   UNL     1       3.418   1.766   0.118  0.00  0.00    +0.204 C 
ATOM      6  O   UNL     1       3.355   2.975   0.058  0.00  0.00    -0.277 OA
ATOM      7  H   UNL     1       0.016  -0.193   0.035  0.00  0.00    +0.156 HD
ATOM      8  H   UNL     1       2.345  -0.066   0.172  0.00  0.00    +0.159 HD
ENDROOT
BRANCH   1  12
ATOM      9  C   UNL     1      -3.759   2.796   0.092  0.00  0.00    +0.120 A 
ATOM     10  C   UNL     1      -2.700   3.365  -0.600  0.00  0.00    +0.047 A 
ATOM     11  C   UNL     1      -1.468   2.739  -0.615  0.00  0.00    +0.027 A 
ATOM     12  C   UNL     1      -1.291   1.540   0.063  0.00  0.00    +0.035 A 
ATOM     13  C   UNL     1      -2.353   0.969   0.750  0.00  0.00    +0.027 A 
ATOM     14  C   UNL     1      -3.582   1.598   0.769  0.00  0.00    +0.047 A 
BRANCH   9  16
ATOM     15  C   UNL     1      -6.016   2.771   0.840  0.00  0.00    +0.277 C 
ATOM     16  O   UNL     1      -4.970   3.412   0.107  0.00  0.00    -0.495 OA
ENDBRANCH   9  16
ENDBRANCH   1  12
BRANCH   5  17
ATOM     17  C   UNL     1       4.760   1.084   0.195  0.00  0.00    +0.020 C 
BRANCH  17  18
ATOM     18  N   UNL     1       5.819   2.098   0.294  0.00  0.00    +0.390 N 
ATOM     19  C   UNL     1       5.902   2.901  -0.945  0.00  0.00    -0.077 C 
ATOM     20  C   UNL     1       7.385   3.254  -1.156  0.00  0.00    -0.020 C 
ATOM     21  C   UNL     1       8.132   2.578   0.017  0.00  0.00    -0.012 C 
ATOM     22  C   UNL     1       7.151   1.461   0.454  0.00  0.00    -0.030 C 
ATOM     23  H   UNL     1       5.556   2.721   1.162  0.00  0.00    -0.080 HD
BRANCH  22  24
ATOM     24  C   UNL     1       7.388   1.078   1.892  0.00  0.00    -0.024 A 
ATOM     25  C   UNL     1       7.973  -0.038   2.393  0.00  0.00    +0.009 A 
ATOM     26  C   UNL     1       8.085  -0.178   3.763  0.00  0.00    +0.008 A 
ATOM     27  C   UNL     1       7.608   0.804   4.566  0.00  0.00    +0.045 A 
ATOM     28  S   UNL     1       6.981   1.980   3.378  0.00  0.00    -0.103 S 
ENDBRANCH  22  24
ENDBRANCH  17  18
ENDBRANCH   5  17
TORSDOF 5
