REMARK  Name = ZINC32107164
REMARK  11 active torsions:
REMARK  status: ('A' for Active; 'I' for Inactive)
REMARK    1  A    between atoms: C_1  and  C_2
REMARK    2  A    between atoms: C_2  and  O_3
REMARK    3  A    between atoms: O_3  and  C_4
REMARK    4  A    between atoms: C_4  and  C_6
REMARK    5  A    between atoms: C_7  and  N_17
REMARK    6  A    between atoms: C_18  and  C_36
REMARK    7  A    between atoms: C_20  and  C_23
REMARK    8  A    between atoms: C_21  and  C_22
REMARK    9  A    between atoms: N_24  and  N_25
REMARK   10  A    between atoms: N_28  and  C_29
REMARK   11  A    between atoms: C_32  and  C_35
REMARK                            x       y       z     vdW  Elec       q    Type
REMARK                         _______ _______ _______ _____ _____    ______ ____
ROOT
ATOM      1  N   UNL     1       0.117  -0.855   1.129  0.00  0.00    -0.311 N 
ATOM      2  C   UNL     1       0.092  -2.175   0.768  0.00  0.00    +0.022 A 
ATOM      3  C   UNL     1       0.110  -2.258  -0.574  0.00  0.00    +0.032 A 
ATOM      4  C   UNL     1       0.143  -0.881  -1.080  0.00  0.00    +0.016 A 
ATOM      5  C   UNL     1       0.151  -0.069   0.015  0.00  0.00    +0.030 A 
ATOM      6  C   UNL     1       0.186   1.437  -0.002  0.00  0.00    +0.064 C 
ATOM      7  C   UNL     1       0.052  -3.344   1.718  0.00  0.00    +0.064 C 
ENDROOT
BRANCH   1   9
ATOM      8  C   UNL     1      -0.930  -0.434   3.311  0.00  0.00    +0.071 C 
ATOM      9  C   UNL     1       0.109  -0.388   2.432  0.00  0.00    +0.091 C 
ATOM     10  S   UNL     1       1.451   0.402   3.294  0.00  0.00    -0.103 S 
ATOM     11  C   UNL     1       0.633   0.737   4.906  0.00  0.00    +0.061 C 
ATOM     12  C   UNL     1      -0.718   0.094   4.679  0.00  0.00    +0.042 C 
ATOM     13  C   UNL     1      -1.924   0.729   5.300  0.00  0.00    +0.009 C 
ATOM     14  C   UNL     1      -1.869   2.253   5.269  0.00  0.00    +0.001 C 
ATOM     15  C   UNL     1      -0.570   2.698   5.949  0.00  0.00    +0.001 C 
ATOM     16  C   UNL     1       0.603   2.239   5.114  0.00  0.00    +0.015 C 
BRANCH   8  17
ATOM     17  C   UNL     1      -2.170  -0.971   2.932  0.00  0.00    +0.338 C 
ATOM     18  O   UNL     1      -2.369  -1.283   1.771  0.00  0.00    -0.245 OA
BRANCH  17  19
ATOM     19  O   UNL     1      -3.142  -1.143   3.854  0.00  0.00    -0.462 OA
BRANCH  19  21
ATOM     20  C   UNL     1      -5.349  -1.814   4.574  0.00  0.00    +0.048 C 
ATOM     21  C   UNL     1      -4.378  -1.695   3.397  0.00  0.00    +0.229 C 
ENDBRANCH  19  21
ENDBRANCH  17  19
ENDBRANCH   8  17
ENDBRANCH   1   9
BRANCH   4  22
ATOM     22  C   UNL     1       0.165  -0.460  -2.493  0.00  0.00    +0.140 C 
ATOM     23  N   UNL     1       0.196   0.802  -2.793  0.00  0.00    -0.186 NA
BRANCH  23  24
ATOM     24  N   UNL     1       0.217   1.202  -4.136  0.00  0.00    -0.191 N 
ATOM     25  C   UNL     1       0.249   2.513  -4.448  0.00  0.00    +0.323 C 
ATOM     26  O   UNL     1       0.268   2.861  -5.613  0.00  0.00    -0.251 OA
ATOM     27  N   UNL     1       0.262   3.439  -3.468  0.00  0.00    -0.268 N 
ATOM     28  H   UNL     1       0.207   0.447  -4.935  0.00  0.00    +0.179 HD
ATOM     29  H   UNL     1       0.330   3.125  -2.416  0.00  0.00    +0.156 HD
BRANCH  27  30
ATOM     30  C   UNL     1       0.187   4.799  -3.789  0.00  0.00    +0.035 A 
ATOM     31  C   UNL     1       0.861   5.734  -3.015  0.00  0.00    +0.023 A 
ATOM     32  C   UNL     1       0.790   7.075  -3.338  0.00  0.00    +0.005 A 
ATOM     33  C   UNL     1       0.040   7.487  -4.425  0.00  0.00    -0.050 A 
ATOM     34  C   UNL     1      -0.636   6.559  -5.194  0.00  0.00    +0.005 A 
ATOM     35  C   UNL     1      -0.565   5.216  -4.880  0.00  0.00    +0.023 A 
ATOM     36  C   UNL     1      -0.041   8.952  -4.770  0.00  0.00    +0.044 C 
ENDBRANCH  27  30
ENDBRANCH  23  24
ENDBRANCH   4  22
TORSDOF 7
