REMARK  Name = ZINC09797265
REMARK  8 active torsions:
REMARK  status: ('A' for Active; 'I' for Inactive)
REMARK    1  A    between atoms: C_4  and  C_7
REMARK    2  A    between atoms: C_7  and  N_8
REMARK    3  A    between atoms: C_9  and  N_35
REMARK    4  A    between atoms: C_10  and  N_17
REMARK    5  A    between atoms: N_17  and  C_18
REMARK    6  A    between atoms: C_18  and  C_19
REMARK    7  A    between atoms: C_19  and  C_20
REMARK    8  A    between atoms: C_26  and  C_28
REMARK                            x       y       z     vdW  Elec       q    Type
REMARK                         _______ _______ _______ _____ _____    ______ ____
ROOT
ATOM      1  N   UNL     1       1.954   3.885  -1.365  0.00  0.00    -0.276 N 
ATOM      2  C   UNL     1       0.663   3.418  -1.285  0.00  0.00    +0.128 A 
ATOM      3  C   UNL     1      -0.198   3.974  -0.361  0.00  0.00    +0.140 A 
ATOM      4  C   UNL     1       0.277   4.997   0.481  0.00  0.00    +0.277 A 
ATOM      5  O   UNL     1      -0.461   5.502   1.310  0.00  0.00    -0.266 OA
ATOM      6  N   UNL     1       1.553   5.414   0.365  0.00  0.00    -0.273 N 
ATOM      7  H   UNL     1       1.891   6.141   0.963  0.00  0.00    +0.173 HD
ATOM      8  C   UNL     1       2.376   4.865  -0.545  0.00  0.00    +0.331 A 
ATOM      9  O   UNL     1       3.523   5.260  -0.628  0.00  0.00    -0.246 OA
ENDROOT
BRANCH   3  10
ATOM     10  N   UNL     1      -1.530   3.521  -0.258  0.00  0.00    -0.260 N 
ATOM     11  C   UNL     1      -1.782   2.245   0.099  0.00  0.00    +0.251 C 
ATOM     12  O   UNL     1      -2.927   1.837   0.127  0.00  0.00    -0.270 OA
BRANCH  11  13
ATOM     13  C   UNL     1      -0.667   1.343   0.455  0.00  0.00    +0.037 A 
ATOM     14  C   UNL     1       0.554   1.872   0.878  0.00  0.00    +0.014 A 
ATOM     15  C   UNL     1       1.593   1.025   1.203  0.00  0.00    +0.021 A 
ATOM     16  C   UNL     1       1.427  -0.347   1.111  0.00  0.00    +0.041 A 
ATOM     17  C   UNL     1       0.218  -0.877   0.692  0.00  0.00    +0.021 A 
ATOM     18  C   UNL     1      -0.828  -0.040   0.364  0.00  0.00    +0.014 A 
ATOM     19 CL   UNL     1       2.739  -1.406   1.523  0.00  0.00    -0.084 Cl
ENDBRANCH  11  13
BRANCH  10  20
ATOM     20  C   UNL     1      -2.639   4.436  -0.538  0.00  0.00    +0.118 C 
BRANCH  20  21
ATOM     21  C   UNL     1      -3.173   5.007   0.777  0.00  0.00    +0.050 C 
BRANCH  21  22
ATOM     22  C   UNL     1      -4.357   5.895   0.494  0.00  0.00    -0.072 C 
ATOM     23  C   UNL     1      -5.540   5.377   0.584  0.00  0.00    -0.028 C 
ATOM     24  C   UNL     1      -6.811   6.131   0.323  0.00  0.00    +0.027 C 
ATOM     25  C   UNL     1      -6.547   7.638   0.364  0.00  0.00    +0.004 C 
ATOM     26  C   UNL     1      -5.333   7.942  -0.523  0.00  0.00    +0.005 C 
ATOM     27  C   UNL     1      -4.093   7.327   0.133  0.00  0.00    +0.030 C 
ENDBRANCH  21  22
ENDBRANCH  20  21
ENDBRANCH  10  20
ENDBRANCH   3  10
BRANCH   2  28
ATOM     28  N   UNL     1       0.234   2.413  -2.119  0.00  0.00    -0.343 N 
ATOM     29  H   UNL     1      -0.696   2.136  -2.105  0.00  0.00    +0.144 HD
ATOM     30  H   UNL     1       0.860   1.982  -2.721  0.00  0.00    +0.144 HD
ENDBRANCH   2  28
BRANCH   1  31
ATOM     31  C   UNL     1       2.878   3.308  -2.345  0.00  0.00    +0.163 C 
BRANCH  31  35
ATOM     32  C   UNL     1       4.873  -0.051  -0.618  0.00  0.00    +0.000 A 
ATOM     33  C   UNL     1       3.747  -0.241  -1.397  0.00  0.00    +0.000 A 
ATOM     34  C   UNL     1       3.101   0.846  -1.956  0.00  0.00    +0.005 A 
ATOM     35  C   UNL     1       3.581   2.123  -1.736  0.00  0.00    -0.028 A 
ATOM     36  C   UNL     1       4.710   2.313  -0.960  0.00  0.00    +0.005 A 
ATOM     37  C   UNL     1       5.353   1.227  -0.397  0.00  0.00    +0.000 A 
ENDBRANCH  31  35
ENDBRANCH   1  31
TORSDOF 8
