REMARK  Name = ZINC22608194
REMARK  3 active torsions:
REMARK  status: ('A' for Active; 'I' for Inactive)
REMARK    1  A    between atoms: C_1  and  C_2
REMARK    2  A    between atoms: C_7  and  C_19
REMARK    3  A    between atoms: C_12  and  C_14
REMARK                            x       y       z     vdW  Elec       q    Type
REMARK                         _______ _______ _______ _____ _____    ______ ____
ROOT
ATOM      1  C   UNL     1      -2.339   5.258   4.797  0.00  0.00    +0.008 C 
ATOM      2  C   UNL     1      -2.301   4.451   3.498  0.00  0.00    -0.001 C 
ATOM      3  C   UNL     1      -1.359   5.127   2.499  0.00  0.00    +0.055 C 
ATOM      4  C   UNL     1      -1.289   4.307   1.232  0.00  0.00    +0.020 C 
ATOM      5  C   UNL     1      -1.422   2.964   1.268  0.00  0.00    +0.041 C 
ATOM      6  C   UNL     1      -1.332   2.113   0.020  0.00  0.00    +0.175 C 
ATOM      7  N   UNL     1      -1.424   2.956  -1.166  0.00  0.00    -0.220 N 
ATOM      8  C   UNL     1      -1.299   4.306  -1.134  0.00  0.00    +0.219 A 
ATOM      9  N   UNL     1      -1.424   4.751  -2.354  0.00  0.00    -0.189 NA
ATOM     10  C   UNL     1      -1.633   3.725  -3.185  0.00  0.00    +0.256 A 
ATOM     11  N   UNL     1      -1.641   2.609  -2.498  0.00  0.00    -0.143 NA
ATOM     12  N   UNL     1      -1.082   4.984   0.054  0.00  0.00    -0.287 N 
ATOM     13  C   UNL     1      -1.653   2.293   2.483  0.00  0.00    +0.163 C 
ATOM     14  O   UNL     1      -1.758   1.083   2.482  0.00  0.00    -0.292 OA
ATOM     15  C   UNL     1      -1.773   3.041   3.781  0.00  0.00    +0.083 C 
ATOM     16  H   UNL     1      -0.754   6.034   0.074  0.00  0.00    +0.155 HD
ENDROOT
BRANCH   6  17
ATOM     17  C   UNL     1      -0.017   1.378   0.010  0.00  0.00    -0.017 A 
ATOM     18  C   UNL     1       1.171   2.086   0.002  0.00  0.00    +0.006 A 
ATOM     19  C   UNL     1       2.378   1.412  -0.013  0.00  0.00    +0.002 A 
ATOM     20  C   UNL     1       2.398   0.029  -0.021  0.00  0.00    +0.020 A 
ATOM     21  C   UNL     1       1.210  -0.679  -0.013  0.00  0.00    +0.041 A 
ATOM     22  C   UNL     1       0.002  -0.004   0.002  0.00  0.00    +0.026 A 
ATOM     23 CL   UNL     1       1.234  -2.415  -0.023  0.00  0.00    -0.084 Cl
ENDBRANCH   6  17
BRANCH  10  24
ATOM     24  C   UNL     1      -1.826   3.834  -4.676  0.00  0.00    +0.454 C 
ATOM     25  F   UNL     1      -1.422   5.103  -5.106  0.00  0.00    -0.163 F 
ATOM     26  F   UNL     1      -1.058   2.857  -5.319  0.00  0.00    -0.163 F 
ATOM     27  F   UNL     1      -3.177   3.645  -4.986  0.00  0.00    -0.163 F 
ENDBRANCH  10  24
TORSDOF 2
