REMARK  Name = ZINC13121065
REMARK  7 active torsions:
REMARK  status: ('A' for Active; 'I' for Inactive)
REMARK    1  A    between atoms: C_1  and  C_2
REMARK    2  A    between atoms: C_2  and  C_4
REMARK    3  A    between atoms: C_2  and  S_17
REMARK    4  A    between atoms: S_17  and  C_18
REMARK    5  A    between atoms: C_21  and  C_30
REMARK    6  A    between atoms: N_22  and  C_23
REMARK    7  A    between atoms: C_23  and  C_24
REMARK                            x       y       z     vdW  Elec       q    Type
REMARK                         _______ _______ _______ _____ _____    ______ ____
ROOT
ATOM      1  C   UNL     1      -3.430   1.633   2.345  0.00  0.00    +0.193 A 
ATOM      2  N   UNL     1      -4.018   0.848   3.223  0.00  0.00    -0.122 NA
ATOM      3  N   UNL     1      -3.576  -0.353   3.106  0.00  0.00    -0.128 NA
ATOM      4  C   UNL     1      -2.684  -0.411   2.144  0.00  0.00    +0.165 A 
ATOM      5  N   UNL     1      -2.559   0.861   1.632  0.00  0.00    -0.298 N 
ENDROOT
BRANCH   4   6
ATOM      6  C   UNL     1      -1.951  -1.613   1.698  0.00  0.00    +0.022 A 
ATOM      7  C   UNL     1      -1.602  -1.786   0.352  0.00  0.00    +0.031 A 
ATOM      8  C   UNL     1      -0.914  -2.921  -0.019  0.00  0.00    +0.111 A 
ATOM      9  N   UNL     1      -0.593  -3.841   0.871  0.00  0.00    -0.263 NA
ATOM     10  C   UNL     1      -0.907  -3.721   2.147  0.00  0.00    +0.111 A 
ATOM     11  C   UNL     1      -1.590  -2.615   2.607  0.00  0.00    +0.031 A 
ENDBRANCH   4   6
BRANCH   1  12
ATOM     12  S   UNL     1      -3.712   3.359   2.132  0.00  0.00    -0.073 S 
BRANCH  12  14
ATOM     13  C   UNL     1      -4.348   3.381   4.789  0.00  0.00    +0.029 C 
ATOM     14  C   UNL     1      -4.964   3.633   3.410  0.00  0.00    +0.137 C 
BRANCH  14  15
ATOM     15  C   UNL     1      -5.458   5.054   3.333  0.00  0.00    +0.233 C 
ATOM     16  O   UNL     1      -4.791   5.899   2.774  0.00  0.00    -0.274 OA
ATOM     17  N   UNL     1      -6.642   5.387   3.885  0.00  0.00    -0.260 N 
ATOM     18  C   UNL     1      -7.470   4.382   4.568  0.00  0.00    +0.209 C 
ATOM     19  C   UNL     1      -8.912   4.591   4.185  0.00  0.00    +0.235 C 
ATOM     20  O   UNL     1      -9.671   3.644   4.171  0.00  0.00    -0.274 OA
ATOM     21  N   UNL     1      -9.369   5.814   3.857  0.00  0.00    -0.283 N 
ATOM     22  C   UNL     1      -8.504   6.913   3.816  0.00  0.00    +0.055 A 
ATOM     23  C   UNL     1      -7.121   6.705   3.831  0.00  0.00    +0.058 A 
ATOM     24  C   UNL     1      -6.252   7.780   3.790  0.00  0.00    +0.025 A 
ATOM     25  C   UNL     1      -6.756   9.068   3.742  0.00  0.00    +0.002 A 
ATOM     26  C   UNL     1      -8.122   9.281   3.735  0.00  0.00    +0.002 A 
ATOM     27  C   UNL     1      -9.001   8.205   3.764  0.00  0.00    +0.025 A 
ATOM     28  H   UNL     1     -10.308   5.935   3.646  0.00  0.00    +0.155 HD
ENDBRANCH  14  15
ENDBRANCH  12  14
ENDBRANCH   1  12
BRANCH   5  29
ATOM     29  C   UNL     1      -1.680   1.294   0.543  0.00  0.00    +0.161 C 
BRANCH  29  30
ATOM     30  C   UNL     1      -0.318   1.621   1.098  0.00  0.00    -0.028 A 
ATOM     31  C   UNL     1       0.650   0.638   1.179  0.00  0.00    +0.005 A 
ATOM     32  C   UNL     1       1.902   0.940   1.682  0.00  0.00    +0.000 A 
ATOM     33  C   UNL     1       2.183   2.224   2.110  0.00  0.00    +0.000 A 
ATOM     34  C   UNL     1       1.213   3.207   2.034  0.00  0.00    +0.000 A 
ATOM     35  C   UNL     1      -0.038   2.904   1.530  0.00  0.00    +0.005 A 
ENDBRANCH  29  30
ENDBRANCH   5  29
TORSDOF 6
