REMARK  Name = ZINC20191170
REMARK  10 active torsions:
REMARK  status: ('A' for Active; 'I' for Inactive)
REMARK    1  A    between atoms: C_1  and  O_2
REMARK    2  A    between atoms: O_2  and  C_3
REMARK    3  A    between atoms: C_5  and  C_10
REMARK    4  A    between atoms: C_8  and  O_9
REMARK    5  A    between atoms: C_12  and  C_36
REMARK    6  A    between atoms: C_13  and  S_22
REMARK    7  A    between atoms: S_22  and  C_23
REMARK    8  A    between atoms: C_23  and  C_24
REMARK    9  A    between atoms: N_26  and  C_27
REMARK   10  A    between atoms: C_32  and  N_33
REMARK                            x       y       z     vdW  Elec       q    Type
REMARK                         _______ _______ _______ _____ _____    ______ ____
ROOT
ATOM      1  C   UNL     1       2.465   0.429  -4.261  0.00  0.00    +0.097 C 
ATOM      2  C   UNL     1       1.769   0.107  -5.551  0.00  0.00    +0.069 C 
ATOM      3  C   UNL     1       2.353  -0.695  -6.481  0.00  0.00    +0.080 C 
ATOM      4  N   UNL     1       3.604  -1.219  -6.253  0.00  0.00    -0.311 N 
ATOM      5  C   UNL     1       4.436  -0.654  -5.324  0.00  0.00    +0.016 C 
ATOM      6  C   UNL     1       3.942   0.140  -4.352  0.00  0.00    +0.024 C 
ATOM      7  C   UNL     1       4.789   0.721  -3.393  0.00  0.00    +0.162 C 
ATOM      8  O   UNL     1       4.316   1.444  -2.539  0.00  0.00    -0.292 OA
ATOM      9  C   UNL     1       6.271   0.464  -3.404  0.00  0.00    +0.080 C 
ATOM     10  C   UNL     1       6.533  -0.913  -4.023  0.00  0.00    +0.014 C 
ATOM     11  C   UNL     1       5.914  -0.940  -5.420  0.00  0.00    +0.051 C 
ATOM     12  H   UNL     1       3.899  -1.996  -6.754  0.00  0.00    +0.152 HD
ENDROOT
BRANCH   1  15
ATOM     13  C   UNL     1       0.708  -0.546  -1.062  0.00  0.00    +0.162 A 
ATOM     14  C   UNL     1       1.259   0.217  -2.078  0.00  0.00    +0.054 A 
ATOM     15  C   UNL     1       1.866  -0.402  -3.156  0.00  0.00    -0.031 A 
ATOM     16  C   UNL     1       1.923  -1.782  -3.222  0.00  0.00    +0.008 A 
ATOM     17  C   UNL     1       1.375  -2.549  -2.211  0.00  0.00    +0.049 A 
ATOM     18  C   UNL     1       0.771  -1.935  -1.125  0.00  0.00    +0.158 A 
BRANCH  13  20
ATOM     19  C   UNL     1       0.083   1.489  -0.002  0.00  0.00    +0.277 C 
ATOM     20  O   UNL     1       0.112   0.061  -0.001  0.00  0.00    -0.491 OA
ENDBRANCH  13  20
BRANCH  18  21
ATOM     21  O   UNL     1       0.237  -2.688  -0.127  0.00  0.00    -0.503 OA
ATOM     22  H   UNL     1      -0.691  -2.922  -0.264  0.00  0.00    +0.292 HD
ENDBRANCH  18  21
ENDBRANCH   1  15
BRANCH   2  23
ATOM     23  C   UNL     1       0.470   0.653  -5.806  0.00  0.00    +0.098 C 
ATOM     24  N   UNL     1      -0.561   1.086  -6.008  0.00  0.00    -0.191 NA
ENDBRANCH   2  23
BRANCH   3  25
ATOM     25  S   UNL     1       1.505  -1.063  -7.981  0.00  0.00    -0.100 S 
BRANCH  25  26
ATOM     26  C   UNL     1       2.653  -2.140  -8.882  0.00  0.00    +0.171 C 
BRANCH  26  27
ATOM     27  C   UNL     1       2.043  -2.534 -10.202  0.00  0.00    +0.227 C 
ATOM     28  O   UNL     1       0.941  -2.128 -10.505  0.00  0.00    -0.275 OA
ATOM     29  N   UNL     1       2.720  -3.338 -11.045  0.00  0.00    -0.283 N 
ATOM     30  H   UNL     1       3.627  -3.610 -10.832  0.00  0.00    +0.155 HD
BRANCH  29  31
ATOM     31  C   UNL     1       2.117  -3.780 -12.227  0.00  0.00    +0.064 A 
ATOM     32  C   UNL     1       1.248  -2.946 -12.919  0.00  0.00    +0.025 A 
ATOM     33  C   UNL     1       0.654  -3.385 -14.086  0.00  0.00    +0.002 A 
ATOM     34  C   UNL     1       0.924  -4.653 -14.566  0.00  0.00    +0.002 A 
ATOM     35  C   UNL     1       1.788  -5.486 -13.880  0.00  0.00    +0.034 A 
ATOM     36  C   UNL     1       2.390  -5.051 -12.715  0.00  0.00    +0.147 A 
BRANCH  36  37
ATOM     37  N   UNL     1       3.321  -5.940 -11.985  0.00  0.00    +0.058 N 
ATOM     38  O   UNL     1       3.634  -7.008 -12.459  0.00  0.00    -0.126 OA
ATOM     39  O   UNL     1       3.768  -5.600 -10.915  0.00  0.00    -0.126 OA
ENDBRANCH  36  37
ENDBRANCH  29  31
ENDBRANCH  26  27
ENDBRANCH  25  26
ENDBRANCH   3  25
TORSDOF 9
