REMARK  Name = ZINC08916644
REMARK  8 active torsions:
REMARK  status: ('A' for Active; 'I' for Inactive)
REMARK    1  A    between atoms: C_1  and  C_2
REMARK    2  A    between atoms: C_2  and  C_34
REMARK    3  A    between atoms: C_6  and  C_22
REMARK    4  A    between atoms: N_8  and  C_16
REMARK    5  A    between atoms: C_16  and  N_18
REMARK    6  A    between atoms: N_18  and  C_19
REMARK    7  A    between atoms: C_19  and  C_20
REMARK    8  A    between atoms: C_26  and  N_28
REMARK                            x       y       z     vdW  Elec       q    Type
REMARK                         _______ _______ _______ _____ _____    ______ ____
ROOT
ATOM      1  C   UNL     1      -0.872   7.129  -0.396  0.00  0.00    +0.011 C 
ATOM      2  C   UNL     1      -0.048   6.904  -1.665  0.00  0.00    -0.023 C 
ATOM      3  C   UNL     1       1.027   5.850  -1.405  0.00  0.00    +0.058 C 
ATOM      4  C   UNL     1       0.377   4.542  -0.985  0.00  0.00    +0.017 C 
ATOM      5  C   UNL     1      -0.822   4.188  -1.480  0.00  0.00    +0.037 C 
ATOM      6  C   UNL     1      -1.566   2.911  -1.172  0.00  0.00    +0.146 C 
ATOM      7  N   UNL     1      -1.024   2.152  -0.064  0.00  0.00    -0.269 N 
ATOM      8  C   UNL     1       0.251   1.585  -0.132  0.00  0.00    +0.057 A 
ATOM      9  C   UNL     1       0.435   0.213  -0.146  0.00  0.00    +0.025 A 
ATOM     10  C   UNL     1       1.711  -0.300  -0.301  0.00  0.00    +0.002 A 
ATOM     11  C   UNL     1       2.794   0.550  -0.440  0.00  0.00    +0.002 A 
ATOM     12  C   UNL     1       2.614   1.922  -0.409  0.00  0.00    +0.025 A 
ATOM     13  C   UNL     1       1.340   2.436  -0.238  0.00  0.00    +0.053 A 
ATOM     14  N   UNL     1       1.102   3.799  -0.112  0.00  0.00    -0.316 N 
ATOM     15  C   UNL     1      -1.504   5.047  -2.373  0.00  0.00    +0.163 C 
ATOM     16  O   UNL     1      -2.577   4.693  -2.822  0.00  0.00    -0.292 OA
ATOM     17  C   UNL     1      -0.954   6.379  -2.786  0.00  0.00    +0.086 C 
ATOM     18  C   UNL     1       0.607   8.217  -2.098  0.00  0.00    +0.011 C 
ATOM     19  H   UNL     1       1.482   4.252   0.656  0.00  0.00    +0.152 HD
ENDROOT
BRANCH   6  20
ATOM     20  C   UNL     1      -1.550   2.040  -2.401  0.00  0.00    -0.020 A 
ATOM     21  C   UNL     1      -2.735   1.718  -3.036  0.00  0.00    +0.006 A 
ATOM     22  C   UNL     1      -2.720   0.920  -4.164  0.00  0.00    +0.003 A 
ATOM     23  C   UNL     1      -1.520   0.442  -4.657  0.00  0.00    +0.033 A 
ATOM     24  C   UNL     1      -0.335   0.763  -4.022  0.00  0.00    +0.127 A 
ATOM     25  C   UNL     1      -0.350   1.567  -2.897  0.00  0.00    +0.038 A 
BRANCH  24  26
ATOM     26  N   UNL     1       0.950   0.252  -4.550  0.00  0.00    +0.056 N 
ATOM     27  O   UNL     1       0.963  -0.452  -5.544  0.00  0.00    -0.126 OA
ATOM     28  O   UNL     1       1.994   0.535  -3.990  0.00  0.00    -0.126 OA
ENDBRANCH  24  26
ENDBRANCH   6  20
BRANCH   7  29
ATOM     29  C   UNL     1      -1.763   1.988   1.051  0.00  0.00    +0.138 C 
ATOM     30  S   UNL     1      -3.328   2.676   1.150  0.00  0.00    -0.018 S 
BRANCH  29  31
ATOM     31  N   UNL     1      -1.270   1.283   2.089  0.00  0.00    -0.323 N 
ATOM     32  H   UNL     1      -0.383   0.893   2.033  0.00  0.00    +0.148 HD
BRANCH  31  33
ATOM     33  C   UNL     1      -2.073   1.106   3.301  0.00  0.00    +0.130 C 
BRANCH  33  34
ATOM     34  C   UNL     1      -1.298   0.286   4.301  0.00  0.00    -0.016 C 
ATOM     35  C   UNL     1      -1.094   0.749   5.509  0.00  0.00    +0.005 C 
ENDBRANCH  33  34
ENDBRANCH  31  33
ENDBRANCH  29  31
ENDBRANCH   7  29
TORSDOF 6
