REMARK  Name = ZINC64649131
REMARK  5 active torsions:
REMARK  status: ('A' for Active; 'I' for Inactive)
REMARK    1  A    between atoms: C_1  and  C_2
REMARK    2  A    between atoms: N_5  and  C_8
REMARK    3  A    between atoms: C_11  and  C_14
REMARK    4  A    between atoms: C_17  and  C_21
REMARK    5  A    between atoms: C_29  and  C_31
REMARK                            x       y       z     vdW  Elec       q    Type
REMARK                         _______ _______ _______ _____ _____    ______ ____
ROOT
ATOM      1  C   UNL     1      -0.770  -8.119   1.677  0.00  0.00    +0.180 C 
ATOM      2  N   UNL     1      -0.758  -8.467   3.118  0.00  0.00    -0.262 NA
ATOM      3  C   UNL     1      -0.028  -9.761   3.169  0.00  0.00    +0.298 C 
ATOM      4  O   UNL     1       1.007  -9.599   2.174  0.00  0.00    -0.270 OA
ATOM      5  N   UNL     1       0.363  -8.854   1.075  0.00  0.00    -0.177 NA
ATOM      6  H   UNL     1      -0.280  -7.760   3.657  0.00  0.00    +0.127 HD
ATOM      7  H   UNL     1       1.014  -8.219   0.637  0.00  0.00    +0.156 HD
ENDROOT
BRANCH   3   8
ATOM      8  C   UNL     1       0.572  -9.978   4.534  0.00  0.00    +0.262 C 
ATOM      9  O   UNL     1       0.129 -10.842   5.261  0.00  0.00    -0.271 OA
ATOM     10  N   UNL     1       1.602  -9.213   4.948  0.00  0.00    -0.295 N 
ATOM     11  C   UNL     1       2.072  -8.087   4.129  0.00  0.00    +0.127 C 
ATOM     12  C   UNL     1       2.043  -6.814   4.984  0.00  0.00    +0.127 C 
ATOM     13  N   UNL     1       2.715  -7.091   6.262  0.00  0.00    -0.295 N 
ATOM     14  C   UNL     1       2.245  -8.217   7.080  0.00  0.00    +0.127 C 
ATOM     15  C   UNL     1       2.270  -9.487   6.228  0.00  0.00    +0.127 C 
ATOM     16  C   UNL     1       3.745  -6.326   6.675  0.00  0.00    +0.247 C 
ATOM     17  O   UNL     1       4.067  -5.342   6.036  0.00  0.00    -0.270 OA
BRANCH  16  18
ATOM     18  C   UNL     1       4.481  -6.681   7.901  0.00  0.00    +0.042 C 
ATOM     19  C   UNL     1       5.407  -7.728   7.965  0.00  0.00    +0.013 C 
ATOM     20  C   UNL     1       6.070  -8.010   9.175  0.00  0.00    -0.001 C 
ATOM     21  C   UNL     1       5.686  -7.562  10.377  0.00  0.00    +0.004 C 
ATOM     22  C   UNL     1       4.445  -6.722  10.495  0.00  0.00    +0.159 C 
ATOM     23  C   UNL     1       4.321  -5.968   9.170  0.00  0.00    -0.006 C 
ATOM     24  C   UNL     1       4.094  -4.696   9.496  0.00  0.00    +0.026 C 
ATOM     25  C   UNL     1       4.299  -4.523  10.885  0.00  0.00    +0.106 C 
ATOM     26  N   UNL     1       4.520  -5.676  11.507  0.00  0.00    -0.279 NA
ENDBRANCH  16  18
ENDBRANCH   3   8
BRANCH   1  30
ATOM     27  C   UNL     1      -0.236  -3.911   1.171  0.00  0.00    +0.013 A 
ATOM     28  C   UNL     1       0.235  -4.788   0.211  0.00  0.00    +0.022 A 
ATOM     29  C   UNL     1       0.062  -6.150   0.375  0.00  0.00    +0.008 A 
ATOM     30  C   UNL     1      -0.581  -6.635   1.499  0.00  0.00    -0.014 A 
ATOM     31  C   UNL     1      -1.050  -5.758   2.459  0.00  0.00    +0.008 A 
ATOM     32  C   UNL     1      -0.874  -4.397   2.297  0.00  0.00    +0.022 A 
BRANCH  27  37
ATOM     33  C   UNL     1       0.993   1.327  -0.497  0.00  0.00    +0.007 C 
ATOM     34  C   UNL     1       0.865  -0.196  -0.433  0.00  0.00    -0.011 C 
ATOM     35  C   UNL     1      -0.616  -0.583  -0.369  0.00  0.00    +0.020 C 
ATOM     36  C   UNL     1      -0.735  -2.102  -0.225  0.00  0.00    +0.085 C 
ATOM     37  N   UNL     1      -0.061  -2.534   1.005  0.00  0.00    -0.393 NA
ATOM     38  C   UNL     1       1.373  -2.231   0.921  0.00  0.00    +0.085 C 
ATOM     39  C   UNL     1       1.573  -0.717   0.821  0.00  0.00    +0.020 C 
ATOM     40  H   UNL     1      -0.461  -2.049   1.795  0.00  0.00    +0.126 HD
ENDBRANCH  27  37
ENDBRANCH   1  30
TORSDOF 4
