REMARK  Name = ZINC22964845
REMARK  12 active torsions:
REMARK  status: ('A' for Active; 'I' for Inactive)
REMARK    1  A    between atoms: C_1  and  C_2
REMARK    2  A    between atoms: C_2  and  C_3
REMARK    3  A    between atoms: C_3  and  C_4
REMARK    4  A    between atoms: C_4  and  N_5
REMARK    5  A    between atoms: C_6  and  N_34
REMARK    6  A    between atoms: C_7  and  N_14
REMARK    7  A    between atoms: N_14  and  C_15
REMARK    8  A    between atoms: C_20  and  C_22
REMARK    9  A    between atoms: C_22  and  N_23
REMARK   10  A    between atoms: N_23  and  C_24
REMARK   11  A    between atoms: N_23  and  C_25
REMARK   12  A    between atoms: C_25  and  C_26
REMARK                            x       y       z     vdW  Elec       q    Type
REMARK                         _______ _______ _______ _____ _____    ______ ____
ROOT
ATOM      1  N   UNL     1       2.340   1.371   0.127  0.00  0.00    -0.263 N 
ATOM      2  C   UNL     1       3.530   1.887  -0.244  0.00  0.00    +0.204 C 
ATOM      3  O   UNL     1       3.634   3.076  -0.464  0.00  0.00    -0.277 OA
ENDROOT
BRANCH   1   6
ATOM      4  N   UNL     1      -0.430   3.519  -0.977  0.00  0.00    -0.280 N 
ATOM      5  C   UNL     1       0.693   2.725  -1.026  0.00  0.00    +0.127 A 
ATOM      6  C   UNL     1       1.190   2.189   0.144  0.00  0.00    +0.140 A 
ATOM      7  C   UNL     1       0.532   2.473   1.355  0.00  0.00    +0.277 A 
ATOM      8  O   UNL     1       0.950   2.012   2.404  0.00  0.00    -0.266 OA
ATOM      9  N   UNL     1      -0.568   3.252   1.347  0.00  0.00    -0.273 N 
ATOM     10  H   UNL     1      -1.093   3.471   2.288  0.00  0.00    +0.173 HD
ATOM     11  C   UNL     1      -1.035   3.770   0.198  0.00  0.00    +0.331 A 
ATOM     12  O   UNL     1      -2.026   4.474   0.220  0.00  0.00    -0.246 OA
BRANCH   5  13
ATOM     13  N   UNL     1       1.311   2.469  -2.226  0.00  0.00    -0.343 N 
ATOM     14  H   UNL     1       2.208   1.833  -2.258  0.00  0.00    +0.144 HD
ATOM     15  H   UNL     1       0.909   2.899  -3.155  0.00  0.00    +0.144 HD
ENDBRANCH   5  13
BRANCH   4  16
ATOM     16  C   UNL     1      -0.969   4.095  -2.212  0.00  0.00    +0.128 C 
BRANCH  16  17
ATOM     17  C   UNL     1      -1.988   3.131  -2.822  0.00  0.00    +0.021 C 
BRANCH  17  19
ATOM     18  C   UNL     1      -3.570   2.768  -4.721  0.00  0.00    +0.004 C 
ATOM     19  C   UNL     1      -2.550   3.732  -4.111  0.00  0.00    -0.002 C 
ENDBRANCH  17  19
ENDBRANCH  16  17
ENDBRANCH   4  16
ENDBRANCH   1   6
BRANCH   1  20
ATOM     20  C   UNL     1       2.241  -0.039   0.511  0.00  0.00    +0.082 C 
ATOM     21  C   UNL     1       3.133  -0.316   1.739  0.00  0.00    +0.023 C 
ATOM     22  C   UNL     1       3.708  -1.731   1.478  0.00  0.00    +0.002 C 
ATOM     23  C   UNL     1       3.959  -1.723  -0.050  0.00  0.00    +0.002 C 
ATOM     24  C   UNL     1       2.766  -0.933  -0.626  0.00  0.00    +0.023 C 
ENDBRANCH   1  20
BRANCH   2  25
ATOM     25  C   UNL     1       4.731   0.988  -0.384  0.00  0.00    +0.019 C 
BRANCH  25  26
ATOM     26  N   UNL     1       5.925   1.802  -0.646  0.00  0.00    +0.386 N 
ATOM     27  C   UNL     1       6.253   2.644   0.512  0.00  0.00    -0.095 C 
ATOM     28  H   UNL     1       5.702   2.466  -1.495  0.00  0.00    -0.081 HD
BRANCH  26  29
ATOM     29  C   UNL     1       7.066   0.957  -1.023  0.00  0.00    -0.040 C 
BRANCH  29  30
ATOM     30  C   UNL     1       8.193   1.827  -1.519  0.00  0.00    -0.029 A 
ATOM     31  C   UNL     1       9.296   2.052  -0.717  0.00  0.00    +0.007 A 
ATOM     32  C   UNL     1      10.331   2.848  -1.171  0.00  0.00    +0.039 A 
ATOM     33  C   UNL     1      10.262   3.421  -2.429  0.00  0.00    +0.126 A 
ATOM     34  C   UNL     1       9.158   3.197  -3.233  0.00  0.00    +0.076 A 
ATOM     35  C   UNL     1       8.125   2.395  -2.779  0.00  0.00    +0.127 A 
ATOM     36  F   UNL     1       7.049   2.171  -3.565  0.00  0.00    -0.205 F 
ATOM     37  F   UNL     1      11.274   4.200  -2.873  0.00  0.00    -0.205 F 
ENDBRANCH  29  30
ENDBRANCH  26  29
ENDBRANCH  25  26
ENDBRANCH   2  25
TORSDOF 10
