REMARK  Name = ZINC65096739
REMARK  5 active torsions:
REMARK  status: ('A' for Active; 'I' for Inactive)
REMARK    1  A    between atoms: C_4  and  C_7
REMARK    2  A    between atoms: C_7  and  C_9
REMARK    3  A    between atoms: C_7  and  N_21
REMARK    4  A    between atoms: C_22  and  C_24
REMARK    5  A    between atoms: C_24  and  C_25
REMARK                            x       y       z     vdW  Elec       q    Type
REMARK                         _______ _______ _______ _____ _____    ______ ____
ROOT
ATOM      1  C   UNL     1       3.728  -0.707  -0.035  0.00  0.00    +0.190 C 
ENDROOT
BRANCH   1   2
ATOM      2  C   UNL     1       3.956  -1.266  -1.415  0.00  0.00    +0.245 C 
ATOM      3  O   UNL     1       3.979  -2.467  -1.587  0.00  0.00    -0.273 OA
ATOM      4  N   UNL     1       4.133  -0.433  -2.459  0.00  0.00    -0.269 N 
ATOM      5  C   UNL     1       4.205   1.020  -2.252  0.00  0.00    +0.114 C 
ATOM      6  C   UNL     1       3.339   1.691  -3.326  0.00  0.00    +0.024 C 
ATOM      7  C   UNL     1       3.933   1.384  -4.701  0.00  0.00    +0.038 C 
ATOM      8  C   UNL     1       4.158  -0.096  -4.860  0.00  0.00    -0.026 A 
ATOM      9  C   UNL     1       4.257  -0.937  -3.761  0.00  0.00    +0.039 A 
ATOM     10  C   UNL     1       4.475  -2.298  -3.942  0.00  0.00    +0.024 A 
ATOM     11  C   UNL     1       4.597  -2.815  -5.216  0.00  0.00    +0.002 A 
ATOM     12  C   UNL     1       4.501  -1.978  -6.312  0.00  0.00    +0.000 A 
ATOM     13  C   UNL     1       4.274  -0.623  -6.136  0.00  0.00    +0.005 A 
ENDBRANCH   1   2
BRANCH   1  17
ATOM     14  C   UNL     1      -0.439   0.047   0.525  0.00  0.00    +0.000 A 
ATOM     15  C   UNL     1       0.436   1.101   0.343  0.00  0.00    +0.000 A 
ATOM     16  C   UNL     1       1.784   0.858   0.162  0.00  0.00    +0.006 A 
ATOM     17  C   UNL     1       2.258  -0.441   0.164  0.00  0.00    -0.018 A 
ATOM     18  C   UNL     1       1.383  -1.496   0.347  0.00  0.00    +0.006 A 
ATOM     19  C   UNL     1       0.035  -1.252   0.526  0.00  0.00    +0.000 A 
ENDBRANCH   1  17
BRANCH   1  20
ATOM     20  N   UNL     1       4.189  -1.673   0.966  0.00  0.00    -0.300 N 
ATOM     21  C   UNL     1       4.563  -1.250   2.189  0.00  0.00    +0.218 C 
ATOM     22  O   UNL     1       4.517  -0.069   2.462  0.00  0.00    -0.275 OA
ATOM     23  H   UNL     1       4.225  -2.618   0.747  0.00  0.00    +0.150 HD
BRANCH  21  24
ATOM     24  C   UNL     1       5.037  -2.244   3.218  0.00  0.00    +0.129 C 
BRANCH  24  25
ATOM     25  C   UNL     1       5.391  -1.519   4.491  0.00  0.00    -0.033 C 
ATOM     26  C   UNL     1       4.597  -1.334   5.570  0.00  0.00    -0.001 A 
ATOM     27  C   UNL     1       3.218  -1.736   5.870  0.00  0.00    +0.010 A 
ATOM     28  C   UNL     1       2.680  -1.397   7.064  0.00  0.00    +0.001 A 
ATOM     29  C   UNL     1       3.406  -0.672   8.019  0.00  0.00    +0.002 A 
ATOM     30  C   UNL     1       4.678  -0.267   7.816  0.00  0.00    +0.026 A 
ATOM     31  C   UNL     1       5.342  -0.570   6.596  0.00  0.00    +0.043 A 
ATOM     32  N   UNL     1       6.550  -0.293   6.168  0.00  0.00    -0.380 N 
ATOM     33  C   UNL     1       6.710  -0.856   4.823  0.00  0.00    +0.145 C 
ATOM     34  H   UNL     1       7.226   0.199   6.660  0.00  0.00    +0.160 HD
ENDBRANCH  24  25
ENDBRANCH  21  24
ENDBRANCH   1  20
TORSDOF 5
