REMARK  Name = ZINC35664811
REMARK  14 active torsions:
REMARK  status: ('A' for Active; 'I' for Inactive)
REMARK    1  A    between atoms: C_1  and  C_2
REMARK    2  A    between atoms: C_2  and  C_3
REMARK    3  A    between atoms: C_3  and  N_4
REMARK    4  A    between atoms: N_10  and  C_15
REMARK    5  A    between atoms: C_12  and  C_14
REMARK    6  A    between atoms: C_15  and  C_16
REMARK    7  A    between atoms: C_17  and  C_34
REMARK    8  A    between atoms: C_18  and  C_27
REMARK    9  A    between atoms: N_23  and  C_24
REMARK   10  A    between atoms: C_24  and  C_25
REMARK   11  A    between atoms: C_30  and  C_33
REMARK   12  A    between atoms: C_34  and  O_36
REMARK   13  A    between atoms: O_36  and  C_37
REMARK   14  A    between atoms: C_37  and  C_38
REMARK                            x       y       z     vdW  Elec       q    Type
REMARK                         _______ _______ _______ _____ _____    ______ ____
ROOT
ATOM      1  C   UNL     1      -1.487  -8.665   0.886  0.00  0.00    +0.041 C 
ATOM      2  C   UNL     1      -0.483  -8.743   1.787  0.00  0.00    +0.080 C 
ATOM      3  C   UNL     1       0.701  -9.626   1.449  0.00  0.00    +0.144 C 
ATOM      4  N   UNL     1       0.660 -10.330   0.156  0.00  0.00    -0.288 N 
ATOM      5  C   UNL     1      -0.413 -10.151  -0.639  0.00  0.00    +0.307 C 
ATOM      6  O   UNL     1      -0.456 -10.728  -1.708  0.00  0.00    -0.252 OA
ATOM      7  N   UNL     1      -1.437  -9.363  -0.287  0.00  0.00    -0.254 N 
ATOM      8  H   UNL     1       1.389 -10.909  -0.117  0.00  0.00    +0.151 HD
ENDROOT
BRANCH   3   9
ATOM      9  C   UNL     1       1.940  -8.768   1.471  0.00  0.00    -0.022 A 
ATOM     10  C   UNL     1       2.243  -7.963   0.389  0.00  0.00    +0.006 A 
ATOM     11  C   UNL     1       3.380  -7.177   0.409  0.00  0.00    +0.004 A 
ATOM     12  C   UNL     1       4.213  -7.195   1.512  0.00  0.00    -0.050 A 
ATOM     13  C   UNL     1       3.910  -8.000   2.595  0.00  0.00    +0.004 A 
ATOM     14  C   UNL     1       2.771  -8.783   2.576  0.00  0.00    +0.006 A 
ATOM     15  C   UNL     1       5.453  -6.339   1.534  0.00  0.00    +0.044 C 
ENDBRANCH   3   9
BRANCH   2  16
ATOM     16  C   UNL     1      -0.536  -8.026   3.005  0.00  0.00    +0.339 C 
ATOM     17  O   UNL     1       0.022  -6.949   3.101  0.00  0.00    -0.245 OA
BRANCH  16  18
ATOM     18  O   UNL     1      -1.206  -8.536   4.060  0.00  0.00    -0.462 OA
BRANCH  18  19
ATOM     19  C   UNL     1      -1.218  -7.757   5.258  0.00  0.00    +0.229 C 
ATOM     20  C   UNL     1      -2.020  -8.491   6.335  0.00  0.00    +0.048 C 
ENDBRANCH  18  19
ENDBRANCH  16  18
ENDBRANCH   2  16
BRANCH   1  21
ATOM     21  C   UNL     1      -2.684  -7.799   1.183  0.00  0.00    +0.136 C 
BRANCH  21  28
ATOM     22  N   UNL     1      -1.837  -1.952  -0.715  0.00  0.00    -0.299 N 
ATOM     23  C   UNL     1      -2.952  -2.708  -0.675  0.00  0.00    +0.303 C 
ATOM     24  O   UNL     1      -4.045  -2.178  -0.617  0.00  0.00    -0.253 OA
ATOM     25  N   UNL     1      -2.856  -4.052  -0.700  0.00  0.00    -0.280 N 
ATOM     26  C   UNL     1      -1.544  -4.716  -0.651  0.00  0.00    +0.125 C 
ATOM     27  C   UNL     1      -1.574  -5.773   0.458  0.00  0.00    +0.104 C 
ATOM     28  N   UNL     1      -2.717  -6.671   0.243  0.00  0.00    -0.294 NA
ATOM     29  C   UNL     1      -3.990  -5.944   0.338  0.00  0.00    +0.107 C 
ATOM     30  C   UNL     1      -4.059  -4.894  -0.770  0.00  0.00    +0.088 C 
ATOM     31  C   UNL     1      -5.305  -4.027  -0.577  0.00  0.00    +0.029 C 
ATOM     32  H   UNL     1      -0.964  -2.373  -0.689  0.00  0.00    +0.150 HD
BRANCH  22  33
ATOM     33  C   UNL     1      -1.945  -0.493  -0.797  0.00  0.00    +0.105 C 
BRANCH  33  35
ATOM     34  C   UNL     1      -0.655   1.644  -0.914  0.00  0.00    +0.005 C 
ATOM     35  C   UNL     1      -0.543   0.120  -0.828  0.00  0.00    +0.015 C 
ENDBRANCH  33  35
ENDBRANCH  22  33
ENDBRANCH  21  28
ENDBRANCH   1  21
BRANCH   7  36
ATOM     36  C   UNL     1      -2.563  -9.236  -1.215  0.00  0.00    +0.141 C 
BRANCH  36  37
ATOM     37  C   UNL     1      -2.307  -8.090  -2.161  0.00  0.00    -0.015 C 
ATOM     38  C   UNL     1      -2.345  -8.289  -3.455  0.00  0.00    +0.005 C 
ENDBRANCH  36  37
ENDBRANCH   7  36
TORSDOF 10
