REMARK  Name = ZINC63980503
REMARK  14 active torsions:
REMARK  status: ('A' for Active; 'I' for Inactive)
REMARK    1  A    between atoms: C_1  and  O_2
REMARK    2  A    between atoms: O_2  and  C_3
REMARK    3  A    between atoms: C_3  and  C_4
REMARK    4  A    between atoms: C_4  and  C_5
REMARK    5  A    between atoms: N_7  and  C_8
REMARK    6  A    between atoms: C_12  and  N_34
REMARK    7  A    between atoms: N_16  and  C_23
REMARK    8  A    between atoms: C_17  and  C_19
REMARK    9  A    between atoms: C_19  and  O_21
REMARK   10  A    between atoms: O_21  and  C_22
REMARK   11  A    between atoms: C_23  and  C_24
REMARK   12  A    between atoms: C_24  and  C_25
REMARK   13  A    between atoms: N_34  and  C_35
REMARK   14  A    between atoms: C_35  and  C_36
REMARK                            x       y       z     vdW  Elec       q    Type
REMARK                         _______ _______ _______ _____ _____    ______ ____
ROOT
ATOM      1  C   UNL     1      -3.975  -4.714   0.015  0.00  0.00    +0.138 C 
ATOM      2  C   UNL     1      -4.487  -4.886  -1.397  0.00  0.00    +0.015 A 
ATOM      3  C   UNL     1      -4.756  -3.961  -2.387  0.00  0.00    +0.033 A 
ATOM      4  C   UNL     1      -5.228  -4.421  -3.615  0.00  0.00    +0.044 A 
ATOM      5  C   UNL     1      -5.408  -5.785  -3.792  0.00  0.00    +0.107 A 
ATOM      6  N   UNL     1      -5.141  -6.635  -2.824  0.00  0.00    -0.348 N 
ATOM      7  C   UNL     1      -4.688  -6.238  -1.635  0.00  0.00    +0.105 A 
ATOM      8  N   UNL     1      -4.361  -7.007  -0.520  0.00  0.00    -0.301 N 
ATOM      9  C   UNL     1      -3.902  -6.144   0.576  0.00  0.00    +0.208 C 
ATOM     10  H   UNL     1      -5.278  -7.583  -2.981  0.00  0.00    +0.167 HD
ENDROOT
BRANCH   1  13
ATOM     11  C   UNL     1      -2.522  -2.758   0.011  0.00  0.00    +0.216 C 
ATOM     12  O   UNL     1      -3.513  -2.059   0.025  0.00  0.00    -0.276 OA
ATOM     13  N   UNL     1      -2.645  -4.100   0.005  0.00  0.00    -0.306 N 
ATOM     14  H   UNL     1      -1.852  -4.660  -0.005  0.00  0.00    +0.149 HD
BRANCH  11  15
ATOM     15  C   UNL     1      -1.154  -2.126   0.002  0.00  0.00    +0.124 C 
BRANCH  15  16
ATOM     16  C   UNL     1      -1.295  -0.603   0.011  0.00  0.00    +0.168 C 
BRANCH  16  18
ATOM     17  C   UNL     1      -0.017   1.425   0.010  0.00  0.00    +0.194 C 
ATOM     18  O   UNL     1       0.002  -0.004   0.002  0.00  0.00    -0.382 OA
ENDBRANCH  16  18
ENDBRANCH  15  16
ENDBRANCH  11  15
ENDBRANCH   1  13
BRANCH   9  19
ATOM     19  C   UNL     1      -4.811  -6.284   1.770  0.00  0.00    +0.330 C 
ATOM     20  O   UNL     1      -5.898  -6.797   1.645  0.00  0.00    -0.249 OA
BRANCH  19  21
ATOM     21  O   UNL     1      -4.412  -5.839   2.972  0.00  0.00    -0.467 OA
ATOM     22  C   UNL     1      -5.324  -6.004   4.060  0.00  0.00    +0.280 C 
ENDBRANCH  19  21
ENDBRANCH   9  19
BRANCH   4  23
ATOM     23  N   UNL     1      -5.516  -3.523  -4.651  0.00  0.00    -0.342 N 
ATOM     24  H   UNL     1      -5.387  -2.571  -4.517  0.00  0.00    +0.146 HD
BRANCH  23  25
ATOM     25  C   UNL     1      -6.012  -4.022  -5.936  0.00  0.00    +0.105 C 
BRANCH  25  26
ATOM     26  C   UNL     1      -6.245  -2.844  -6.884  0.00  0.00    +0.010 C 
ATOM     27  C   UNL     1      -6.872  -3.350  -8.190  0.00  0.00    +0.009 C 
ATOM     28  C   UNL     1      -7.256  -2.139  -9.043  0.00  0.00    +0.027 C 
ATOM     29  C   UNL     1      -6.102  -1.185  -9.137  0.00  0.00    -0.031 C 
ATOM     30  C   UNL     1      -5.082  -1.199  -8.340  0.00  0.00    -0.031 C 
ATOM     31  C   UNL     1      -4.909  -2.175  -7.211  0.00  0.00    +0.032 C 
ENDBRANCH  25  26
ENDBRANCH  23  25
ENDBRANCH   4  23
BRANCH   8  32
ATOM     32  C   UNL     1      -4.463  -8.467  -0.450  0.00  0.00    +0.112 C 
BRANCH  32  33
ATOM     33  C   UNL     1      -3.142  -9.093  -0.903  0.00  0.00    +0.052 C 
BRANCH  33  34
ATOM     34  C   UNL     1      -3.247 -10.594  -0.831  0.00  0.00    -0.040 C 
ATOM     35  C   UNL     1      -3.569 -11.436  -1.839  0.00  0.00    -0.001 A 
ATOM     36  C   UNL     1      -3.907 -11.215  -3.250  0.00  0.00    +0.010 A 
ATOM     37  C   UNL     1      -4.191 -12.281  -4.032  0.00  0.00    +0.001 A 
ATOM     38  C   UNL     1      -4.172 -13.589  -3.529  0.00  0.00    +0.002 A 
ATOM     39  C   UNL     1      -3.871 -13.873  -2.244  0.00  0.00    +0.026 A 
ATOM     40  C   UNL     1      -3.556 -12.828  -1.333  0.00  0.00    +0.043 A 
ATOM     41  N   UNL     1      -3.237 -12.845  -0.061  0.00  0.00    -0.380 N 
ATOM     42  C   UNL     1      -3.007 -11.465   0.382  0.00  0.00    +0.144 C 
ATOM     43  H   UNL     1      -3.163 -13.637   0.493  0.00  0.00    +0.160 HD
ENDBRANCH  33  34
ENDBRANCH  32  33
ENDBRANCH   8  32
TORSDOF 12
