REMARK  Name = ZINC21241403
REMARK  7 active torsions:
REMARK  status: ('A' for Active; 'I' for Inactive)
REMARK    1  A    between atoms: C_1  and  C_2
REMARK    2  A    between atoms: C_2  and  O_3
REMARK    3  A    between atoms: O_3  and  C_4
REMARK    4  A    between atoms: C_7  and  C_12
REMARK    5  A    between atoms: C_9  and  O_10
REMARK    6  A    between atoms: O_10  and  C_11
REMARK    7  A    between atoms: C_17  and  C_27
REMARK                            x       y       z     vdW  Elec       q    Type
REMARK                         _______ _______ _______ _____ _____    ______ ____
ROOT
ATOM      1  C   UNL     1      -0.204   0.492   0.075  0.00  0.00    +0.032 C 
ATOM      2  C   UNL     1       0.519  -0.091  -1.138  0.00  0.00    +0.059 C 
ATOM      3  C   UNL     1       1.991   0.282  -1.093  0.00  0.00    +0.017 C 
ATOM      4  C   UNL     1       2.383   1.446  -0.548  0.00  0.00    +0.037 C 
ATOM      5  C   UNL     1       3.806   1.939  -0.440  0.00  0.00    +0.143 C 
ATOM      6  N   UNL     1       4.766   1.179  -1.212  0.00  0.00    -0.331 N 
ATOM      7  C   UNL     1       5.031  -0.157  -0.914  0.00  0.00    +0.049 A 
ATOM      8  C   UNL     1       6.277  -0.566  -0.465  0.00  0.00    +0.025 A 
ATOM      9  C   UNL     1       6.479  -1.895  -0.137  0.00  0.00    +0.002 A 
ATOM     10  C   UNL     1       5.447  -2.809  -0.253  0.00  0.00    +0.002 A 
ATOM     11  C   UNL     1       4.207  -2.407  -0.718  0.00  0.00    +0.025 A 
ATOM     12  C   UNL     1       4.010  -1.082  -1.067  0.00  0.00    +0.052 A 
ATOM     13  N   UNL     1       2.827  -0.634  -1.645  0.00  0.00    -0.316 N 
ATOM     14  C   UNL     1       1.427   2.334   0.000  0.00  0.00    +0.163 C 
ATOM     15  O   UNL     1       1.807   3.392   0.462  0.00  0.00    -0.292 OA
ATOM     16  C   UNL     1      -0.037   2.015   0.030  0.00  0.00    +0.088 C 
ATOM     17  H   UNL     1       5.299   1.654  -2.049  0.00  0.00    +0.147 HD
ATOM     18  H   UNL     1       2.587  -1.079  -2.622  0.00  0.00    +0.152 HD
ENDROOT
BRANCH   5  19
ATOM     19  C   UNL     1       4.218   1.896   1.009  0.00  0.00    +0.059 A 
ATOM     20  C   UNL     1       3.515   1.161   1.891  0.00  0.00    +0.205 A 
ATOM     21  O   UNL     1       3.836   1.080   3.186  0.00  0.00    -0.462 OA
ATOM     22  C   UNL     1       4.887   1.741   3.713  0.00  0.00    +0.138 A 
ATOM     23  C   UNL     1       5.190   1.641   5.066  0.00  0.00    +0.047 A 
ATOM     24  C   UNL     1       6.269   2.327   5.581  0.00  0.00    +0.004 A 
ATOM     25  C   UNL     1       7.060   3.121   4.763  0.00  0.00    +0.001 A 
ATOM     26  C   UNL     1       6.776   3.235   3.420  0.00  0.00    +0.015 A 
ATOM     27  C   UNL     1       5.688   2.545   2.887  0.00  0.00    +0.064 A 
ATOM     28  C   UNL     1       5.345   2.636   1.454  0.00  0.00    +0.198 A 
ATOM     29  O   UNL     1       6.002   3.317   0.685  0.00  0.00    -0.287 OA
ENDBRANCH   5  19
BRANCH   1  33
ATOM     30  C   UNL     1      -4.357  -0.516  -0.090  0.00  0.00    +0.162 A 
ATOM     31  C   UNL     1      -3.772   0.195  -1.126  0.00  0.00    +0.050 A 
ATOM     32  C   UNL     1      -2.429   0.519  -1.069  0.00  0.00    +0.008 A 
ATOM     33  C   UNL     1      -1.667   0.136   0.019  0.00  0.00    -0.040 A 
ATOM     34  C   UNL     1      -2.244  -0.578   1.053  0.00  0.00    +0.053 A 
ATOM     35  C   UNL     1      -3.590  -0.901   1.005  0.00  0.00    +0.162 A 
BRANCH  35  36
ATOM     36  O   UNL     1      -4.160  -1.599   2.024  0.00  0.00    -0.491 OA
ATOM     37  C   UNL     1      -3.313  -1.962   3.116  0.00  0.00    +0.277 C 
ENDBRANCH  35  36
BRANCH  30  38
ATOM     38  O   UNL     1      -5.678  -0.835  -0.144  0.00  0.00    -0.489 OA
BRANCH  38  40
ATOM     39  C   UNL     1      -7.860  -0.855  -1.182  0.00  0.00    +0.048 C 
ATOM     40  C   UNL     1      -6.402  -0.407  -1.299  0.00  0.00    +0.226 C 
ENDBRANCH  38  40
ENDBRANCH  30  38
ENDBRANCH   1  33
TORSDOF 5
