REMARK  Name = ZINC40158520
REMARK  11 active torsions:
REMARK  status: ('A' for Active; 'I' for Inactive)
REMARK    1  A    between atoms: C_1  and  C_2
REMARK    2  A    between atoms: C_2  and  C_3
REMARK    3  A    between atoms: C_2  and  C_4
REMARK    4  A    between atoms: C_2  and  C_28
REMARK    5  A    between atoms: C_4  and  N_5
REMARK    6  A    between atoms: C_6  and  C_8
REMARK    7  A    between atoms: C_14  and  C_16
REMARK    8  A    between atoms: C_19  and  C_21
REMARK    9  A    between atoms: C_28  and  N_29
REMARK   10  A    between atoms: N_29  and  C_30
REMARK   11  A    between atoms: N_29  and  C_31
REMARK                            x       y       z     vdW  Elec       q    Type
REMARK                         _______ _______ _______ _____ _____    ______ ____
ROOT
ATOM      1  C   UNL     1      -4.618  -0.170   2.145  0.00  0.00    +0.078 C 
ATOM      2  C   UNL     1      -4.030   0.167   3.518  0.00  0.00    +0.032 C 
ATOM      3  C   UNL     1      -4.582   1.516   3.988  0.00  0.00    +0.109 C 
ATOM      4  N   UNL     1      -6.050   1.464   3.957  0.00  0.00    -0.297 N 
ATOM      5  C   UNL     1      -6.716   1.064   2.710  0.00  0.00    +0.109 C 
ATOM      6  C   UNL     1      -6.141  -0.281   2.254  0.00  0.00    +0.032 C 
ATOM      7  C   UNL     1      -6.771   1.778   5.051  0.00  0.00    +0.253 C 
ATOM      8  O   UNL     1      -6.207   2.053   6.094  0.00  0.00    -0.269 OA
ENDROOT
BRANCH   7   9
ATOM      9  C   UNL     1      -8.234   1.789   4.985  0.00  0.00    +0.075 A 
ATOM     10  C   UNL     1      -9.155   1.672   6.017  0.00  0.00    +0.021 A 
ATOM     11  C   UNL     1     -10.487   1.709   5.715  0.00  0.00    +0.017 A 
ATOM     12  C   UNL     1     -10.867   1.863   4.392  0.00  0.00    +0.020 A 
ATOM     13  S   UNL     1      -9.292   1.963   3.557  0.00  0.00    -0.084 S 
BRANCH  12  14
ATOM     14  C   UNL     1     -12.227   1.931   3.818  0.00  0.00    -0.011 A 
ATOM     15  C   UNL     1     -13.344   1.843   4.652  0.00  0.00    +0.010 A 
ATOM     16  C   UNL     1     -14.611   1.908   4.111  0.00  0.00    +0.020 A 
ATOM     17  C   UNL     1     -14.777   2.060   2.744  0.00  0.00    +0.041 A 
ATOM     18  C   UNL     1     -13.672   2.147   1.913  0.00  0.00    +0.020 A 
ATOM     19  C   UNL     1     -12.400   2.090   2.442  0.00  0.00    +0.010 A 
ATOM     20 CL   UNL     1     -16.375   2.141   2.071  0.00  0.00    -0.084 Cl
ENDBRANCH  12  14
ENDBRANCH   7   9
BRANCH   1  22
ATOM     21  N   UNL     1      -2.722  -1.618   1.492  0.00  0.00    -0.315 N 
ATOM     22  C   UNL     1      -4.052  -1.481   1.664  0.00  0.00    +0.216 C 
ATOM     23  O   UNL     1      -4.793  -2.412   1.431  0.00  0.00    -0.276 OA
ATOM     24  H   UNL     1      -2.130  -0.873   1.679  0.00  0.00    +0.149 HD
BRANCH  21  25
ATOM     25  C   UNL     1      -2.172  -2.892   1.025  0.00  0.00    +0.108 C 
BRANCH  25  27
ATOM     26  C   UNL     1      -0.289  -1.675  -0.077  0.00  0.00    +0.010 C 
ATOM     27  C   UNL     1      -0.650  -2.781   0.916  0.00  0.00    -0.034 C 
ATOM     28  C   UNL     1      -0.063  -2.446   2.288  0.00  0.00    +0.010 C 
BRANCH  27  29
ATOM     29  C   UNL     1      -0.075  -4.112   0.427  0.00  0.00    -0.072 C 
BRANCH  29  30
ATOM     30  N   UNL     1       1.375  -3.978   0.233  0.00  0.00    +0.376 N 
ATOM     31  C   UNL     1       2.068  -4.279   1.493  0.00  0.00    -0.097 C 
ATOM     32  C   UNL     1       1.819  -4.916  -0.807  0.00  0.00    -0.097 C 
ATOM     33  H   UNL     1       1.590  -3.034  -0.052  0.00  0.00    -0.083 HD
ENDBRANCH  29  30
ENDBRANCH  27  29
ENDBRANCH  25  27
ENDBRANCH  21  25
ENDBRANCH   1  22
TORSDOF 7
