REMARK  Name = ZINC64538269
REMARK  7 active torsions:
REMARK  status: ('A' for Active; 'I' for Inactive)
REMARK    1  A    between atoms: C_1  and  C_2
REMARK    2  A    between atoms: C_2  and  C_4
REMARK    3  A    between atoms: C_2  and  N_18
REMARK    4  A    between atoms: N_6  and  C_7
REMARK    5  A    between atoms: C_7  and  C_8
REMARK    6  A    between atoms: C_8  and  C_9
REMARK    7  A    between atoms: C_26  and  C_30
REMARK                            x       y       z     vdW  Elec       q    Type
REMARK                         _______ _______ _______ _____ _____    ______ ____
ROOT
ATOM      1  C   UNL     1      -0.019   1.526   0.010  0.00  0.00    +0.038 C 
ATOM      2  C   UNL     1       0.002  -0.004   0.002  0.00  0.00    +0.164 C 
ENDROOT
BRANCH   2   3
ATOM      3  N   UNL     1       0.711  -0.489   1.189  0.00  0.00    -0.256 N 
ATOM      4  C   UNL     1       1.861  -1.273   1.037  0.00  0.00    +0.058 A 
ATOM      5  C   UNL     1       2.505  -1.356  -0.187  0.00  0.00    +0.025 A 
ATOM      6  C   UNL     1       3.637  -2.139  -0.317  0.00  0.00    +0.002 A 
ATOM      7  C   UNL     1       4.131  -2.840   0.767  0.00  0.00    +0.002 A 
ATOM      8  C   UNL     1       3.495  -2.762   1.994  0.00  0.00    +0.025 A 
ATOM      9  C   UNL     1       2.364  -1.978   2.132  0.00  0.00    +0.050 A 
ATOM     10  N   UNL     1       1.704  -1.869   3.364  0.00  0.00    -0.325 N 
ATOM     11  C   UNL     1       0.988  -0.617   3.652  0.00  0.00    +0.262 C 
ATOM     12  C   UNL     1       0.252  -0.173   2.415  0.00  0.00    +0.250 C 
ATOM     13  O   UNL     1      -0.768   0.474   2.524  0.00  0.00    -0.273 OA
ATOM     14  H   UNL     1       1.719  -2.596   4.006  0.00  0.00    +0.147 HD
BRANCH  11  15
ATOM     15  C   UNL     1       1.991   0.463   4.063  0.00  0.00    +0.416 C 
ATOM     16  F   UNL     1       2.900   0.676   3.021  0.00  0.00    -0.168 F 
ATOM     17  F   UNL     1       1.308   1.653   4.337  0.00  0.00    -0.168 F 
ATOM     18  F   UNL     1       2.682   0.048   5.207  0.00  0.00    -0.168 F 
ENDBRANCH  11  15
ENDBRANCH   2   3
BRANCH   2  19
ATOM     19  C   UNL     1      -1.412  -0.526   0.013  0.00  0.00    +0.234 C 
ATOM     20  O   UNL     1      -1.790  -1.233   0.922  0.00  0.00    -0.274 OA
ATOM     21  N   UNL     1      -2.256  -0.206  -0.988  0.00  0.00    -0.313 N 
ATOM     22  H   UNL     1      -1.953   0.360  -1.716  0.00  0.00    +0.149 HD
BRANCH  21  23
ATOM     23  C   UNL     1      -3.630  -0.713  -0.978  0.00  0.00    +0.108 C 
BRANCH  23  24
ATOM     24  C   UNL     1      -4.370  -0.206  -2.217  0.00  0.00    +0.052 C 
BRANCH  24  25
ATOM     25  C   UNL     1      -5.784  -0.728  -2.207  0.00  0.00    -0.040 C 
ATOM     26  C   UNL     1      -6.882  -0.091  -1.741  0.00  0.00    -0.001 A 
ATOM     27  C   UNL     1      -7.082   1.228  -1.128  0.00  0.00    +0.010 A 
ATOM     28  C   UNL     1      -8.328   1.596  -0.754  0.00  0.00    +0.001 A 
ATOM     29  C   UNL     1      -9.432   0.752  -0.938  0.00  0.00    +0.002 A 
ATOM     30  C   UNL     1      -9.328  -0.474  -1.494  0.00  0.00    +0.026 A 
ATOM     31  C   UNL     1      -8.064  -0.963  -1.924  0.00  0.00    +0.043 A 
ATOM     32  N   UNL     1      -7.710  -2.096  -2.482  0.00  0.00    -0.380 N 
ATOM     33  C   UNL     1      -6.263  -2.067  -2.721  0.00  0.00    +0.144 C 
ATOM     34  H   UNL     1      -8.306  -2.829  -2.703  0.00  0.00    +0.160 HD
ENDBRANCH  24  25
ENDBRANCH  23  24
ENDBRANCH  21  23
ENDBRANCH   2  19
TORSDOF 6
