REMARK  Name = ZINC65734679
REMARK  14 active torsions:
REMARK  status: ('A' for Active; 'I' for Inactive)
REMARK    1  A    between atoms: C_4  and  C_7
REMARK    2  A    between atoms: C_7  and  O_8
REMARK    3  A    between atoms: O_8  and  C_9
REMARK    4  A    between atoms: C_11  and  O_40
REMARK    5  A    between atoms: C_13  and  O_39
REMARK    6  A    between atoms: C_15  and  O_22
REMARK    7  A    between atoms: C_17  and  C_20
REMARK    8  A    between atoms: C_20  and  O_21
REMARK    9  A    between atoms: O_22  and  C_23
REMARK   10  A    between atoms: C_25  and  O_38
REMARK   11  A    between atoms: C_27  and  O_37
REMARK   12  A    between atoms: C_29  and  O_36
REMARK   13  A    between atoms: C_31  and  C_34
REMARK   14  A    between atoms: C_34  and  O_35
REMARK                            x       y       z     vdW  Elec       q    Type
REMARK                         _______ _______ _______ _____ _____    ______ ____
ROOT
ATOM      1  C   UNL     1       4.549  -3.059   0.293  0.00  0.00    +0.282 C 
ATOM      2  C   UNL     1       5.708  -2.499   1.122  0.00  0.00    +0.201 C 
ATOM      3  C   UNL     1       5.255  -2.342   2.577  0.00  0.00    +0.179 C 
ATOM      4  C   UNL     1       4.768  -3.698   3.098  0.00  0.00    +0.183 C 
ATOM      5  C   UNL     1       3.646  -4.211   2.192  0.00  0.00    +0.178 C 
ATOM      6  O   UNL     1       4.125  -4.305   0.849  0.00  0.00    -0.341 OA
ENDROOT
BRANCH   3   7
ATOM      7  O   UNL     1       4.189  -1.392   2.646  0.00  0.00    -0.386 OA
ATOM      8  H   UNL     1       4.427  -0.511   2.325  0.00  0.00    +0.210 HD
ENDBRANCH   3   7
BRANCH   2   9
ATOM      9  O   UNL     1       6.817  -3.398   1.061  0.00  0.00    -0.384 OA
ATOM     10  H   UNL     1       7.153  -3.547   0.167  0.00  0.00    +0.210 HD
ENDBRANCH   2   9
BRANCH   1  11
ATOM     11  O   UNL     1       3.460  -2.134   0.310  0.00  0.00    -0.344 OA
BRANCH  11  12
ATOM     12  C   UNL     1       2.365  -2.509  -0.528  0.00  0.00    +0.198 C 
BRANCH  12  16
ATOM     13  C   UNL     1      -0.713   0.440  -0.259  0.00  0.00    +0.000 A 
ATOM     14  C   UNL     1       0.279   0.562  -1.214  0.00  0.00    +0.000 A 
ATOM     15  C   UNL     1       1.275  -0.393  -1.301  0.00  0.00    +0.006 A 
ATOM     16  C   UNL     1       1.280  -1.468  -0.433  0.00  0.00    -0.022 A 
ATOM     17  C   UNL     1       0.288  -1.589   0.523  0.00  0.00    +0.006 A 
ATOM     18  C   UNL     1      -0.709  -0.636   0.609  0.00  0.00    +0.000 A 
ENDBRANCH  12  16
ENDBRANCH  11  12
ENDBRANCH   1  11
BRANCH   5  19
ATOM     19  C   UNL     1       3.196  -5.593   2.671  0.00  0.00    +0.190 C 
BRANCH  19  20
ATOM     20  O   UNL     1       2.072  -6.022   1.899  0.00  0.00    -0.392 OA
ATOM     21  H   UNL     1       1.733  -6.892   2.148  0.00  0.00    +0.210 HD
ENDBRANCH  19  20
ENDBRANCH   5  19
BRANCH   4  22
ATOM     22  O   UNL     1       5.853  -4.629   3.092  0.00  0.00    -0.340 OA
BRANCH  22  23
ATOM     23  C   UNL     1       6.028  -5.325   4.327  0.00  0.00    +0.282 C 
ATOM     24  C   UNL     1       6.997  -6.493   4.121  0.00  0.00    +0.201 C 
ATOM     25  C   UNL     1       8.363  -5.944   3.699  0.00  0.00    +0.179 C 
ATOM     26  C   UNL     1       8.857  -4.959   4.764  0.00  0.00    +0.177 C 
ATOM     27  C   UNL     1       7.816  -3.851   4.944  0.00  0.00    +0.178 C 
ATOM     28  O   UNL     1       6.561  -4.432   5.306  0.00  0.00    -0.341 OA
BRANCH  26  29
ATOM     29  O   UNL     1      10.098  -4.387   4.346  0.00  0.00    -0.386 OA
ATOM     30  H   UNL     1      10.803  -5.035   4.208  0.00  0.00    +0.210 HD
ENDBRANCH  26  29
BRANCH  25  31
ATOM     31  O   UNL     1       8.241  -5.272   2.444  0.00  0.00    -0.386 OA
ATOM     32  H   UNL     1       7.927  -5.837   1.724  0.00  0.00    +0.210 HD
ENDBRANCH  25  31
BRANCH  24  33
ATOM     33  O   UNL     1       7.131  -7.223   5.343  0.00  0.00    -0.384 OA
ATOM     34  H   UNL     1       6.301  -7.596   5.671  0.00  0.00    +0.210 HD
ENDBRANCH  24  33
BRANCH  27  35
ATOM     35  C   UNL     1       8.274  -2.896   6.048  0.00  0.00    +0.190 C 
BRANCH  35  36
ATOM     36  O   UNL     1       7.363  -1.799   6.138  0.00  0.00    -0.392 OA
ATOM     37  H   UNL     1       7.592  -1.152   6.819  0.00  0.00    +0.210 HD
ENDBRANCH  35  36
ENDBRANCH  27  35
ENDBRANCH  22  23
ENDBRANCH   4  22
TORSDOF 14
