REMARK  Name = ZINC43006692
REMARK  7 active torsions:
REMARK  status: ('A' for Active; 'I' for Inactive)
REMARK    1  A    between atoms: C_1  and  C_2
REMARK    2  A    between atoms: C_2  and  C_4
REMARK    3  A    between atoms: C_2  and  N_21
REMARK    4  A    between atoms: N_6  and  N_7
REMARK    5  A    between atoms: C_8  and  C_10
REMARK    6  A    between atoms: C_10  and  C_11
REMARK    7  A    between atoms: N_24  and  C_25
REMARK                            x       y       z     vdW  Elec       q    Type
REMARK                         _______ _______ _______ _____ _____    ______ ____
ROOT
ATOM      1  C   UNL     1       0.736  -0.515   1.218  0.00  0.00    +0.249 C 
ATOM      2  O   UNL     1       0.166  -1.230   2.014  0.00  0.00    -0.272 OA
ATOM      3  N   UNL     1       2.023  -0.172   1.420  0.00  0.00    -0.233 N 
ATOM      4  H   UNL     1       2.479   0.400   0.783  0.00  0.00    +0.173 HD
ENDROOT
BRANCH   3   5
ATOM      5  N   UNL     1       2.704  -0.644   2.550  0.00  0.00    -0.234 N 
ATOM      6  C   UNL     1       3.992  -0.301   2.752  0.00  0.00    +0.230 C 
ATOM      7  O   UNL     1       4.562   0.414   1.956  0.00  0.00    -0.274 OA
ATOM      8  H   UNL     1       2.249  -1.216   3.187  0.00  0.00    +0.173 HD
BRANCH   6   9
ATOM      9  C   UNL     1       4.724  -0.808   3.968  0.00  0.00    +0.104 C 
BRANCH   9  10
ATOM     10  C   UNL     1       6.159  -0.277   3.958  0.00  0.00    -0.020 C 
ATOM     11  C   UNL     1       6.873  -0.760   2.693  0.00  0.00    +0.011 C 
ATOM     12  C   UNL     1       8.308  -0.229   2.683  0.00  0.00    -0.010 C 
ATOM     13  C   UNL     1       9.051  -0.744   3.917  0.00  0.00    +0.007 C 
ATOM     14  C   UNL     1       8.337  -0.260   5.181  0.00  0.00    -0.010 C 
ATOM     15  C   UNL     1       6.903  -0.791   5.192  0.00  0.00    +0.011 C 
ATOM     16  C   UNL     1       8.315   1.270   5.200  0.00  0.00    +0.007 C 
ATOM     17  C   UNL     1       7.571   1.784   3.966  0.00  0.00    -0.010 C 
ATOM     18  C   UNL     1       8.285   1.301   2.702  0.00  0.00    +0.007 C 
ATOM     19  C   UNL     1       6.136   1.253   3.977  0.00  0.00    +0.011 C 
ENDBRANCH   9  10
ENDBRANCH   6   9
ENDBRANCH   3   5
BRANCH   1  21
ATOM     20  C   UNL     1      -0.019   1.522   0.021  0.00  0.00    +0.038 C 
ATOM     21  C   UNL     1       0.003  -0.008   0.002  0.00  0.00    +0.159 C 
BRANCH  21  22
ATOM     22  N   UNL     1      -1.370  -0.517   0.012  0.00  0.00    -0.288 N 
ATOM     23  C   UNL     1      -2.051  -0.641  -1.144  0.00  0.00    +0.304 C 
ATOM     24  O   UNL     1      -1.526  -0.331  -2.196  0.00  0.00    -0.252 OA
ATOM     25  N   UNL     1      -3.315  -1.109  -1.135  0.00  0.00    -0.269 N 
ATOM     26  H   UNL     1      -1.790  -0.764   0.851  0.00  0.00    +0.151 HD
ATOM     27  H   UNL     1      -3.711  -1.420  -0.306  0.00  0.00    +0.156 HD
BRANCH  25  28
ATOM     28  C   UNL     1      -4.056  -1.148  -2.322  0.00  0.00    +0.035 A 
ATOM     29  C   UNL     1      -5.423  -0.903  -2.297  0.00  0.00    +0.023 A 
ATOM     30  C   UNL     1      -6.151  -0.941  -3.470  0.00  0.00    +0.002 A 
ATOM     31  C   UNL     1      -5.520  -1.222  -4.668  0.00  0.00    +0.000 A 
ATOM     32  C   UNL     1      -4.160  -1.467  -4.696  0.00  0.00    +0.002 A 
ATOM     33  C   UNL     1      -3.425  -1.425  -3.527  0.00  0.00    +0.023 A 
ENDBRANCH  25  28
ENDBRANCH  21  22
ENDBRANCH   1  21
TORSDOF 6
