REMARK  Name = ZINC11882134
REMARK  10 active torsions:
REMARK  status: ('A' for Active; 'I' for Inactive)
REMARK    1  A    between atoms: C_1  and  C_2
REMARK    2  A    between atoms: C_2  and  C_8
REMARK    3  A    between atoms: C_13  and  C_16
REMARK    4  A    between atoms: C_16  and  C_27
REMARK    5  A    between atoms: N_19  and  C_23
REMARK    6  A    between atoms: C_23  and  C_24
REMARK    7  A    between atoms: C_24  and  N_74
REMARK    8  A    between atoms: C_25  and  N_74
REMARK    9  A    between atoms: C_26  and  N_74
REMARK   10  A    between atoms: C_27  and  C_28
REMARK                            x       y       z     vdW  Elec       q    Type
REMARK                         _______ _______ _______ _____ _____    ______ ____
ROOT
ATOM      1  C   UNL     1      -0.912   5.351  -1.415  0.00  0.00    +0.119 C 
ATOM      2  C   UNL     1       0.198   6.368  -1.241  0.00  0.00    +0.247 C 
ATOM      3  O   UNL     1       0.435   7.032  -0.255  0.00  0.00    -0.273 OA
ATOM      4  N   UNL     1       0.867   6.377  -2.415  0.00  0.00    -0.226 N 
ATOM      5  C   UNL     1       0.335   5.519  -3.293  0.00  0.00    +0.309 C 
ATOM      6  O   UNL     1       0.763   5.352  -4.419  0.00  0.00    -0.252 OA
ATOM      7  N   UNL     1      -0.727   4.862  -2.792  0.00  0.00    -0.284 N 
ATOM      8  H   UNL     1      -1.264   4.196  -3.248  0.00  0.00    +0.151 HD
ENDROOT
BRANCH   1  14
ATOM      9  C   UNL     1      -0.125   0.184   0.133  0.00  0.00    +0.221 C 
ATOM     10  O   UNL     1       1.005  -0.230  -0.018  0.00  0.00    -0.275 OA
ATOM     11  N   UNL     1      -0.341   1.502   0.309  0.00  0.00    -0.301 N 
ATOM     12  C   UNL     1      -1.709   2.035   0.367  0.00  0.00    +0.108 C 
ATOM     13  C   UNL     1      -1.848   3.162  -0.655  0.00  0.00    +0.025 C 
ATOM     14  C   UNL     1      -0.756   4.206  -0.412  0.00  0.00    +0.025 C 
ATOM     15  C   UNL     1       0.620   3.558  -0.588  0.00  0.00    +0.025 C 
ATOM     16  C   UNL     1       0.786   2.435   0.441  0.00  0.00    +0.108 C 
BRANCH   9  18
ATOM     17  C   UNL     1      -2.160  -0.508  -1.104  0.00  0.00    +0.021 C 
ATOM     18  C   UNL     1      -1.287  -0.776   0.124  0.00  0.00    +0.044 C 
ATOM     19  C   UNL     1      -2.118  -0.582   1.393  0.00  0.00    +0.016 C 
ATOM     20  C   UNL     1      -1.245  -0.850   2.621  0.00  0.00    +0.001 C 
ATOM     21  C   UNL     1      -0.720  -2.286   2.570  0.00  0.00    +0.000 C 
ATOM     22  C   UNL     1       0.112  -2.480   1.300  0.00  0.00    +0.001 C 
ATOM     23  C   UNL     1      -0.761  -2.212   0.073  0.00  0.00    +0.016 C 
ENDBRANCH   9  18
ENDBRANCH   1  14
BRANCH   4  24
ATOM     24  C   UNL     1       2.029   7.224  -2.693  0.00  0.00    +0.099 C 
BRANCH  24  25
ATOM     25  C   UNL     1       1.559   8.559  -3.276  0.00  0.00    -0.060 C 
BRANCH  25  28
ATOM     26  C   UNL     1       3.553   8.832  -4.622  0.00  0.00    -0.097 C 
ATOM     27  C   UNL     1       2.310  10.777  -3.891  0.00  0.00    -0.097 C 
ATOM     28  N   UNL     1       2.741   9.410  -3.531  0.00  0.00    +0.377 N 
ATOM     29  H   UNL     1       3.311   9.453  -2.678  0.00  0.00    -0.083 HD
ENDBRANCH  25  28
ENDBRANCH  24  25
ENDBRANCH   4  24
BRANCH   1  30
ATOM     30  C   UNL     1      -2.281   6.016  -1.260  0.00  0.00    +0.070 C 
BRANCH  30  31
ATOM     31  C   UNL     1      -2.459   7.056  -2.336  0.00  0.00    -0.042 A 
ATOM     32  C   UNL     1      -3.024   6.706  -3.549  0.00  0.00    +0.004 A 
ATOM     33  C   UNL     1      -3.187   7.659  -4.537  0.00  0.00    +0.003 A 
ATOM     34  C   UNL     1      -2.786   8.963  -4.314  0.00  0.00    +0.038 A 
ATOM     35  C   UNL     1      -2.220   9.314  -3.100  0.00  0.00    +0.124 A 
ATOM     36  C   UNL     1      -2.062   8.360  -2.109  0.00  0.00    +0.042 A 
ATOM     37  F   UNL     1      -1.828  10.588  -2.881  0.00  0.00    -0.205 F 
ENDBRANCH  30  31
ENDBRANCH   1  30
TORSDOF 7
