REMARK  Name = ZINC00657649
REMARK  9 active torsions:
REMARK  status: ('A' for Active; 'I' for Inactive)
REMARK    1  A    between atoms: C_4  and  C_7
REMARK    2  A    between atoms: C_7  and  C_8
REMARK    3  A    between atoms: C_7  and  C_14
REMARK    4  A    between atoms: C_7  and  O_34
REMARK    5  A    between atoms: N_16  and  N_17
REMARK    6  A    between atoms: C_18  and  C_19
REMARK    7  A    between atoms: C_22  and  C_24
REMARK    8  A    between atoms: C_27  and  S_30
REMARK    9  A    between atoms: S_30  and  N_33
REMARK                            x       y       z     vdW  Elec       q    Type
REMARK                         _______ _______ _______ _____ _____    ______ ____
ROOT
ATOM      1  C   UNL     1      -7.766  -1.960   9.609  0.00  0.00    +0.273 C 
ATOM      2  O   UNL     1      -8.277  -2.856  10.248  0.00  0.00    -0.270 OA
ATOM      3  N   UNL     1      -6.441  -1.976   9.367  0.00  0.00    -0.204 N 
ATOM      4  H   UNL     1      -6.032  -1.260   8.856  0.00  0.00    +0.177 HD
ENDROOT
BRANCH   3   5
ATOM      5  N   UNL     1      -5.652  -3.028   9.852  0.00  0.00    -0.185 NA
ATOM      6  C   UNL     1      -4.372  -3.043   9.618  0.00  0.00    +0.176 C 
BRANCH   6   7
ATOM      7  C   UNL     1      -3.548  -4.142  10.125  0.00  0.00    +0.148 A 
ATOM      8  C   UNL     1      -2.188  -4.281   9.950  0.00  0.00    +0.051 A 
ATOM      9  C   UNL     1      -1.817  -5.468  10.596  0.00  0.00    +0.050 A 
ATOM     10  C   UNL     1      -2.950  -6.002  11.135  0.00  0.00    +0.136 A 
ATOM     11  O   UNL     1      -3.988  -5.197  10.839  0.00  0.00    -0.454 OA
BRANCH  10  12
ATOM     12  C   UNL     1      -3.026  -7.258  11.907  0.00  0.00    +0.017 A 
ATOM     13  C   UNL     1      -4.253  -7.700  12.408  0.00  0.00    +0.013 A 
ATOM     14  C   UNL     1      -4.317  -8.874  13.129  0.00  0.00    +0.029 A 
ATOM     15  C   UNL     1      -3.169  -9.613  13.358  0.00  0.00    +0.105 A 
ATOM     16  C   UNL     1      -1.950  -9.177  12.870  0.00  0.00    +0.029 A 
ATOM     17  C   UNL     1      -1.872  -8.009  12.142  0.00  0.00    +0.013 A 
BRANCH  15  18
ATOM     18  S   UNL     1      -3.260 -11.111  14.281  0.00  0.00    +0.056 S 
ATOM     19  O   UNL     1      -4.420 -11.015  15.097  0.00  0.00    -0.153 OA
ATOM     20  O   UNL     1      -1.965 -11.333  14.822  0.00  0.00    -0.153 OA
BRANCH  18  21
ATOM     21  N   UNL     1      -3.539 -12.335  13.202  0.00  0.00    -0.204 NA
ATOM     22  H   UNL     1      -4.339 -12.878  13.281  0.00  0.00    +0.144 HD
ATOM     23  H   UNL     1      -2.903 -12.509  12.490  0.00  0.00    +0.144 HD
ENDBRANCH  18  21
ENDBRANCH  15  18
ENDBRANCH  10  12
ENDBRANCH   6   7
ENDBRANCH   3   5
BRANCH   1  24
ATOM     24  C   UNL     1      -8.614  -0.829   9.087  0.00  0.00    +0.194 C 
BRANCH  24  28
ATOM     25  C   UNL     1     -12.649  -2.161   8.646  0.00  0.00    +0.000 A 
ATOM     26  C   UNL     1     -12.076  -2.095   9.902  0.00  0.00    +0.000 A 
ATOM     27  C   UNL     1     -10.771  -1.664  10.045  0.00  0.00    +0.007 A 
ATOM     28  C   UNL     1     -10.038  -1.299   8.931  0.00  0.00    -0.003 A 
ATOM     29  C   UNL     1     -10.612  -1.360   7.675  0.00  0.00    +0.007 A 
ATOM     30  C   UNL     1     -11.916  -1.796   7.532  0.00  0.00    +0.000 A 
ENDBRANCH  24  28
BRANCH  24  31
ATOM     31  C   UNL     1      -8.569   0.322  10.058  0.00  0.00    -0.003 A 
ATOM     32  C   UNL     1      -8.610   0.082  11.418  0.00  0.00    +0.007 A 
ATOM     33  C   UNL     1      -8.563   1.138  12.309  0.00  0.00    +0.000 A 
ATOM     34  C   UNL     1      -8.486   2.435  11.839  0.00  0.00    +0.000 A 
ATOM     35  C   UNL     1      -8.451   2.677  10.478  0.00  0.00    +0.000 A 
ATOM     36  C   UNL     1      -8.492   1.620   9.588  0.00  0.00    +0.007 A 
ENDBRANCH  24  31
BRANCH  24  37
ATOM     37  O   UNL     1      -8.112  -0.404   7.819  0.00  0.00    -0.371 OA
ATOM     38  H   UNL     1      -8.111  -1.095   7.143  0.00  0.00    +0.212 HD
ENDBRANCH  24  37
ENDBRANCH   1  24
TORSDOF 9
