REMARK  Name = ZINC39722083
REMARK  12 active torsions:
REMARK  status: ('A' for Active; 'I' for Inactive)
REMARK    1  A    between atoms: C_1  and  C_2
REMARK    2  A    between atoms: C_2  and  C_3
REMARK    3  A    between atoms: N_11  and  C_12
REMARK    4  A    between atoms: C_12  and  C_14
REMARK    5  A    between atoms: C_17  and  S_20
REMARK    6  A    between atoms: S_20  and  N_23
REMARK    7  A    between atoms: N_23  and  C_24
REMARK    8  A    between atoms: N_23  and  C_26
REMARK    9  A    between atoms: C_24  and  C_25
REMARK   10  A    between atoms: C_26  and  C_27
REMARK   11  A    between atoms: N_33  and  C_34
REMARK   12  A    between atoms: C_34  and  C_35
REMARK                            x       y       z     vdW  Elec       q    Type
REMARK                         _______ _______ _______ _____ _____    ______ ____
ROOT
ATOM      1  C   UNL     1      -8.633  -3.457  -3.681  0.00  0.00    +0.039 A 
ATOM      2  C   UNL     1      -9.463  -3.915  -2.658  0.00  0.00    +0.015 A 
ATOM      3  C   UNL     1     -10.756  -4.305  -2.944  0.00  0.00    +0.029 A 
ATOM      4  C   UNL     1     -11.228  -4.243  -4.243  0.00  0.00    +0.106 A 
ATOM      5  C   UNL     1     -10.409  -3.791  -5.262  0.00  0.00    +0.029 A 
ATOM      6  C   UNL     1      -9.117  -3.392  -4.987  0.00  0.00    +0.015 A 
ENDROOT
BRANCH   4   7
ATOM      7  S   UNL     1     -12.879  -4.744  -4.601  0.00  0.00    +0.061 S 
ATOM      8  O   UNL     1     -12.876  -5.231  -5.936  0.00  0.00    -0.153 OA
ATOM      9  O   UNL     1     -13.311  -5.534  -3.502  0.00  0.00    -0.153 OA
BRANCH   7  10
ATOM     10  N   UNL     1     -13.816  -3.378  -4.598  0.00  0.00    -0.173 NA
BRANCH  10  11
ATOM     11  C   UNL     1     -14.392  -2.887  -3.344  0.00  0.00    +0.106 C 
ATOM     12  C   UNL     1     -13.475  -1.818  -2.746  0.00  0.00    +0.022 C 
ENDBRANCH  10  11
BRANCH  10  13
ATOM     13  C   UNL     1     -14.069  -2.661  -5.850  0.00  0.00    +0.144 C 
BRANCH  13  14
ATOM     14  C   UNL     1     -15.390  -3.103  -6.425  0.00  0.00    -0.032 A 
ATOM     15  C   UNL     1     -15.429  -4.100  -7.382  0.00  0.00    +0.005 A 
ATOM     16  C   UNL     1     -16.641  -4.505  -7.908  0.00  0.00    +0.000 A 
ATOM     17  C   UNL     1     -17.814  -3.915  -7.478  0.00  0.00    +0.000 A 
ATOM     18  C   UNL     1     -17.776  -2.919  -6.520  0.00  0.00    +0.000 A 
ATOM     19  C   UNL     1     -16.564  -2.516  -5.990  0.00  0.00    +0.005 A 
ENDBRANCH  13  14
ENDBRANCH  10  13
ENDBRANCH   7  10
ENDBRANCH   4   7
BRANCH   1  20
ATOM     20  C   UNL     1      -7.245  -3.037  -3.381  0.00  0.00    +0.269 C 
ATOM     21  O   UNL     1      -6.523  -2.633  -4.276  0.00  0.00    -0.268 OA
BRANCH  20  30
ATOM     22  C   UNL     1      -0.963  -1.356  -0.767  0.00  0.00    -0.046 A 
ATOM     23  C   UNL     1      -1.482  -1.748   0.455  0.00  0.00    +0.006 A 
ATOM     24  C   UNL     1      -2.773  -2.208   0.567  0.00  0.00    +0.027 A 
ATOM     25  C   UNL     1      -3.601  -2.292  -0.562  0.00  0.00    +0.058 A 
ATOM     26  C   UNL     1      -3.051  -1.889  -1.787  0.00  0.00    +0.039 A 
ATOM     27  C   UNL     1      -1.762  -1.424  -1.896  0.00  0.00    +0.020 A 
ATOM     28  S   UNL     1      -4.383  -2.142  -2.930  0.00  0.00    -0.052 S 
ATOM     29  C   UNL     1      -5.538  -2.725  -1.858  0.00  0.00    +0.167 A 
ATOM     30  N   UNL     1      -6.784  -3.102  -2.127  0.00  0.00    -0.152 NA
ATOM     31  N   UNL     1      -4.911  -2.723  -0.653  0.00  0.00    -0.317 N 
BRANCH  22  33
ATOM     32  C   UNL     1       0.474   0.662  -0.657  0.00  0.00    +0.009 C 
ATOM     33  C   UNL     1       0.454  -0.854  -0.867  0.00  0.00    +0.032 C 
ENDBRANCH  22  33
BRANCH  31  34
ATOM     34  C   UNL     1      -5.621  -3.177   0.545  0.00  0.00    +0.151 C 
BRANCH  34  35
ATOM     35  C   UNL     1      -6.316  -2.006   1.191  0.00  0.00    -0.013 C 
ATOM     36  C   UNL     1      -7.604  -2.057   1.425  0.00  0.00    +0.005 C 
ENDBRANCH  34  35
ENDBRANCH  31  34
ENDBRANCH  20  30
ENDBRANCH   1  20
TORSDOF 10
