REMARK  Name = ZINC39668560
REMARK  13 active torsions:
REMARK  status: ('A' for Active; 'I' for Inactive)
REMARK    1  A    between atoms: C_1  and  C_2
REMARK    2  A    between atoms: C_2  and  C_4
REMARK    3  A    between atoms: C_2  and  O_33
REMARK    4  A    between atoms: C_4  and  N_5
REMARK    5  A    between atoms: C_6  and  C_8
REMARK    6  A    between atoms: C_19  and  C_21
REMARK    7  A    between atoms: C_23  and  O_31
REMARK    8  A    between atoms: C_24  and  O_29
REMARK    9  A    between atoms: C_25  and  O_27
REMARK   10  A    between atoms: O_27  and  C_28
REMARK   11  A    between atoms: O_29  and  C_30
REMARK   12  A    between atoms: O_31  and  C_32
REMARK   13  A    between atoms: O_33  and  C_34
REMARK                            x       y       z     vdW  Elec       q    Type
REMARK                         _______ _______ _______ _____ _____    ______ ____
ROOT
ATOM      1  C   UNL     1       1.609  -3.955   1.927  0.00  0.00    +0.100 C 
ATOM      2  C   UNL     1       0.211  -4.603   1.813  0.00  0.00    +0.121 C 
ATOM      3  N   UNL     1       0.313  -5.855   2.599  0.00  0.00    -0.296 N 
ATOM      4  C   UNL     1       1.131  -5.483   3.779  0.00  0.00    +0.115 C 
ATOM      5  C   UNL     1       2.209  -4.535   3.219  0.00  0.00    -0.004 C 
ATOM      6  C   UNL     1       3.484  -5.312   2.907  0.00  0.00    -0.010 C 
ATOM      7  C   UNL     1       4.093  -5.830   4.213  0.00  0.00    -0.082 C 
ATOM      8  N   UNL     1       4.390  -4.699   5.099  0.00  0.00    +0.379 N 
ATOM      9  C   UNL     1       3.146  -4.012   5.469  0.00  0.00    -0.082 C 
ATOM     10  C   UNL     1       2.497  -3.417   4.216  0.00  0.00    -0.010 C 
ATOM     11  C   UNL     1      -0.217  -7.059   2.308  0.00  0.00    +0.247 C 
ATOM     12  O   UNL     1      -0.774  -7.236   1.242  0.00  0.00    -0.270 OA
ATOM     13  H   UNL     1       4.846  -5.037   5.933  0.00  0.00    -0.086 HD
ATOM     14  H   UNL     1       5.001  -4.052   4.624  0.00  0.00    -0.086 HD
ENDROOT
BRANCH  11  15
ATOM     15  C   UNL     1      -0.121  -8.163   3.283  0.00  0.00    +0.044 A 
ATOM     16  C   UNL     1       0.023  -7.884   4.644  0.00  0.00    +0.062 A 
ATOM     17  C   UNL     1       0.112  -8.920   5.556  0.00  0.00    +0.166 A 
ATOM     18  C   UNL     1       0.059 -10.240   5.117  0.00  0.00    +0.204 A 
ATOM     19  C   UNL     1      -0.085 -10.521   3.761  0.00  0.00    +0.166 A 
ATOM     20  C   UNL     1      -0.180  -9.489   2.847  0.00  0.00    +0.062 A 
BRANCH  19  21
ATOM     21  O   UNL     1      -0.136 -11.812   3.337  0.00  0.00    -0.491 OA
ATOM     22  C   UNL     1      -0.284 -12.028   1.932  0.00  0.00    +0.277 C 
ENDBRANCH  19  21
BRANCH  18  23
ATOM     23  O   UNL     1       0.147 -11.257   6.015  0.00  0.00    -0.488 OA
ATOM     24  C   UNL     1      -1.077 -11.735   6.576  0.00  0.00    +0.277 C 
ENDBRANCH  18  23
BRANCH  17  25
ATOM     25  O   UNL     1       0.253  -8.649   6.881  0.00  0.00    -0.491 OA
ATOM     26  C   UNL     1       0.301  -7.272   7.260  0.00  0.00    +0.277 C 
ENDBRANCH  17  25
ENDBRANCH  11  15
BRANCH   1  28
ATOM     27  N   UNL     1       2.460  -1.665   1.543  0.00  0.00    -0.312 N 
ATOM     28  C   UNL     1       1.486  -2.457   2.032  0.00  0.00    +0.218 C 
ATOM     29  O   UNL     1       0.509  -1.964   2.556  0.00  0.00    -0.275 OA
ATOM     30  H   UNL     1       3.241  -2.059   1.124  0.00  0.00    +0.149 HD
BRANCH  27  31
ATOM     31  C   UNL     1       2.341  -0.208   1.645  0.00  0.00    +0.148 C 
BRANCH  31  33
ATOM     32  C   UNL     1       3.507   1.963   1.236  0.00  0.00    +0.053 C 
ATOM     33  C   UNL     1       3.572   0.450   1.019  0.00  0.00    +0.187 C 
BRANCH  33  34
ATOM     34  O   UNL     1       3.600   0.171  -0.382  0.00  0.00    -0.486 OA
BRANCH  34  35
ATOM     35  C   UNL     1       4.813   0.208  -0.994  0.00  0.00    +0.139 A 
ATOM     36  C   UNL     1       5.973   0.402  -0.250  0.00  0.00    +0.049 A 
ATOM     37  C   UNL     1       7.186   0.432  -0.919  0.00  0.00    +0.023 A 
ATOM     38  C   UNL     1       7.205   0.271  -2.292  0.00  0.00    +0.111 A 
ATOM     39  N   UNL     1       6.087   0.089  -2.967  0.00  0.00    -0.260 NA
ATOM     40  C   UNL     1       4.913   0.047  -2.368  0.00  0.00    +0.156 A 
ENDBRANCH  34  35
ENDBRANCH  33  34
ENDBRANCH  31  33
ENDBRANCH  27  31
ENDBRANCH   1  28
TORSDOF 9
