REMARK  Name = ZINC63490989
REMARK  11 active torsions:
REMARK  status: ('A' for Active; 'I' for Inactive)
REMARK    1  A    between atoms: C_1  and  C_2
REMARK    2  A    between atoms: C_2  and  C_3
REMARK    3  A    between atoms: C_3  and  C_4
REMARK    4  A    between atoms: C_11  and  C_15
REMARK    5  A    between atoms: C_15  and  O_16
REMARK    6  A    between atoms: O_16  and  C_17
REMARK    7  A    between atoms: C_20  and  C_25
REMARK    8  A    between atoms: C_22  and  O_23
REMARK    9  A    between atoms: O_23  and  C_24
REMARK   10  A    between atoms: C_26  and  C_27
REMARK   11  A    between atoms: C_26  and  C_29
REMARK                            x       y       z     vdW  Elec       q    Type
REMARK                         _______ _______ _______ _____ _____    ______ ____
ROOT
ATOM      1  C   UNL     1       2.099 -10.188  -0.004  0.00  0.00    +0.162 A 
ATOM      2  C   UNL     1       2.753 -10.695  -1.118  0.00  0.00    +0.050 A 
ATOM      3  C   UNL     1       3.228 -11.988  -1.114  0.00  0.00    +0.012 A 
ATOM      4  C   UNL     1       3.051 -12.795   0.015  0.00  0.00    -0.020 A 
ATOM      5  C   UNL     1       2.391 -12.283   1.139  0.00  0.00    +0.057 A 
ATOM      6  C   UNL     1       1.923 -10.984   1.128  0.00  0.00    +0.162 A 
ENDROOT
BRANCH   6   7
ATOM      7  O   UNL     1       1.286 -10.482   2.219  0.00  0.00    -0.491 OA
ATOM      8  C   UNL     1       1.141 -11.352   3.343  0.00  0.00    +0.277 C 
ENDBRANCH   6   7
BRANCH   4   9
ATOM      9  C   UNL     1       3.555 -14.176   0.022  0.00  0.00    +0.026 C 
ATOM     10  C   UNL     1       4.661 -14.494  -0.684  0.00  0.00    +0.072 C 
BRANCH  10  11
ATOM     11  C   UNL     1       5.087 -15.934  -0.808  0.00  0.00    +0.216 C 
ATOM     12  N   UNL     1       6.460 -16.098  -0.313  0.00  0.00    -0.359 N 
ATOM     13  C   UNL     1       7.183 -16.534  -1.304  0.00  0.00    +0.060 A 
ATOM     14  C   UNL     1       8.605 -16.882  -1.425  0.00  0.00    +0.027 A 
ATOM     15  C   UNL     1       9.085 -17.318  -2.607  0.00  0.00    +0.002 A 
ATOM     16  C   UNL     1       8.275 -17.459  -3.748  0.00  0.00    +0.002 A 
ATOM     17  C   UNL     1       6.959 -17.168  -3.746  0.00  0.00    +0.027 A 
ATOM     18  C   UNL     1       6.325 -16.684  -2.511  0.00  0.00    +0.060 A 
ATOM     19  N   UNL     1       5.106 -16.334  -2.221  0.00  0.00    -0.359 N 
ATOM     20  H   UNL     1       6.771 -15.914   0.587  0.00  0.00    +0.162 HD
ATOM     21  H   UNL     1       4.348 -16.337  -2.827  0.00  0.00    +0.162 HD
ENDBRANCH  10  11
BRANCH  10  22
ATOM     22  C   UNL     1       5.428 -13.463  -1.315  0.00  0.00    +0.099 C 
ATOM     23  N   UNL     1       6.037 -12.645  -1.816  0.00  0.00    -0.191 NA
ENDBRANCH  10  22
ENDBRANCH   4   9
BRANCH   1  24
ATOM     24  O   UNL     1       1.633  -8.912  -0.013  0.00  0.00    -0.482 OA
BRANCH  24  25
ATOM     25  C   UNL     1       1.847  -8.152  -1.205  0.00  0.00    +0.279 C 
BRANCH  25  32
ATOM     26  C   UNL     1       0.330  -2.165  -1.730  0.00  0.00    +0.096 C 
ATOM     27  N   UNL     1      -0.048  -2.926  -0.749  0.00  0.00    -0.172 NA
ATOM     28  N   UNL     1       0.111  -4.298  -0.768  0.00  0.00    -0.158 N 
ATOM     29  C   UNL     1       0.289  -4.848  -2.150  0.00  0.00    +0.250 C 
ATOM     30  S   UNL     1       0.923  -3.322  -2.958  0.00  0.00    -0.065 S 
ATOM     31  N   UNL     1       1.354  -5.856  -2.054  0.00  0.00    -0.316 N 
ATOM     32  C   UNL     1       1.268  -6.772  -1.031  0.00  0.00    +0.049 C 
ATOM     33  C   UNL     1       0.663  -6.434   0.126  0.00  0.00    +0.091 C 
ATOM     34  C   UNL     1       0.139  -5.134   0.302  0.00  0.00    +0.263 C 
ATOM     35  O   UNL     1      -0.307  -4.786   1.381  0.00  0.00    -0.269 OA
ATOM     36  H   UNL     1       2.088  -5.875  -2.687  0.00  0.00    +0.148 HD
BRANCH  26  37
ATOM     37  C   UNL     1       0.275  -0.661  -1.817  0.00  0.00    +0.064 C 
BRANCH  37  39
ATOM     38  C   UNL     1      -0.368   1.429  -0.609  0.00  0.00    +0.004 C 
ATOM     39  C   UNL     1      -0.312  -0.097  -0.521  0.00  0.00    +0.003 C 
ENDBRANCH  37  39
ENDBRANCH  26  37
ENDBRANCH  25  32
ENDBRANCH  24  25
ENDBRANCH   1  24
TORSDOF 9
