REMARK  Name = ZINC12769842
REMARK  10 active torsions:
REMARK  status: ('A' for Active; 'I' for Inactive)
REMARK    1  A    between atoms: C_1  and  C_2
REMARK    2  A    between atoms: C_2  and  O_3
REMARK    3  A    between atoms: O_3  and  C_4
REMARK    4  A    between atoms: C_9  and  C_10
REMARK    5  A    between atoms: C_10  and  N_56
REMARK    6  A    between atoms: C_11  and  C_13
REMARK    7  A    between atoms: C_11  and  C_14
REMARK    8  A    between atoms: C_11  and  N_56
REMARK    9  A    between atoms: C_20  and  C_25
REMARK   10  A    between atoms: C_31  and  C_34
REMARK                            x       y       z     vdW  Elec       q    Type
REMARK                         _______ _______ _______ _____ _____    ______ ____
ROOT
ATOM      1  C   UNL     1       0.002  -0.004   0.002  0.00  0.00    -0.007 C 
ATOM      2  C   UNL     1       0.121  -0.505  -1.439  0.00  0.00    -0.006 C 
ENDROOT
BRANCH   1   3
ATOM      3  C   UNL     1      -1.273  -0.527   0.612  0.00  0.00    +0.097 A 
ATOM      4  N   UNL     1      -1.515  -1.863   0.609  0.00  0.00    -0.312 N 
ATOM      5  H   UNL     1      -0.864  -2.463   0.213  0.00  0.00    +0.170 HD
ATOM      6  C   UNL     1      -2.639  -2.371   1.147  0.00  0.00    +0.260 A 
ATOM      7  O   UNL     1      -2.840  -3.574   1.140  0.00  0.00    -0.267 OA
ATOM      8  C   UNL     1      -3.598  -1.478   1.723  0.00  0.00    +0.080 A 
ATOM      9  C   UNL     1      -4.877  -1.780   2.355  0.00  0.00    +0.010 A 
ATOM     10  C   UNL     1      -5.625  -0.755   2.835  0.00  0.00    +0.057 A 
ATOM     11  S   UNL     1      -4.641   0.684   2.460  0.00  0.00    -0.076 S 
ATOM     12  C   UNL     1      -3.264  -0.115   1.676  0.00  0.00    +0.116 A 
ATOM     13  N   UNL     1      -2.128   0.313   1.130  0.00  0.00    -0.228 NA
BRANCH   9  14
ATOM     14  C   UNL     1      -5.349  -3.176   2.471  0.00  0.00    +0.021 A 
ATOM     15  C   UNL     1      -5.815  -3.840   3.575  0.00  0.00    +0.016 A 
ATOM     16  C   UNL     1      -6.208  -5.155   3.439  0.00  0.00    +0.008 A 
ATOM     17  C   UNL     1      -6.111  -5.752   2.224  0.00  0.00    +0.046 A 
ATOM     18  S   UNL     1      -5.454  -4.437   1.212  0.00  0.00    -0.097 S 
ENDBRANCH   9  14
ENDBRANCH   1   3
BRANCH   1  19
ATOM     19  N   UNL     1      -0.027   1.471   0.010  0.00  0.00    +0.388 N 
ATOM     20  H   UNL     1      -0.528   1.804  -0.822  0.00  0.00    -0.084 HD
ATOM     21  H   UNL     1      -0.512   1.795   0.855  0.00  0.00    -0.084 HD
BRANCH  19  22
ATOM     22  C   UNL     1       1.346   2.010   0.000  0.00  0.00    -0.042 C 
BRANCH  22  28
ATOM     23  C   UNL     1       1.060   4.191   1.199  0.00  0.00    +0.122 A 
ATOM     24  C   UNL     1       1.002   5.577   1.202  0.00  0.00    +0.053 A 
ATOM     25  C   UNL     1       1.169   6.274   0.026  0.00  0.00    +0.001 A 
ATOM     26  C   UNL     1       1.401   5.608  -1.170  0.00  0.00    +0.125 A 
ATOM     27  C   UNL     1       1.460   4.217  -1.167  0.00  0.00    +0.051 A 
ATOM     28  C   UNL     1       1.286   3.516   0.009  0.00  0.00    -0.019 A 
ATOM     29  O   UNL     1       1.551   6.484  -2.202  0.00  0.00    -0.488 OA
ATOM     30  C   UNL     1       0.995   7.756  -1.828  0.00  0.00    +0.175 C 
ATOM     31  C   UNL     1       1.148   7.758  -0.289  0.00  0.00    +0.083 C 
ATOM     32  C   UNL     1      -0.480   7.841  -2.226  0.00  0.00    +0.052 C 
BRANCH  23  33
ATOM     33  O   UNL     1       0.898   3.498   2.358  0.00  0.00    -0.492 OA
BRANCH  33  35
ATOM     34  C   UNL     1       0.513   3.316   4.737  0.00  0.00    +0.048 C 
ATOM     35  C   UNL     1       0.670   4.261   3.544  0.00  0.00    +0.225 C 
ENDBRANCH  33  35
ENDBRANCH  23  33
ENDBRANCH  22  28
ENDBRANCH  19  22
ENDBRANCH   1  19
TORSDOF 7
