REMARK  Name = ZINC04954032
REMARK  3 active torsions:
REMARK  status: ('A' for Active; 'I' for Inactive)
REMARK    1  A    between atoms: C_10  and  N_11
REMARK    2  A    between atoms: C_20  and  C_26
REMARK    3  A    between atoms: C_26  and  O_27
REMARK                            x       y       z     vdW  Elec       q    Type
REMARK                         _______ _______ _______ _____ _____    ______ ____
ROOT
ATOM      1  N   UNL     1      -2.148   0.590   0.180  0.00  0.00    -0.209 N 
ATOM      2  C   UNL     1      -1.588   0.293   1.400  0.00  0.00    +0.233 C 
ATOM      3  O   UNL     1      -1.945  -0.549   2.195  0.00  0.00    -0.274 OA
ATOM      4  C   UNL     1      -0.428   1.253   1.527  0.00  0.00    +0.123 C 
ATOM      5  C   UNL     1       0.920   0.792   2.091  0.00  0.00    +0.155 C 
ATOM      6  C   UNL     1       1.470  -0.466   1.463  0.00  0.00    +0.004 C 
ATOM      7  C   UNL     1       1.889  -0.201   0.233  0.00  0.00    +0.009 C 
ATOM      8  C   UNL     1       1.462   1.280  -0.005  0.00  0.00    +0.123 C 
ATOM      9  C   UNL     1      -0.013   1.086   0.008  0.00  0.00    +0.128 C 
ATOM     10  C   UNL     1      -1.268   1.236  -0.657  0.00  0.00    +0.233 C 
ATOM     11  O   UNL     1      -1.505   1.792  -1.707  0.00  0.00    -0.274 OA
ATOM     12  O   UNL     1       1.765   1.778   1.362  0.00  0.00    -0.358 OA
ENDROOT
BRANCH   1  22
ATOM     13  C   UNL     1      -4.401  -3.378  -1.980  0.00  0.00    +0.001 A 
ATOM     14  C   UNL     1      -3.082  -3.084  -1.641  0.00  0.00    +0.001 A 
ATOM     15  C   UNL     1      -2.758  -1.901  -1.052  0.00  0.00    +0.010 A 
ATOM     16  C   UNL     1      -3.765  -0.961  -0.779  0.00  0.00    +0.004 A 
ATOM     17  C   UNL     1      -5.106  -1.259  -1.123  0.00  0.00    -0.016 A 
ATOM     18  C   UNL     1      -5.403  -2.491  -1.731  0.00  0.00    +0.008 A 
ATOM     19  C   UNL     1      -6.115  -0.320  -0.851  0.00  0.00    +0.008 A 
ATOM     20  C   UNL     1      -5.798   0.866  -0.262  0.00  0.00    +0.002 A 
ATOM     21  C   UNL     1      -4.485   1.167   0.087  0.00  0.00    +0.024 A 
ATOM     22  C   UNL     1      -3.466   0.275  -0.169  0.00  0.00    +0.052 A 
ENDBRANCH   1  22
BRANCH   8  23
ATOM     23  C   UNL     1       2.066   2.021  -1.200  0.00  0.00    +0.195 C 
BRANCH  23  24
ATOM     24  O   UNL     1       3.491   2.010  -1.097  0.00  0.00    -0.392 OA
ATOM     25  H   UNL     1       3.942   2.463  -1.822  0.00  0.00    +0.210 HD
ENDBRANCH  23  24
ENDBRANCH   8  23
TORSDOF 3
