REMARK  Name = ZINC16569708
REMARK  7 active torsions:
REMARK  status: ('A' for Active; 'I' for Inactive)
REMARK    1  A    between atoms: C_1  and  C_2
REMARK    2  A    between atoms: C_2  and  C_3
REMARK    3  A    between atoms: C_8  and  N_9
REMARK    4  A    between atoms: N_12  and  C_13
REMARK    5  A    between atoms: N_12  and  C_35
REMARK    6  A    between atoms: C_13  and  C_14
REMARK    7  A    between atoms: C_28  and  C_30
REMARK                            x       y       z     vdW  Elec       q    Type
REMARK                         _______ _______ _______ _____ _____    ______ ____
ROOT
ATOM      1  C   UNL     1       0.857  -3.795  -2.231  0.00  0.00    +0.238 C 
ATOM      2  O   UNL     1       1.911  -4.213  -2.663  0.00  0.00    -0.273 OA
ATOM      3  N   UNL     1       0.779  -2.541  -1.744  0.00  0.00    -0.252 N 
ATOM      4  C   UNL     1       1.934  -1.752  -1.654  0.00  0.00    +0.061 A 
ATOM      5  C   UNL     1       2.985  -1.940  -2.538  0.00  0.00    +0.025 A 
ATOM      6  C   UNL     1       4.122  -1.161  -2.432  0.00  0.00    +0.002 A 
ATOM      7  C   UNL     1       4.220  -0.194  -1.449  0.00  0.00    +0.002 A 
ATOM      8  C   UNL     1       3.175   0.005  -0.564  0.00  0.00    +0.028 A 
ATOM      9  C   UNL     1       2.034  -0.766  -0.666  0.00  0.00    +0.068 A 
ATOM     10  N   UNL     1       0.944  -0.595   0.200  0.00  0.00    -0.316 N 
ATOM     11  C   UNL     1       0.853   0.091   1.364  0.00  0.00    +0.092 A 
ATOM     12  C   UNL     1      -0.406  -0.047   1.837  0.00  0.00    +0.020 A 
ATOM     13  C   UNL     1      -1.119  -0.851   0.920  0.00  0.00    +0.025 A 
ATOM     14  C   UNL     1      -0.278  -1.171  -0.069  0.00  0.00    +0.052 A 
ATOM     15  C   UNL     1      -0.519  -2.002  -1.305  0.00  0.00    +0.194 C 
ENDROOT
BRANCH  15  16
ATOM     16  C   UNL     1      -1.109  -1.142  -2.393  0.00  0.00    +0.131 A 
ATOM     17  C   UNL     1      -2.411  -1.077  -2.726  0.00  0.00    +0.047 A 
ATOM     18  C   UNL     1      -2.515  -0.152  -3.790  0.00  0.00    +0.041 A 
ATOM     19  C   UNL     1      -1.272   0.293  -4.044  0.00  0.00    +0.195 A 
ATOM     20  O   UNL     1      -0.425  -0.306  -3.191  0.00  0.00    -0.466 OA
ENDBRANCH  15  16
BRANCH   1  21
ATOM     21  C   UNL     1      -0.364  -4.678  -2.240  0.00  0.00    +0.205 C 
BRANCH  21  25
ATOM     22  N   UNL     1       0.323  -6.713  -0.506  0.00  0.00    -0.269 N 
ATOM     23  C   UNL     1       0.400  -6.955  -1.830  0.00  0.00    +0.307 C 
ATOM     24  O   UNL     1       0.826  -8.021  -2.229  0.00  0.00    -0.252 OA
ATOM     25  N   UNL     1       0.004  -6.015  -2.711  0.00  0.00    -0.274 N 
ATOM     26  H   UNL     1      -0.101  -5.902  -0.186  0.00  0.00    +0.156 HD
BRANCH  22  32
ATOM     27  C   UNL     1       0.384  -7.670   1.710  0.00  0.00    -0.026 A 
ATOM     28  C   UNL     1       0.912  -8.579   2.607  0.00  0.00    +0.005 A 
ATOM     29  C   UNL     1       1.910  -9.448   2.207  0.00  0.00    +0.000 A 
ATOM     30  C   UNL     1       2.382  -9.411   0.907  0.00  0.00    +0.002 A 
ATOM     31  C   UNL     1       1.855  -8.509   0.004  0.00  0.00    +0.023 A 
ATOM     32  C   UNL     1       0.856  -7.631   0.405  0.00  0.00    +0.038 A 
BRANCH  27  34
ATOM     33  C   UNL     1      -2.069  -7.314   1.791  0.00  0.00    +0.009 C 
ATOM     34  C   UNL     1      -0.703  -6.723   2.147  0.00  0.00    +0.033 C 
ENDBRANCH  27  34
ENDBRANCH  22  32
BRANCH  25  35
ATOM     35  C   UNL     1      -0.059  -6.331  -4.140  0.00  0.00    +0.078 C 
ATOM     36  C   UNL     1      -0.033  -7.808  -4.539  0.00  0.00    +0.024 C 
ATOM     37  C   UNL     1       1.193  -6.926  -4.788  0.00  0.00    +0.024 C 
ENDBRANCH  25  35
ENDBRANCH  21  25
ENDBRANCH   1  21
TORSDOF 6
