REMARK  Name = ZINC44714146
REMARK  9 active torsions:
REMARK  status: ('A' for Active; 'I' for Inactive)
REMARK    1  A    between atoms: C_1  and  C_2
REMARK    2  A    between atoms: C_3  and  C_9
REMARK    3  A    between atoms: C_4  and  C_8
REMARK    4  A    between atoms: C_9  and  C_11
REMARK    5  A    between atoms: C_9  and  N_12
REMARK    6  A    between atoms: C_13  and  C_15
REMARK    7  A    between atoms: C_26  and  C_28
REMARK    8  A    between atoms: C_31  and  O_34
REMARK    9  A    between atoms: O_34  and  C_35
REMARK                            x       y       z     vdW  Elec       q    Type
REMARK                         _______ _______ _______ _____ _____    ______ ____
ROOT
ATOM      1  C   UNL     1      -1.783  -1.857  -5.334  0.00  0.00    +0.100 C 
ATOM      2  C   UNL     1      -1.474  -3.283  -5.841  0.00  0.00    +0.121 C 
ATOM      3  N   UNL     1      -2.268  -3.418  -7.085  0.00  0.00    -0.296 N 
ATOM      4  C   UNL     1      -2.151  -2.095  -7.743  0.00  0.00    +0.115 C 
ATOM      5  C   UNL     1      -2.226  -1.080  -6.585  0.00  0.00    -0.004 C 
ATOM      6  C   UNL     1      -1.279   0.088  -6.846  0.00  0.00    -0.010 C 
ATOM      7  C   UNL     1      -1.773   0.879  -8.060  0.00  0.00    -0.082 C 
ATOM      8  N   UNL     1      -3.131   1.373  -7.805  0.00  0.00    +0.379 N 
ATOM      9  C   UNL     1      -4.054   0.242  -7.648  0.00  0.00    -0.082 C 
ATOM     10  C   UNL     1      -3.656  -0.577  -6.416  0.00  0.00    -0.010 C 
ATOM     11  C   UNL     1      -2.944  -4.500  -7.520  0.00  0.00    +0.248 C 
ATOM     12  O   UNL     1      -3.030  -5.487  -6.815  0.00  0.00    -0.270 OA
ATOM     13  H   UNL     1      -3.134   1.926  -6.961  0.00  0.00    -0.086 HD
ATOM     14  H   UNL     1      -3.431   1.945  -8.580  0.00  0.00    -0.086 HD
ENDROOT
BRANCH  11  15
ATOM     15  C   UNL     1      -3.580  -4.487  -8.852  0.00  0.00    +0.055 A 
ATOM     16  C   UNL     1      -3.153  -3.582  -9.836  0.00  0.00    +0.020 A 
ATOM     17  C   UNL     1      -3.778  -3.608 -11.065  0.00  0.00    +0.068 A 
ATOM     18  C   UNL     1      -4.803  -4.522 -11.288  0.00  0.00    +0.220 A 
ATOM     19  N   UNL     1      -5.184  -5.363 -10.338  0.00  0.00    -0.220 NA
ATOM     20  C   UNL     1      -4.611  -5.377  -9.153  0.00  0.00    +0.127 A 
BRANCH  18  21
ATOM     21  O   UNL     1      -5.421  -4.553 -12.494  0.00  0.00    -0.438 OA
BRANCH  21  22
ATOM     22  C   UNL     1      -6.467  -5.405 -12.653  0.00  0.00    +0.130 A 
ATOM     23  C   UNL     1      -7.717  -5.074 -12.150  0.00  0.00    +0.046 A 
ATOM     24  C   UNL     1      -8.779  -5.942 -12.313  0.00  0.00    +0.004 A 
ATOM     25  C   UNL     1      -8.597  -7.140 -12.979  0.00  0.00    +0.000 A 
ATOM     26  C   UNL     1      -7.353  -7.473 -13.482  0.00  0.00    +0.004 A 
ATOM     27  C   UNL     1      -6.289  -6.606 -13.326  0.00  0.00    +0.046 A 
ENDBRANCH  21  22
ENDBRANCH  18  21
ENDBRANCH  11  15
BRANCH   1  29
ATOM     28  N   UNL     1      -0.662  -0.306  -3.767  0.00  0.00    -0.308 N 
ATOM     29  C   UNL     1      -0.547  -1.232  -4.739  0.00  0.00    +0.219 C 
ATOM     30  O   UNL     1       0.550  -1.563  -5.135  0.00  0.00    -0.275 OA
ATOM     31  H   UNL     1      -1.540  -0.041  -3.450  0.00  0.00    +0.149 HD
BRANCH  28  32
ATOM     32  C   UNL     1       0.539   0.301  -3.188  0.00  0.00    +0.104 C 
ATOM     33  C   UNL     1       1.080  -0.598  -2.075  0.00  0.00    +0.033 C 
BRANCH  32  36
ATOM     34  C   UNL     1      -1.881   0.947  -1.314  0.00  0.00    +0.065 C 
ATOM     35  C   UNL     1      -0.853   1.932  -1.808  0.00  0.00    +0.038 A 
ATOM     36  C   UNL     1       0.194   1.653  -2.618  0.00  0.00    +0.015 A 
ATOM     37  C   UNL     1       0.900   2.842  -2.834  0.00  0.00    +0.065 A 
ATOM     38  N   UNL     1       0.298   3.799  -2.176  0.00  0.00    -0.179 NA
ATOM     39  N   UNL     1      -0.814   3.251  -1.524  0.00  0.00    -0.281 N 
ATOM     40  H   UNL     1      -1.444   3.733  -0.966  0.00  0.00    +0.189 HD
ATOM     41  C   UNL     1       2.139   2.993  -3.677  0.00  0.00    +0.068 C 
ENDBRANCH  32  36
ENDBRANCH  28  32
ENDBRANCH   1  29
TORSDOF 6
