REMARK  Name = ZINC09437142
REMARK  10 active torsions:
REMARK  status: ('A' for Active; 'I' for Inactive)
REMARK    1  A    between atoms: C_4  and  C_7
REMARK    2  A    between atoms: C_7  and  C_8
REMARK    3  A    between atoms: C_7  and  N_64
REMARK    4  A    between atoms: N_16  and  C_19
REMARK    5  A    between atoms: C_19  and  S_21
REMARK    6  A    between atoms: S_21  and  C_22
REMARK    7  A    between atoms: C_22  and  C_23
REMARK    8  A    between atoms: C_23  and  C_24
REMARK    9  A    between atoms: C_24  and  C_25
REMARK   10  A    between atoms: C_24  and  C_27
REMARK                            x       y       z     vdW  Elec       q    Type
REMARK                         _______ _______ _______ _____ _____    ______ ____
ROOT
ATOM      1  C   UNL     1       0.772   2.154   0.832  0.00  0.00    -0.058 C 
ATOM      2  C   UNL     1       1.824   1.555   1.772  0.00  0.00    +0.087 C 
ATOM      3  N   UNL     1       1.817   0.093   1.611  0.00  0.00    -0.323 N 
ATOM      4  C   UNL     1       0.529  -0.611   1.708  0.00  0.00    +0.087 C 
ATOM      5  C   UNL     1      -0.471   0.073   0.770  0.00  0.00    -0.058 C 
ATOM      6  N   UNL     1      -0.531   1.512   1.108  0.00  0.00    +0.389 N 
ATOM      7  H   UNL     1      -0.747   1.610   2.107  0.00  0.00    -0.080 HD
ENDROOT
BRANCH   3   8
ATOM      8  C   UNL     1       2.960  -0.583   1.381  0.00  0.00    +0.109 C 
ATOM      9  S   UNL     1       2.926  -2.284   1.197  0.00  0.00    -0.028 S 
BRANCH   8  10
ATOM     10  S   UNL     1       4.489   0.285   1.269  0.00  0.00    -0.095 S 
BRANCH  10  11
ATOM     11  C   UNL     1       5.615  -1.099   0.963  0.00  0.00    +0.152 C 
BRANCH  11  12
ATOM     12  C   UNL     1       7.024  -0.582   0.830  0.00  0.00    +0.168 C 
ATOM     13  O   UNL     1       7.405   0.048  -0.298  0.00  0.00    -0.295 OA
BRANCH  12  14
ATOM     14  C   UNL     1       7.909  -0.750   1.847  0.00  0.00    +0.223 C 
BRANCH  14  15
ATOM     15  C   UNL     1       7.515  -1.507   3.050  0.00  0.00    +0.133 A 
ATOM     16  N   UNL     1       8.121  -2.652   3.494  0.00  0.00    -0.340 N 
ATOM     17  H   UNL     1       8.897  -3.117   3.067  0.00  0.00    +0.167 HD
ATOM     18  C   UNL     1       7.461  -3.045   4.644  0.00  0.00    +0.066 A 
ATOM     19  C   UNL     1       7.615  -4.105   5.526  0.00  0.00    +0.028 A 
ATOM     20  C   UNL     1       6.767  -4.226   6.608  0.00  0.00    +0.002 A 
ATOM     21  C   UNL     1       5.761  -3.295   6.821  0.00  0.00    +0.002 A 
ATOM     22  C   UNL     1       5.593  -2.237   5.957  0.00  0.00    +0.030 A 
ATOM     23  C   UNL     1       6.443  -2.099   4.855  0.00  0.00    +0.089 A 
ATOM     24  N   UNL     1       6.527  -1.189   3.853  0.00  0.00    -0.231 NA
ENDBRANCH  14  15
BRANCH  14  25
ATOM     25  C   UNL     1       9.224  -0.191   1.752  0.00  0.00    +0.081 C 
ATOM     26  N   UNL     1      10.267   0.252   1.675  0.00  0.00    -0.195 NA
ENDBRANCH  14  25
ENDBRANCH  12  14
ENDBRANCH  11  12
ENDBRANCH  10  11
ENDBRANCH   8  10
ENDBRANCH   3   8
BRANCH   6  27
ATOM     27  C   UNL     1      -1.594   2.170   0.321  0.00  0.00    -0.007 C 
BRANCH  27  31
ATOM     28  C   UNL     1      -5.328   0.284   1.186  0.00  0.00    +0.000 A 
ATOM     29  C   UNL     1      -5.001   0.602  -0.119  0.00  0.00    +0.000 A 
ATOM     30  C   UNL     1      -3.792   1.213  -0.399  0.00  0.00    +0.002 A 
ATOM     31  C   UNL     1      -2.912   1.505   0.626  0.00  0.00    -0.057 A 
ATOM     32  C   UNL     1      -3.237   1.181   1.930  0.00  0.00    +0.002 A 
ATOM     33  C   UNL     1      -4.447   0.575   2.211  0.00  0.00    +0.000 A 
ENDBRANCH  27  31
BRANCH  27  34
ATOM     34  C   UNL     1      -1.663   3.623   0.713  0.00  0.00    -0.057 A 
ATOM     35  C   UNL     1      -1.611   3.982   2.047  0.00  0.00    +0.002 A 
ATOM     36  C   UNL     1      -1.668   5.316   2.407  0.00  0.00    +0.000 A 
ATOM     37  C   UNL     1      -1.789   6.290   1.434  0.00  0.00    +0.000 A 
ATOM     38  C   UNL     1      -1.847   5.931   0.100  0.00  0.00    +0.000 A 
ATOM     39  C   UNL     1      -1.784   4.598  -0.260  0.00  0.00    +0.002 A 
ENDBRANCH  27  34
ENDBRANCH   6  27
TORSDOF 10
