REMARK  Name = ZINC13623362
REMARK  7 active torsions:
REMARK  status: ('A' for Active; 'I' for Inactive)
REMARK    1  A    between atoms: C_4  and  C_7
REMARK    2  A    between atoms: C_7  and  N_8
REMARK    3  A    between atoms: C_10  and  C_15
REMARK    4  A    between atoms: N_17  and  N_18
REMARK    5  A    between atoms: N_18  and  C_19
REMARK    6  A    between atoms: C_19  and  N_21
REMARK    7  A    between atoms: C_22  and  C_24
REMARK                            x       y       z     vdW  Elec       q    Type
REMARK                         _______ _______ _______ _____ _____    ______ ____
ROOT
ATOM      1  C   UNL     1      -1.130  -0.554  -0.827  0.00  0.00    +0.234 C 
ATOM      2  O   UNL     1      -1.903   0.202  -1.375  0.00  0.00    -0.274 OA
ATOM      3  N   UNL     1      -1.283  -1.887  -0.958  0.00  0.00    -0.235 N 
ATOM      4  H   UNL     1      -0.665  -2.492  -0.519  0.00  0.00    +0.173 HD
ENDROOT
BRANCH   1   7
ATOM      5  N   UNL     1       1.390   1.951  -0.001  0.00  0.00    -0.296 N 
ATOM      6  C   UNL     1      -0.019   1.541   0.011  0.00  0.00    +0.121 C 
ATOM      7  C   UNL     1       0.002  -0.004   0.002  0.00  0.00    +0.102 C 
ATOM      8  C   UNL     1       1.367  -0.297  -0.662  0.00  0.00    +0.110 C 
ATOM      9  C   UNL     1       2.190   0.940  -0.380  0.00  0.00    +0.217 C 
ATOM     10  O   UNL     1       3.397   1.010  -0.482  0.00  0.00    -0.276 OA
BRANCH   5  11
ATOM     11  C   UNL     1       1.863   3.291   0.356  0.00  0.00    +0.142 C 
BRANCH  11  15
ATOM     12  C   UNL     1       2.691   3.440   4.545  0.00  0.00    +0.000 A 
ATOM     13  C   UNL     1       3.684   3.073   3.656  0.00  0.00    +0.000 A 
ATOM     14  C   UNL     1       3.417   3.025   2.301  0.00  0.00    +0.005 A 
ATOM     15  C   UNL     1       2.155   3.343   1.834  0.00  0.00    -0.030 A 
ATOM     16  C   UNL     1       1.163   3.715   2.722  0.00  0.00    +0.005 A 
ATOM     17  C   UNL     1       1.429   3.759   4.077  0.00  0.00    +0.000 A 
ENDBRANCH  11  15
ENDBRANCH   5  11
ENDBRANCH   1   7
BRANCH   3  18
ATOM     18  N   UNL     1      -2.336  -2.398  -1.728  0.00  0.00    -0.246 N 
ATOM     19  H   UNL     1      -2.954  -1.793  -2.167  0.00  0.00    +0.172 HD
BRANCH  18  20
ATOM     20  C   UNL     1      -2.489  -3.731  -1.860  0.00  0.00    +0.153 C 
ATOM     21  S   UNL     1      -3.775  -4.356  -2.801  0.00  0.00    -0.017 S 
BRANCH  20  22
ATOM     22  N   UNL     1      -1.630  -4.571  -1.250  0.00  0.00    -0.263 N 
ATOM     23  C   UNL     1      -1.783  -5.904  -1.381  0.00  0.00    +0.250 C 
ATOM     24  O   UNL     1      -2.696  -6.348  -2.050  0.00  0.00    -0.270 OA
ATOM     25  H   UNL     1      -0.901  -4.217  -0.717  0.00  0.00    +0.157 HD
BRANCH  23  26
ATOM     26  C   UNL     1      -0.841  -6.825  -0.714  0.00  0.00    +0.037 A 
ATOM     27  C   UNL     1       0.212  -6.318   0.050  0.00  0.00    +0.014 A 
ATOM     28  C   UNL     1       1.085  -7.183   0.675  0.00  0.00    +0.021 A 
ATOM     29  C   UNL     1       0.925  -8.552   0.538  0.00  0.00    +0.041 A 
ATOM     30  C   UNL     1      -0.115  -9.061  -0.222  0.00  0.00    +0.021 A 
ATOM     31  C   UNL     1      -0.998  -8.206  -0.848  0.00  0.00    +0.014 A 
ATOM     32 CL   UNL     1       2.032  -9.635   1.324  0.00  0.00    -0.084 Cl
ENDBRANCH  23  26
ENDBRANCH  20  22
ENDBRANCH  18  20
ENDBRANCH   3  18
TORSDOF 7
