REMARK  Name = ZINC13979128
REMARK  10 active torsions:
REMARK  status: ('A' for Active; 'I' for Inactive)
REMARK    1  A    between atoms: C_1  and  C_2
REMARK    2  A    between atoms: C_2  and  C_3
REMARK    3  A    between atoms: C_6  and  O_10
REMARK    4  A    between atoms: O_10  and  C_11
REMARK    5  A    between atoms: C_11  and  C_12
REMARK    6  A    between atoms: N_14  and  N_15
REMARK    7  A    between atoms: N_15  and  C_16
REMARK    8  A    between atoms: C_16  and  N_18
REMARK    9  A    between atoms: C_19  and  C_21
REMARK   10  A    between atoms: C_25  and  N_27
REMARK                            x       y       z     vdW  Elec       q    Type
REMARK                         _______ _______ _______ _____ _____    ______ ____
ROOT
ATOM      1  N   UNL     1       2.966  -3.238  -9.181  0.00  0.00    -0.245 N 
ATOM      2  H   UNL     1       3.919  -3.353  -9.044  0.00  0.00    +0.172 HD
ENDROOT
BRANCH   1   5
ATOM      3  C   UNL     1       2.703  -2.520  -6.926  0.00  0.00    +0.267 C 
ATOM      4  O   UNL     1       3.895  -2.664  -6.755  0.00  0.00    -0.271 OA
ATOM      5  N   UNL     1       2.156  -2.790  -8.128  0.00  0.00    -0.232 N 
ATOM      6  H   UNL     1       1.203  -2.675  -8.265  0.00  0.00    +0.173 HD
BRANCH   3   7
ATOM      7  C   UNL     1       1.832  -2.038  -5.794  0.00  0.00    +0.326 C 
BRANCH   7   8
ATOM      8  O   UNL     1       2.637  -1.822  -4.633  0.00  0.00    -0.482 OA
BRANCH   8  12
ATOM      9  C   UNL     1       0.707  -0.490  -1.238  0.00  0.00    -0.046 A 
ATOM     10  C   UNL     1      -0.012  -0.718  -2.397  0.00  0.00    +0.007 A 
ATOM     11  C   UNL     1       0.632  -1.164  -3.535  0.00  0.00    +0.047 A 
ATOM     12  C   UNL     1       2.002  -1.383  -3.515  0.00  0.00    +0.135 A 
ATOM     13  C   UNL     1       2.722  -1.153  -2.351  0.00  0.00    +0.060 A 
ATOM     14  C   UNL     1       2.073  -0.702  -1.216  0.00  0.00    +0.022 A 
ATOM     15 BR   UNL     1       4.589  -1.450  -2.319  0.00  0.00    -0.047 Br
BRANCH   9  17
ATOM     16  C   UNL     1      -0.019   1.526   0.010  0.00  0.00    +0.009 C 
ATOM     17  C   UNL     1       0.002  -0.004   0.002  0.00  0.00    +0.032 C 
ENDBRANCH   9  17
ENDBRANCH   8  12
ENDBRANCH   7   8
ENDBRANCH   3   7
ENDBRANCH   1   5
BRANCH   1  18
ATOM     18  C   UNL     1       2.419  -3.508 -10.383  0.00  0.00    +0.153 C 
ATOM     19  S   UNL     1       3.408  -4.056 -11.668  0.00  0.00    -0.017 S 
BRANCH  18  20
ATOM     20  N   UNL     1       1.095  -3.348 -10.572  0.00  0.00    -0.263 N 
ATOM     21  C   UNL     1       0.548  -3.618 -11.774  0.00  0.00    +0.250 C 
ATOM     22  O   UNL     1       1.250  -4.007 -12.687  0.00  0.00    -0.270 OA
ATOM     23  H   UNL     1       0.534  -3.038  -9.844  0.00  0.00    +0.157 HD
BRANCH  21  24
ATOM     24  C   UNL     1      -0.904  -3.442 -11.982  0.00  0.00    +0.039 A 
ATOM     25  C   UNL     1      -1.712  -2.991 -10.937  0.00  0.00    +0.013 A 
ATOM     26  C   UNL     1      -3.067  -2.829 -11.138  0.00  0.00    +0.003 A 
ATOM     27  C   UNL     1      -3.626  -3.113 -12.372  0.00  0.00    +0.033 A 
ATOM     28  C   UNL     1      -2.831  -3.562 -13.411  0.00  0.00    +0.127 A 
ATOM     29  C   UNL     1      -1.473  -3.722 -13.226  0.00  0.00    +0.045 A 
BRANCH  28  30
ATOM     30  N   UNL     1      -3.437  -3.864 -14.727  0.00  0.00    +0.056 N 
ATOM     31  O   UNL     1      -4.626  -3.719 -14.893  0.00  0.00    -0.126 OA
ATOM     32  O   UNL     1      -2.744  -4.256 -15.637  0.00  0.00    -0.126 OA
ENDBRANCH  28  30
ENDBRANCH  21  24
ENDBRANCH  18  20
ENDBRANCH   1  18
TORSDOF 9
