REMARK  Name = ZINC66384123
REMARK  7 active torsions:
REMARK  status: ('A' for Active; 'I' for Inactive)
REMARK    1  A    between atoms: C_6  and  C_7
REMARK    2  A    between atoms: C_7  and  C_8
REMARK    3  A    between atoms: C_8  and  C_9
REMARK    4  A    between atoms: C_9  and  N_10
REMARK    5  A    between atoms: N_13  and  C_14
REMARK    6  A    between atoms: C_14  and  C_15
REMARK    7  A    between atoms: C_15  and  C_16
REMARK                            x       y       z     vdW  Elec       q    Type
REMARK                         _______ _______ _______ _____ _____    ______ ____
ROOT
ATOM      1  N   UNL     1      -3.493  -2.053  -2.798  0.00  0.00    -0.299 N 
ATOM      2  C   UNL     1      -4.635  -2.729  -3.037  0.00  0.00    +0.300 C 
ATOM      3  O   UNL     1      -5.304  -3.138  -2.108  0.00  0.00    -0.253 OA
ATOM      4  N   UNL     1      -5.033  -2.952  -4.305  0.00  0.00    -0.299 N 
ATOM      5  H   UNL     1      -2.959  -1.726  -3.539  0.00  0.00    +0.150 HD
ATOM      6  H   UNL     1      -4.499  -2.626  -5.046  0.00  0.00    +0.150 HD
ENDROOT
BRANCH   1   7
ATOM      7  C   UNL     1      -3.060  -1.810  -1.420  0.00  0.00    +0.106 C 
BRANCH   7   8
ATOM      8  C   UNL     1      -1.745  -1.028  -1.429  0.00  0.00    +0.023 C 
BRANCH   8   9
ATOM      9  C   UNL     1      -1.293  -0.775   0.011  0.00  0.00    +0.037 C 
BRANCH   9  15
ATOM     10  C   UNL     1      -0.017   1.378   0.010  0.00  0.00    +0.005 A 
ATOM     11  C   UNL     1       1.171   2.086   0.002  0.00  0.00    +0.022 A 
ATOM     12  C   UNL     1       2.378   1.412  -0.013  0.00  0.00    +0.059 A 
ATOM     13  C   UNL     1       2.397   0.027  -0.021  0.00  0.00    +0.060 A 
ATOM     14  C   UNL     1       1.208  -0.680  -0.013  0.00  0.00    +0.025 A 
ATOM     15  C   UNL     1       0.002  -0.004   0.002  0.00  0.00    -0.046 A 
ATOM     16 CL   UNL     1       3.912  -0.821  -0.040  0.00  0.00    -0.082 Cl
ATOM     17 CL   UNL     1       3.869   2.301  -0.023  0.00  0.00    -0.082 Cl
ENDBRANCH   9  15
ENDBRANCH   8   9
ENDBRANCH   7   8
ENDBRANCH   1   7
BRANCH   4  18
ATOM     18  C   UNL     1      -6.273  -3.687  -4.564  0.00  0.00    +0.112 C 
BRANCH  18  19
ATOM     19  C   UNL     1      -6.493  -3.801  -6.074  0.00  0.00    +0.073 C 
BRANCH  19  20
ATOM     20  C   UNL     1      -7.769  -4.557  -6.341  0.00  0.00    +0.035 A 
ATOM     21  C   UNL     1      -7.898  -5.899  -6.393  0.00  0.00    +0.108 A 
ATOM     22  N   UNL     1      -9.211  -6.155  -6.656  0.00  0.00    -0.336 N 
ATOM     23  C   UNL     1      -9.844  -4.963  -6.760  0.00  0.00    +0.087 A 
ATOM     24  N   UNL     1      -8.976  -4.013  -6.564  0.00  0.00    -0.347 N 
ATOM     25  C   UNL     1     -11.318  -4.812  -7.051  0.00  0.00    +0.072 C 
ATOM     26  C   UNL     1     -11.840  -6.150  -7.587  0.00  0.00    +0.009 C 
ATOM     27  C   UNL     1     -11.372  -7.281  -6.666  0.00  0.00    +0.022 C 
ATOM     28  C   UNL     1      -9.857  -7.461  -6.807  0.00  0.00    +0.123 C 
ATOM     29  H   UNL     1      -9.170  -3.063  -6.578  0.00  0.00    +0.167 HD
ENDBRANCH  19  20
ENDBRANCH  18  19
ENDBRANCH   4  18
TORSDOF 7
