REMARK  Name = ZINC06346208
REMARK  6 active torsions:
REMARK  status: ('A' for Active; 'I' for Inactive)
REMARK    1  A    between atoms: C_1  and  C_2
REMARK    2  A    between atoms: C_2  and  C_4
REMARK    3  A    between atoms: C_2  and  O_11
REMARK    4  A    between atoms: N_9  and  C_10
REMARK    5  A    between atoms: O_11  and  C_12
REMARK    6  A    between atoms: C_15  and  C_19
REMARK                            x       y       z     vdW  Elec       q    Type
REMARK                         _______ _______ _______ _____ _____    ______ ____
ROOT
ATOM      1  C   UNL     1      -1.224   1.753   0.016  0.00  0.00    +0.140 A 
ATOM      2  C   UNL     1      -0.024   1.094  -0.213  0.00  0.00    +0.048 A 
ATOM      3  C   UNL     1       1.161   1.800  -0.222  0.00  0.00    +0.012 A 
ATOM      4  C   UNL     1       1.153   3.176   0.005  0.00  0.00    -0.016 A 
ATOM      5  C   UNL     1      -0.053   3.834   0.240  0.00  0.00    +0.032 A 
ATOM      6  C   UNL     1      -1.235   3.122   0.248  0.00  0.00    +0.083 A 
ATOM      7 CL   UNL     1      -2.738   3.941   0.541  0.00  0.00    -0.080 Cl
ENDROOT
BRANCH   4   8
ATOM      8  C   UNL     1       2.426   3.938  -0.005  0.00  0.00    -0.018 A 
ATOM      9  C   UNL     1       3.633   3.280  -0.235  0.00  0.00    +0.008 A 
ATOM     10  C   UNL     1       4.814   3.994  -0.247  0.00  0.00    +0.001 A 
ATOM     11  C   UNL     1       4.801   5.359  -0.022  0.00  0.00    +0.000 A 
ATOM     12  C   UNL     1       3.607   6.016   0.212  0.00  0.00    +0.001 A 
ATOM     13  C   UNL     1       2.420   5.313   0.222  0.00  0.00    +0.008 A 
ENDBRANCH   4   8
BRANCH   1  14
ATOM     14  O   UNL     1      -2.391   1.055   0.019  0.00  0.00    -0.478 OA
BRANCH  14  16
ATOM     15  C   UNL     1      -2.209  -0.748  -1.580  0.00  0.00    +0.062 C 
ATOM     16  C   UNL     1      -2.297  -0.366  -0.101  0.00  0.00    +0.256 C 
BRANCH  16  17
ATOM     17  C   UNL     1      -3.518  -1.003   0.511  0.00  0.00    +0.261 C 
ATOM     18  O   UNL     1      -4.424  -0.308   0.919  0.00  0.00    -0.271 OA
ATOM     19  N   UNL     1      -3.603  -2.345   0.605  0.00  0.00    -0.237 N 
ATOM     20  C   UNL     1      -4.694  -2.915   1.152  0.00  0.00    +0.306 C 
ATOM     21  O   UNL     1      -5.603  -2.219   1.561  0.00  0.00    -0.252 OA
ATOM     22  N   UNL     1      -4.779  -4.256   1.245  0.00  0.00    -0.302 N 
ATOM     23  C   UNL     1      -5.966  -4.876   1.840  0.00  0.00    +0.129 C 
ATOM     24  H   UNL     1      -2.878  -2.900   0.278  0.00  0.00    +0.159 HD
ATOM     25  H   UNL     1      -4.054  -4.812   0.919  0.00  0.00    +0.150 HD
ENDBRANCH  16  17
ENDBRANCH  14  16
ENDBRANCH   1  14
TORSDOF 4
