REMARK  Name = ZINC01428673
REMARK  1 active torsions:
REMARK  status: ('A' for Active; 'I' for Inactive)
REMARK    1  A    between atoms: C_2  and  N_21
REMARK                            x       y       z     vdW  Elec       q    Type
REMARK                         _______ _______ _______ _____ _____    ______ ____
ROOT
ATOM      1  C   UNL     1      -0.017   1.390   0.010  0.00  0.00    +0.059 A 
ATOM      2  C   UNL     1       1.206   2.042   0.002  0.00  0.00    +0.132 A 
ATOM      3  C   UNL     1       2.425   1.374  -0.017  0.00  0.00    +0.079 A 
ATOM      4  C   UNL     1       2.474  -0.004  -0.027  0.00  0.00    +0.140 A 
ATOM      5  C   UNL     1       1.243  -0.672  -0.008  0.00  0.00    +0.046 A 
ATOM      6  C   UNL     1       0.002  -0.004   0.002  0.00  0.00    +0.052 A 
ATOM      7  N   UNL     1      -0.959  -0.971  -0.008  0.00  0.00    -0.360 N 
ATOM      8  H   UNL     1      -1.915  -0.805  -0.010  0.00  0.00    +0.165 HD
ATOM      9  C   UNL     1      -0.373  -2.223  -0.015  0.00  0.00    +0.087 A 
ATOM     10  C   UNL     1       0.951  -2.102  -0.010  0.00  0.00    -0.014 A 
ATOM     11  C   UNL     1       2.051  -3.146   0.013  0.00  0.00    +0.076 C 
ATOM     12  C   UNL     1       2.987  -2.802  -1.135  0.00  0.00    +0.002 A 
ATOM     13  C   UNL     1       3.091  -3.652  -2.215  0.00  0.00    +0.027 A 
ATOM     14  C   UNL     1       3.951  -3.347  -3.255  0.00  0.00    +0.043 A 
ATOM     15  C   UNL     1       4.708  -2.189  -3.209  0.00  0.00    +0.043 A 
ATOM     16  C   UNL     1       4.603  -1.333  -2.131  0.00  0.00    +0.085 A 
ATOM     17  C   UNL     1       3.733  -1.627  -1.088  0.00  0.00    +0.150 A 
ATOM     18  O   UNL     1       3.612  -0.743  -0.054  0.00  0.00    -0.454 OA
ATOM     19 CL   UNL     1       5.558   0.116  -2.080  0.00  0.00    -0.080 Cl
ATOM     20 CL   UNL     1       4.081  -4.417  -4.617  0.00  0.00    -0.083 Cl
ENDROOT
BRANCH   2  21
ATOM     21  N   UNL     1       1.215   3.523   0.013  0.00  0.00    +0.057 N 
ATOM     22  O   UNL     1       0.172   4.133   0.029  0.00  0.00    -0.126 OA
ATOM     23  O   UNL     1       2.266   4.121   0.006  0.00  0.00    -0.126 OA
ENDBRANCH   2  21
TORSDOF 1
