REMARK  Name = ZINC19075174
REMARK  8 active torsions:
REMARK  status: ('A' for Active; 'I' for Inactive)
REMARK    1  A    between atoms: C_1  and  C_2
REMARK    2  A    between atoms: C_2  and  C_23
REMARK    3  A    between atoms: C_4  and  N_11
REMARK    4  A    between atoms: C_7  and  C_9
REMARK    5  A    between atoms: C_7  and  C_10
REMARK    6  A    between atoms: N_14  and  C_15
REMARK    7  A    between atoms: C_23  and  N_24
REMARK    8  A    between atoms: N_27  and  C_28
REMARK                            x       y       z     vdW  Elec       q    Type
REMARK                         _______ _______ _______ _____ _____    ______ ____
ROOT
ATOM      1  C   UNL     1      -0.047   1.386   0.867  0.00  0.00    +0.013 C 
ATOM      2  C   UNL     1       0.010  -0.085   0.446  0.00  0.00    -0.014 C 
ATOM      3  C   UNL     1       1.023  -0.266  -0.679  0.00  0.00    +0.030 C 
ATOM      4  C   UNL     1       2.450  -0.136  -0.149  0.00  0.00    +0.076 C 
ATOM      5  C   UNL     1       2.694  -1.234   0.884  0.00  0.00    +0.028 C 
ATOM      6  C   UNL     1       1.742  -1.087   2.065  0.00  0.00    -0.033 C 
ATOM      7  C   UNL     1       0.290  -0.984   1.635  0.00  0.00    +0.014 C 
ATOM      8  C   UNL     1       1.890  -2.348   2.945  0.00  0.00    +0.011 C 
ATOM      9  C   UNL     1       2.150   0.116   2.921  0.00  0.00    +0.011 C 
ENDROOT
BRANCH   4  10
ATOM     10  N   UNL     1       3.393  -0.306  -1.263  0.00  0.00    -0.296 N 
ATOM     11  C   UNL     1       4.623   0.240  -1.192  0.00  0.00    +0.304 C 
ATOM     12  O   UNL     1       4.952   0.873  -0.208  0.00  0.00    -0.253 OA
ATOM     13  N   UNL     1       5.489   0.085  -2.214  0.00  0.00    -0.269 N 
ATOM     14  H   UNL     1       3.130  -0.810  -2.048  0.00  0.00    +0.151 HD
ATOM     15  H   UNL     1       5.255  -0.482  -2.966  0.00  0.00    +0.156 HD
BRANCH  13  16
ATOM     16  C   UNL     1       6.726   0.741  -2.190  0.00  0.00    +0.038 A 
ATOM     17  C   UNL     1       7.839   0.147  -2.769  0.00  0.00    +0.026 A 
ATOM     18  C   UNL     1       9.059   0.795  -2.746  0.00  0.00    +0.043 A 
ATOM     19  C   UNL     1       9.172   2.037  -2.145  0.00  0.00    +0.159 A 
ATOM     20  C   UNL     1       8.062   2.633  -1.565  0.00  0.00    +0.160 A 
ATOM     21  C   UNL     1       6.839   1.988  -1.592  0.00  0.00    +0.064 A 
ATOM     22  F   UNL     1       8.175   3.845  -0.979  0.00  0.00    -0.202 F 
ATOM     23  F   UNL     1      10.366   2.669  -2.122  0.00  0.00    -0.202 F 
ENDBRANCH  13  16
ENDBRANCH   4  10
BRANCH   2  24
ATOM     24  C   UNL     1      -1.381  -0.456  -0.115  0.00  0.00    +0.112 C 
BRANCH  24  25
ATOM     25  N   UNL     1      -1.688   0.398  -1.265  0.00  0.00    -0.299 N 
ATOM     26  C   UNL     1      -2.857   0.253  -1.919  0.00  0.00    +0.304 C 
ATOM     27  O   UNL     1      -3.658  -0.587  -1.554  0.00  0.00    -0.253 OA
ATOM     28  N   UNL     1      -3.139   1.038  -2.978  0.00  0.00    -0.269 N 
ATOM     29  H   UNL     1      -1.049   1.067  -1.556  0.00  0.00    +0.150 HD
ATOM     30  H   UNL     1      -2.472   1.655  -3.315  0.00  0.00    +0.156 HD
BRANCH  28  31
ATOM     31  C   UNL     1      -4.397   0.963  -3.590  0.00  0.00    +0.038 A 
ATOM     32  C   UNL     1      -4.516   1.164  -4.959  0.00  0.00    +0.026 A 
ATOM     33  C   UNL     1      -5.757   1.089  -5.562  0.00  0.00    +0.043 A 
ATOM     34  C   UNL     1      -6.881   0.813  -4.804  0.00  0.00    +0.159 A 
ATOM     35  C   UNL     1      -6.765   0.612  -3.437  0.00  0.00    +0.160 A 
ATOM     36  C   UNL     1      -5.524   0.681  -2.830  0.00  0.00    +0.064 A 
ATOM     37  F   UNL     1      -7.864   0.344  -2.698  0.00  0.00    -0.202 F 
ATOM     38  F   UNL     1      -8.094   0.741  -5.396  0.00  0.00    -0.202 F 
ENDBRANCH  28  31
ENDBRANCH  24  25
ENDBRANCH   2  24
TORSDOF 5
