REMARK  Name = ZINC52003749
REMARK  4 active torsions:
REMARK  status: ('A' for Active; 'I' for Inactive)
REMARK    1  A    between atoms: C_2  and  S_9
REMARK    2  A    between atoms: S_9  and  N_12
REMARK    3  A    between atoms: N_12  and  C_13
REMARK    4  A    between atoms: C_19  and  O_21
REMARK                            x       y       z     vdW  Elec       q    Type
REMARK                         _______ _______ _______ _____ _____    ______ ____
ROOT
ATOM      1  S   UNL     1       1.146   3.849   0.011  0.00  0.00    +0.059 S 
ATOM      2  O   UNL     1       2.380   4.275  -0.549  0.00  0.00    -0.153 OA
ATOM      3  O   UNL     1      -0.110   4.240  -0.526  0.00  0.00    -0.153 OA
ENDROOT
BRANCH   1   5
ATOM      4  C   UNL     1      -0.017   1.379   0.010  0.00  0.00    +0.048 A 
ATOM      5  C   UNL     1       1.171   2.087   0.002  0.00  0.00    +0.108 A 
ATOM      6  C   UNL     1       2.377   1.413  -0.013  0.00  0.00    +0.048 A 
ATOM      7  C   UNL     1       2.397   0.030  -0.021  0.00  0.00    +0.044 A 
ATOM      8  C   UNL     1       1.209  -0.679  -0.013  0.00  0.00    +0.040 A 
ATOM      9  C   UNL     1       0.002  -0.004   0.002  0.00  0.00    +0.044 A 
ATOM     10 CL   UNL     1      -1.489  -0.893   0.012  0.00  0.00    -0.083 Cl
ATOM     11 CL   UNL     1       3.913  -0.817  -0.040  0.00  0.00    -0.083 Cl
ENDBRANCH   1   5
BRANCH   1  12
ATOM     12  N   UNL     1       1.154   4.330   1.596  0.00  0.00    -0.184 NA
ATOM     13  H   UNL     1       0.389   4.800   1.964  0.00  0.00    +0.148 HD
BRANCH  12  14
ATOM     14  C   UNL     1       2.316   4.047   2.442  0.00  0.00    +0.105 C 
ATOM     15  C   UNL     1       3.249   5.259   2.449  0.00  0.00    +0.023 C 
ATOM     16  C   UNL     1       4.463   4.962   3.333  0.00  0.00    +0.002 C 
ATOM     17  C   UNL     1       3.995   4.670   4.760  0.00  0.00    +0.003 C 
ATOM     18  C   UNL     1       3.062   3.458   4.752  0.00  0.00    +0.033 C 
ATOM     19  C   UNL     1       1.848   3.754   3.869  0.00  0.00    +0.133 C 
BRANCH  19  20
ATOM     20  O   UNL     1       0.976   2.622   3.862  0.00  0.00    -0.390 OA
ATOM     21  H   UNL     1       0.640   2.379   4.736  0.00  0.00    +0.210 HD
ENDBRANCH  19  20
ENDBRANCH  12  14
ENDBRANCH   1  12
TORSDOF 4
