REMARK  Name = ZINC09725936
REMARK  6 active torsions:
REMARK  status: ('A' for Active; 'I' for Inactive)
REMARK    1  A    between atoms: C_2  and  C_3
REMARK    2  A    between atoms: C_3  and  N_4
REMARK    3  A    between atoms: C_8  and  S_23
REMARK    4  A    between atoms: N_13  and  C_14
REMARK    5  A    between atoms: C_14  and  C_16
REMARK    6  A    between atoms: S_23  and  N_26
REMARK                            x       y       z     vdW  Elec       q    Type
REMARK                         _______ _______ _______ _____ _____    ______ ____
ROOT
ATOM      1  N   UNL     1       1.357   1.975  -0.000  0.00  0.00    -0.310 N 
ATOM      2  C   UNL     1       2.014   2.212   1.192  0.00  0.00    +0.059 A 
ATOM      3  C   UNL     1       1.542   2.020   2.500  0.00  0.00    +0.029 A 
ATOM      4  C   UNL     1       2.338   2.304   3.584  0.00  0.00    +0.030 A 
ATOM      5  C   UNL     1       3.628   2.781   3.422  0.00  0.00    +0.106 A 
ATOM      6  C   UNL     1       4.121   2.975   2.144  0.00  0.00    +0.045 A 
ATOM      7  C   UNL     1       3.325   2.691   1.059  0.00  0.00    +0.041 A 
ATOM      8  S   UNL     1       3.546   2.789  -0.700  0.00  0.00    -0.052 S 
ATOM      9  C   UNL     1       1.982   2.217  -1.184  0.00  0.00    +0.168 A 
ATOM     10  N   UNL     1       1.509   2.053  -2.414  0.00  0.00    -0.152 NA
ENDROOT
BRANCH   5  11
ATOM     11  S   UNL     1       4.629   3.139   4.827  0.00  0.00    +0.056 S 
ATOM     12  O   UNL     1       4.121   2.355   5.898  0.00  0.00    -0.153 OA
ATOM     13  O   UNL     1       5.980   3.054   4.395  0.00  0.00    -0.153 OA
BRANCH  11  14
ATOM     14  N   UNL     1       4.359   4.722   5.231  0.00  0.00    -0.204 NA
ATOM     15  H   UNL     1       4.436   5.007   6.155  0.00  0.00    +0.144 HD
ATOM     16  H   UNL     1       4.124   5.365   4.543  0.00  0.00    +0.144 HD
ENDBRANCH  11  14
ENDBRANCH   5  11
BRANCH  10  17
ATOM     17  C   UNL     1       2.276   2.346  -3.470  0.00  0.00    +0.269 C 
ATOM     18  O   UNL     1       3.409   2.763  -3.302  0.00  0.00    -0.268 OA
BRANCH  17  19
ATOM     19  C   UNL     1       1.749   2.164  -4.842  0.00  0.00    +0.040 A 
ATOM     20  C   UNL     1       2.547   2.469  -5.945  0.00  0.00    +0.013 A 
ATOM     21  C   UNL     1       2.051   2.297  -7.221  0.00  0.00    +0.002 A 
ATOM     22  C   UNL     1       0.764   1.824  -7.408  0.00  0.00    +0.015 A 
ATOM     23  C   UNL     1      -0.032   1.519  -6.318  0.00  0.00    +0.019 A 
ATOM     24  C   UNL     1       0.455   1.682  -5.036  0.00  0.00    +0.028 A 
ATOM     25 BR   UNL     1      -1.789   0.872  -6.584  0.00  0.00    -0.050 Br
ENDBRANCH  17  19
ENDBRANCH  10  17
BRANCH   1  26
ATOM     26  C   UNL     1      -0.018   1.468   0.010  0.00  0.00    +0.212 C 
BRANCH  26  28
ATOM     27  C   UNL     1       0.018  -1.178  -0.004  0.00  0.00    +0.005 C 
ATOM     28  C   UNL     1       0.002  -0.004   0.002  0.00  0.00    -0.084 C 
ENDBRANCH  26  28
ENDBRANCH   1  26
TORSDOF 6
