REMARK  Name = ZINC66220208
REMARK  5 active torsions:
REMARK  status: ('A' for Active; 'I' for Inactive)
REMARK    1  A    between atoms: C_4  and  C_7
REMARK    2  A    between atoms: C_7  and  N_11
REMARK    3  A    between atoms: N_14  and  N_15
REMARK    4  A    between atoms: C_16  and  C_18
REMARK    5  A    between atoms: C_18  and  C_19
REMARK                            x       y       z     vdW  Elec       q    Type
REMARK                         _______ _______ _______ _____ _____    ______ ____
ROOT
ATOM      1  N   UNL     1       4.818   0.081  -0.586  0.00  0.00    -0.289 N 
ATOM      2  C   UNL     1       5.112   1.287  -0.060  0.00  0.00    +0.317 C 
ATOM      3  O   UNL     1       4.519   1.681   0.926  0.00  0.00    -0.251 OA
ATOM      4  N   UNL     1       6.062   2.056  -0.627  0.00  0.00    -0.218 N 
ATOM      5  H   UNL     1       5.340  -0.266  -1.326  0.00  0.00    +0.151 HD
ATOM      6  H   UNL     1       6.274   2.924  -0.248  0.00  0.00    +0.174 HD
ENDROOT
BRANCH   1   7
ATOM      7  C   UNL     1       3.708  -0.705  -0.040  0.00  0.00    +0.061 C 
ATOM      8  C   UNL     1       3.935  -1.172   1.407  0.00  0.00    +0.031 C 
ATOM      9  C   UNL     1       4.603  -2.425   0.816  0.00  0.00    +0.005 C 
ATOM     10  C   UNL     1       3.750  -2.189  -0.442  0.00  0.00    +0.031 C 
BRANCH   7  14
ATOM     11  C   UNL     1      -0.095   1.134  -0.667  0.00  0.00    +0.000 A 
ATOM     12  C   UNL     1       0.002  -0.004   0.110  0.00  0.00    +0.000 A 
ATOM     13  C   UNL     1       1.233  -0.600   0.313  0.00  0.00    +0.006 A 
ATOM     14  C   UNL     1       2.366  -0.057  -0.262  0.00  0.00    -0.024 A 
ATOM     15  C   UNL     1       2.269   1.081  -1.040  0.00  0.00    +0.006 A 
ATOM     16  C   UNL     1       1.038   1.678  -1.242  0.00  0.00    +0.000 A 
ENDBRANCH   7  14
ENDBRANCH   1   7
BRANCH   4  17
ATOM     17  N   UNL     1       6.745   1.602  -1.763  0.00  0.00    -0.233 N 
ATOM     18  C   UNL     1       7.695   2.371  -2.330  0.00  0.00    +0.234 C 
ATOM     19  O   UNL     1       7.960   3.456  -1.857  0.00  0.00    -0.274 OA
ATOM     20  H   UNL     1       6.533   0.734  -2.142  0.00  0.00    +0.173 HD
BRANCH  18  21
ATOM     21  C   UNL     1       8.430   1.883  -3.552  0.00  0.00    +0.134 C 
BRANCH  21  22
ATOM     22  C   UNL     1       9.432   2.922  -3.984  0.00  0.00    -0.014 A 
ATOM     23  C   UNL     1       9.244   3.877  -4.909  0.00  0.00    +0.087 A 
ATOM     24  N   UNL     1      10.376   4.635  -5.034  0.00  0.00    -0.360 N 
ATOM     25  H   UNL     1      10.480   5.385  -5.641  0.00  0.00    +0.165 HD
ATOM     26  C   UNL     1      11.345   4.175  -4.170  0.00  0.00    +0.047 A 
ATOM     27  C   UNL     1      10.794   3.086  -3.470  0.00  0.00    +0.003 A 
ATOM     28  C   UNL     1      11.556   2.417  -2.512  0.00  0.00    +0.010 A 
ATOM     29  C   UNL     1      12.835   2.826  -2.255  0.00  0.00    +0.001 A 
ATOM     30  C   UNL     1      13.381   3.902  -2.940  0.00  0.00    +0.002 A 
ATOM     31  C   UNL     1      12.650   4.571  -3.897  0.00  0.00    +0.026 A 
ENDBRANCH  21  22
ENDBRANCH  18  21
ENDBRANCH   4  17
TORSDOF 5
