REMARK  Name = ZINC12502520
REMARK  8 active torsions:
REMARK  status: ('A' for Active; 'I' for Inactive)
REMARK    1  A    between atoms: C_1  and  C_2
REMARK    2  A    between atoms: C_2  and  C_4
REMARK    3  A    between atoms: C_2  and  O_23
REMARK    4  A    between atoms: N_6  and  N_7
REMARK    5  A    between atoms: N_7  and  C_8
REMARK    6  A    between atoms: C_8  and  N_10
REMARK    7  A    between atoms: C_11  and  C_13
REMARK    8  A    between atoms: O_23  and  C_24
REMARK                            x       y       z     vdW  Elec       q    Type
REMARK                         _______ _______ _______ _____ _____    ______ ____
ROOT
ATOM      1  N   UNL     1       2.314   4.226  -0.513  0.00  0.00    -0.245 N 
ATOM      2  H   UNL     1       2.325   5.187  -0.642  0.00  0.00    +0.172 HD
ENDROOT
BRANCH   1   5
ATOM      3  C   UNL     1       4.682   4.206  -0.264  0.00  0.00    +0.270 C 
ATOM      4  O   UNL     1       4.695   5.408  -0.425  0.00  0.00    -0.270 OA
ATOM      5  N   UNL     1       3.513   3.535  -0.294  0.00  0.00    -0.232 N 
ATOM      6  H   UNL     1       3.503   2.574  -0.165  0.00  0.00    +0.173 HD
BRANCH   3   8
ATOM      7  C   UNL     1       6.233   2.513  -1.199  0.00  0.00    +0.062 C 
ATOM      8  C   UNL     1       5.972   3.463  -0.029  0.00  0.00    +0.257 C 
BRANCH   8   9
ATOM      9  O   UNL     1       7.047   4.398   0.076  0.00  0.00    -0.478 OA
BRANCH   9  10
ATOM     10  C   UNL     1       8.143   4.003   0.777  0.00  0.00    +0.140 A 
ATOM     11  C   UNL     1       8.229   2.704   1.257  0.00  0.00    +0.048 A 
ATOM     12  C   UNL     1       9.344   2.303   1.966  0.00  0.00    +0.023 A 
ATOM     13  C   UNL     1      10.372   3.198   2.206  0.00  0.00    +0.043 A 
ATOM     14  C   UNL     1      10.287   4.495   1.734  0.00  0.00    +0.043 A 
ATOM     15  C   UNL     1       9.174   4.900   1.020  0.00  0.00    +0.084 A 
ATOM     16 CL   UNL     1       9.067   6.528   0.426  0.00  0.00    -0.080 Cl
ATOM     17 CL   UNL     1      11.770   2.692   3.103  0.00  0.00    -0.083 Cl
ENDBRANCH   9  10
ENDBRANCH   8   9
ENDBRANCH   3   8
ENDBRANCH   1   5
BRANCH   1  18
ATOM     18  C   UNL     1       1.146   3.554  -0.543  0.00  0.00    +0.153 C 
ATOM     19  S   UNL     1      -0.320   4.399  -0.810  0.00  0.00    -0.017 S 
BRANCH  18  20
ATOM     20  N   UNL     1       1.131   2.219  -0.364  0.00  0.00    -0.262 N 
ATOM     21  C   UNL     1      -0.037   1.548  -0.394  0.00  0.00    +0.258 C 
ATOM     22  O   UNL     1      -1.078   2.147  -0.589  0.00  0.00    -0.269 OA
ATOM     23  H   UNL     1       1.962   1.741  -0.212  0.00  0.00    +0.157 HD
BRANCH  21  24
ATOM     24  C   UNL     1      -0.053   0.094  -0.199  0.00  0.00    +0.094 A 
ATOM     25  C   UNL     1      -1.122  -0.750  -0.190  0.00  0.00    +0.068 A 
ATOM     26  C   UNL     1      -0.925  -2.128   0.013  0.00  0.00    +0.008 A 
ATOM     27  C   UNL     1      -1.901  -3.158   0.051  0.00  0.00    +0.010 A 
ATOM     28  C   UNL     1      -1.539  -4.449   0.265  0.00  0.00    +0.001 A 
ATOM     29  C   UNL     1      -0.211  -4.813   0.452  0.00  0.00    +0.001 A 
ATOM     30  C   UNL     1       0.770  -3.843   0.422  0.00  0.00    +0.016 A 
ATOM     31  C   UNL     1       0.418  -2.527   0.207  0.00  0.00    +0.021 A 
ATOM     32  S   UNL     1       1.323  -1.004   0.094  0.00  0.00    -0.082 S 
ATOM     33 CL   UNL     1      -2.724  -0.126  -0.433  0.00  0.00    -0.082 Cl
ENDBRANCH  21  24
ENDBRANCH  18  20
ENDBRANCH   1  18
TORSDOF 7
