REMARK  Name = ZINC34774564
REMARK  7 active torsions:
REMARK  status: ('A' for Active; 'I' for Inactive)
REMARK    1  A    between atoms: C_1  and  C_2
REMARK    2  A    between atoms: C_2  and  N_3
REMARK    3  A    between atoms: C_11  and  C_29
REMARK    4  A    between atoms: C_16  and  S_18
REMARK    5  A    between atoms: S_18  and  C_19
REMARK    6  A    between atoms: C_19  and  C_20
REMARK    7  A    between atoms: C_23  and  N_26
REMARK                            x       y       z     vdW  Elec       q    Type
REMARK                         _______ _______ _______ _____ _____    ______ ____
ROOT
ATOM      1  N   UNL     1       0.759   0.353  -3.510  0.00  0.00    +0.382 N 
ATOM      2  C   UNL     1       0.954  -0.442  -4.729  0.00  0.00    -0.060 C 
ATOM      3  C   UNL     1       1.254  -1.895  -4.349  0.00  0.00    +0.088 C 
ATOM      4  N   UNL     1       2.400  -1.909  -3.426  0.00  0.00    -0.318 N 
ATOM      5  C   UNL     1       2.360  -1.016  -2.258  0.00  0.00    +0.088 C 
ATOM      6  C   UNL     1       2.007   0.396  -2.737  0.00  0.00    -0.060 C 
ATOM      7  C   UNL     1       3.484  -2.737  -3.652  0.00  0.00    +0.134 A 
ATOM      8  C   UNL     1       3.381  -4.135  -3.415  0.00  0.00    +0.055 A 
ATOM      9  C   UNL     1       2.243  -4.915  -2.938  0.00  0.00    +0.002 A 
ATOM     10  C   UNL     1       2.387  -6.252  -2.789  0.00  0.00    +0.056 A 
ATOM     11  S   UNL     1       4.073  -6.547  -3.285  0.00  0.00    -0.076 S 
ATOM     12  C   UNL     1       4.546  -4.884  -3.678  0.00  0.00    +0.115 A 
ATOM     13  N   UNL     1       5.650  -4.310  -4.115  0.00  0.00    -0.214 NA
ATOM     14  C   UNL     1       5.689  -3.000  -4.319  0.00  0.00    +0.191 A 
ATOM     15  N   UNL     1       4.625  -2.237  -4.095  0.00  0.00    -0.206 NA
ATOM     16  H   UNL     1       0.033  -0.068  -2.950  0.00  0.00    -0.082 HD
ENDROOT
BRANCH   9  17
ATOM     17  C   UNL     1       0.955  -4.255  -2.622  0.00  0.00    -0.017 A 
ATOM     18  C   UNL     1       0.897  -3.267  -1.639  0.00  0.00    +0.008 A 
ATOM     19  C   UNL     1      -0.306  -2.655  -1.349  0.00  0.00    +0.001 A 
ATOM     20  C   UNL     1      -1.453  -3.021  -2.031  0.00  0.00    +0.000 A 
ATOM     21  C   UNL     1      -1.402  -4.000  -3.007  0.00  0.00    +0.001 A 
ATOM     22  C   UNL     1      -0.204  -4.614  -3.310  0.00  0.00    +0.008 A 
ENDBRANCH   9  17
BRANCH   1  24
ATOM     23  C   UNL     1      -0.998   1.687  -4.571  0.00  0.00    -0.017 C 
ATOM     24  C   UNL     1       0.364   1.719  -3.875  0.00  0.00    -0.082 C 
ENDBRANCH   1  24
BRANCH  14  25
ATOM     25  S   UNL     1       7.178  -2.259  -4.902  0.00  0.00    -0.081 S 
BRANCH  25  26
ATOM     26  C   UNL     1       8.327  -3.653  -5.066  0.00  0.00    +0.112 C 
BRANCH  26  27
ATOM     27  C   UNL     1       9.658  -3.151  -5.564  0.00  0.00    -0.037 A 
ATOM     28  C   UNL     1       9.905  -3.080  -6.922  0.00  0.00    +0.007 A 
ATOM     29  C   UNL     1      11.126  -2.619  -7.379  0.00  0.00    +0.033 A 
ATOM     30  C   UNL     1      12.099  -2.229  -6.478  0.00  0.00    +0.126 A 
ATOM     31  C   UNL     1      11.851  -2.299  -5.120  0.00  0.00    +0.033 A 
ATOM     32  C   UNL     1      10.629  -2.756  -4.663  0.00  0.00    +0.007 A 
BRANCH  30  33
ATOM     33  N   UNL     1      13.406  -1.737  -6.967  0.00  0.00    +0.056 N 
ATOM     34  O   UNL     1      13.623  -1.676  -8.155  0.00  0.00    -0.126 OA
ATOM     35  O   UNL     1      14.257  -1.396  -6.179  0.00  0.00    -0.126 OA
ENDBRANCH  30  33
ENDBRANCH  26  27
ENDBRANCH  25  26
ENDBRANCH  14  25
TORSDOF 6
