REMARK  Name = ZINC18205579
REMARK  9 active torsions:
REMARK  status: ('A' for Active; 'I' for Inactive)
REMARK    1  A    between atoms: C_1  and  C_2
REMARK    2  A    between atoms: C_7  and  C_9
REMARK    3  A    between atoms: C_9  and  C_11
REMARK    4  A    between atoms: C_9  and  C_18
REMARK    5  A    between atoms: C_18  and  C_20
REMARK    6  A    between atoms: C_18  and  C_22
REMARK    7  A    between atoms: C_27  and  C_30
REMARK    8  A    between atoms: C_33  and  O_36
REMARK    9  A    between atoms: O_36  and  C_37
REMARK                            x       y       z     vdW  Elec       q    Type
REMARK                         _______ _______ _______ _____ _____    ______ ____
ROOT
ATOM      1  C   UNL     1       0.545   2.169   0.633  0.00  0.00    +0.063 C 
ATOM      2  C   UNL     1       0.552   0.709   0.261  0.00  0.00    +0.047 C 
ATOM      3  N   UNL     1       0.625   0.228  -0.918  0.00  0.00    -0.179 NA
ATOM      4  N   UNL     1       0.610  -1.164  -0.944  0.00  0.00    -0.135 N 
ATOM      5  C   UNL     1       0.520  -1.672   0.303  0.00  0.00    +0.250 C 
ATOM      6  O   UNL     1       0.485  -2.841   0.623  0.00  0.00    -0.273 OA
ATOM      7  C   UNL     1       0.480  -0.463   1.218  0.00  0.00    +0.132 C 
ATOM      8  C   UNL     1       0.678  -1.930  -2.102  0.00  0.00    +0.188 A 
ATOM      9  N   UNL     1       0.772  -1.537  -3.359  0.00  0.00    -0.223 NA
ATOM     10  C   UNL     1       0.827  -2.413  -4.351  0.00  0.00    +0.080 A 
ATOM     11  C   UNL     1       0.786  -3.750  -4.069  0.00  0.00    +0.077 A 
ATOM     12  S   UNL     1       0.669  -3.708  -2.285  0.00  0.00    -0.058 S 
ENDROOT
BRANCH  10  13
ATOM     13  C   UNL     1       0.932  -1.947  -5.756  0.00  0.00    +0.001 A 
ATOM     14  C   UNL     1       0.984  -2.873  -6.796  0.00  0.00    +0.013 A 
ATOM     15  C   UNL     1       1.082  -2.437  -8.101  0.00  0.00    +0.046 A 
ATOM     16  C   UNL     1       1.129  -1.078  -8.379  0.00  0.00    +0.120 A 
ATOM     17  C   UNL     1       1.078  -0.153  -7.344  0.00  0.00    +0.046 A 
ATOM     18  C   UNL     1       0.974  -0.583  -6.038  0.00  0.00    +0.013 A 
BRANCH  16  19
ATOM     19  O   UNL     1       1.226  -0.651  -9.665  0.00  0.00    -0.495 OA
ATOM     20  C   UNL     1       1.270   0.761  -9.879  0.00  0.00    +0.277 C 
ENDBRANCH  16  19
ENDBRANCH  10  13
BRANCH   7  21
ATOM     21  C   UNL     1       1.682  -0.460   2.164  0.00  0.00    +0.062 C 
BRANCH  21  22
ATOM     22  C   UNL     1       2.956  -0.487   1.359  0.00  0.00    -0.041 A 
ATOM     23  C   UNL     1       3.205  -1.539   0.497  0.00  0.00    +0.005 A 
ATOM     24  C   UNL     1       4.373  -1.565  -0.242  0.00  0.00    +0.020 A 
ATOM     25  C   UNL     1       5.292  -0.538  -0.119  0.00  0.00    +0.041 A 
ATOM     26  C   UNL     1       5.041   0.514   0.744  0.00  0.00    +0.020 A 
ATOM     27  C   UNL     1       3.871   0.542   1.478  0.00  0.00    +0.005 A 
ATOM     28 CL   UNL     1       6.759  -0.570  -1.046  0.00  0.00    -0.084 Cl
ENDBRANCH  21  22
BRANCH  21  29
ATOM     29  C   UNL     1       1.623  -1.693   3.068  0.00  0.00    +0.185 C 
BRANCH  29  30
ATOM     30  C   UNL     1       0.426  -1.593   3.977  0.00  0.00    +0.228 C 
ATOM     31  O   UNL     1       0.579  -1.380   5.161  0.00  0.00    -0.275 OA
ATOM     32  N   UNL     1      -0.816  -1.741   3.474  0.00  0.00    -0.328 N 
ATOM     33  H   UNL     1      -0.937  -1.970   2.540  0.00  0.00    +0.145 HD
ATOM     34  H   UNL     1      -1.589  -1.619   4.048  0.00  0.00    +0.145 HD
ENDBRANCH  29  30
BRANCH  29  35
ATOM     35  C   UNL     1       2.850  -1.767   3.878  0.00  0.00    +0.076 C 
ATOM     36  N   UNL     1       3.796  -1.824   4.504  0.00  0.00    -0.196 NA
ENDBRANCH  29  35
ENDBRANCH  21  29
ENDBRANCH   7  21
TORSDOF 7
