REMARK  Name = ZINC67216760
REMARK  10 active torsions:
REMARK  status: ('A' for Active; 'I' for Inactive)
REMARK    1  A    between atoms: C_1  and  C_2
REMARK    2  A    between atoms: C_2  and  C_3
REMARK    3  A    between atoms: C_2  and  N_4
REMARK    4  A    between atoms: N_4  and  S_5
REMARK    5  A    between atoms: S_5  and  C_8
REMARK    6  A    between atoms: C_12  and  C_14
REMARK    7  A    between atoms: C_14  and  N_15
REMARK    8  A    between atoms: N_15  and  C_16
REMARK    9  A    between atoms: C_16  and  C_17
REMARK   10  A    between atoms: C_22  and  C_23
REMARK                            x       y       z     vdW  Elec       q    Type
REMARK                         _______ _______ _______ _____ _____    ______ ____
ROOT
ATOM      1  C   UNL     1       2.484  -6.002  -0.291  0.00  0.00    -0.046 C 
ENDROOT
BRANCH   1   6
ATOM      2  C   UNL     1       2.478  -2.233  -0.071  0.00  0.00    +0.105 A 
ATOM      3  C   UNL     1       2.680  -2.035   1.283  0.00  0.00    +0.028 A 
ATOM      4  C   UNL     1       2.819  -3.121   2.127  0.00  0.00    +0.002 A 
ATOM      5  C   UNL     1       2.756  -4.405   1.617  0.00  0.00    +0.002 A 
ATOM      6  C   UNL     1       2.553  -4.603   0.264  0.00  0.00    -0.063 A 
ATOM      7  C   UNL     1       2.409  -3.517  -0.579  0.00  0.00    +0.030 A 
BRANCH   2   8
ATOM      8  S   UNL     1       2.300  -0.849  -1.146  0.00  0.00    +0.059 S 
ATOM      9  O   UNL     1       2.660  -1.296  -2.446  0.00  0.00    -0.153 OA
ATOM     10  O   UNL     1       2.947   0.245  -0.511  0.00  0.00    -0.153 OA
BRANCH   8  11
ATOM     11  N   UNL     1       0.688  -0.476  -1.203  0.00  0.00    -0.187 NA
ATOM     12  H   UNL     1       0.197  -0.571  -2.035  0.00  0.00    +0.148 HD
BRANCH  11  14
ATOM     13  C   UNL     1      -0.019   1.526   0.010  0.00  0.00    +0.025 C 
ATOM     14  C   UNL     1       0.002  -0.004   0.002  0.00  0.00    +0.070 C 
ATOM     15  C   UNL     1      -1.433  -0.534   0.013  0.00  0.00    +0.025 C 
ENDBRANCH  11  14
ENDBRANCH   8  11
ENDBRANCH   2   8
ENDBRANCH   1   6
BRANCH   1  16
ATOM     16  N   UNL     1       1.093  -6.472  -0.264  0.00  0.00    +0.384 N 
ATOM     17  H   UNL     1       0.756  -6.471   0.688  0.00  0.00    -0.085 HD
ATOM     18  H   UNL     1       0.520  -5.859  -0.824  0.00  0.00    -0.085 HD
BRANCH  16  19
ATOM     19  C   UNL     1       1.026  -7.836  -0.805  0.00  0.00    -0.043 C 
BRANCH  19  20
ATOM     20  C   UNL     1      -0.402  -8.318  -0.777  0.00  0.00    -0.019 A 
ATOM     21  C   UNL     1      -0.949  -9.132   0.152  0.00  0.00    +0.107 A 
ATOM     22  N   UNL     1      -2.244  -9.328  -0.174  0.00  0.00    -0.284 N 
ATOM     23  H   UNL     1      -2.879  -9.871   0.318  0.00  0.00    +0.188 HD
ATOM     24  N   UNL     1      -2.513  -8.611  -1.347  0.00  0.00    -0.173 NA
ATOM     25  C   UNL     1      -1.406  -7.995  -1.712  0.00  0.00    +0.100 A 
BRANCH  25  26
ATOM     26  C   UNL     1      -1.245  -7.122  -2.896  0.00  0.00    +0.039 A 
ATOM     27  C   UNL     1      -1.835  -7.221  -4.127  0.00  0.00    +0.018 A 
ATOM     28  C   UNL     1      -1.529  -6.280  -5.086  0.00  0.00    +0.008 A 
ATOM     29  C   UNL     1      -0.655  -5.286  -4.782  0.00  0.00    +0.046 A 
ATOM     30  S   UNL     1      -0.237  -5.661  -3.087  0.00  0.00    -0.095 S 
ENDBRANCH  25  26
ENDBRANCH  19  20
ENDBRANCH  16  19
ENDBRANCH   1  16
TORSDOF 8
