REMARK  Name = ZINC12787484
REMARK  8 active torsions:
REMARK  status: ('A' for Active; 'I' for Inactive)
REMARK    1  A    between atoms: C_1  and  O_2
REMARK    2  A    between atoms: O_2  and  C_3
REMARK    3  A    between atoms: C_6  and  C_9
REMARK    4  A    between atoms: C_14  and  N_15
REMARK    5  A    between atoms: C_14  and  N_52
REMARK    6  A    between atoms: C_20  and  C_22
REMARK    7  A    between atoms: C_27  and  O_28
REMARK    8  A    between atoms: O_28  and  C_29
REMARK                            x       y       z     vdW  Elec       q    Type
REMARK                         _______ _______ _______ _____ _____    ______ ____
ROOT
ATOM      1  N   UNL     1      -2.022   0.182   0.575  0.00  0.00    -0.257 N 
ATOM      2  C   UNL     1      -3.180  -0.031   1.232  0.00  0.00    +0.174 A 
ATOM      3  S   UNL     1      -3.890  -1.553   1.561  0.00  0.00    -0.012 S 
ATOM      4  N   UNL     1      -3.680   1.172   1.580  0.00  0.00    -0.317 N 
ATOM      5  H   UNL     1      -4.506   1.325   2.064  0.00  0.00    +0.169 HD
ATOM      6  C   UNL     1      -2.814   2.148   1.128  0.00  0.00    +0.164 A 
ATOM      7  N   UNL     1      -1.815   1.568   0.523  0.00  0.00    -0.152 NA
ENDROOT
BRANCH   6   8
ATOM      8  C   UNL     1      -2.990   3.606   1.300  0.00  0.00    +0.062 A 
ATOM      9  C   UNL     1      -4.111   4.103   1.964  0.00  0.00    +0.035 A 
ATOM     10  C   UNL     1      -4.267   5.465   2.127  0.00  0.00    +0.042 A 
ATOM     11  C   UNL     1      -3.320   6.341   1.623  0.00  0.00    +0.023 A 
ATOM     12  C   UNL     1      -2.208   5.859   0.959  0.00  0.00    +0.048 A 
ATOM     13  C   UNL     1      -2.035   4.495   0.793  0.00  0.00    +0.131 A 
ATOM     14 CL   UNL     1      -5.660   6.082   2.960  0.00  0.00    -0.084 Cl
BRANCH  13  15
ATOM     15  O   UNL     1      -0.942   4.021   0.139  0.00  0.00    -0.494 OA
ATOM     16  C   UNL     1      -0.010   4.987  -0.352  0.00  0.00    +0.277 C 
ENDBRANCH  13  15
ENDBRANCH   6   8
BRANCH   1  17
ATOM     17  C   UNL     1      -1.141  -0.846   0.016  0.00  0.00    +0.072 C 
BRANCH  17  22
ATOM     18  C   UNL     1      -1.683  -0.077  -2.230  0.00  0.00    -0.035 C 
ATOM     19  C   UNL     1      -1.692  -0.732  -3.634  0.00  0.00    -0.012 C 
ATOM     20  C   UNL     1      -0.738  -1.936  -3.459  0.00  0.00    -0.020 C 
ATOM     21  C   UNL     1      -0.716  -2.216  -1.945  0.00  0.00    -0.075 C 
ATOM     22  N   UNL     1      -1.631  -1.242  -1.339  0.00  0.00    +0.397 N 
ATOM     23  H   UNL     1      -2.568  -1.653  -1.251  0.00  0.00    -0.078 HD
BRANCH  18  27
ATOM     24  C   UNL     1      -5.253   2.185  -1.598  0.00  0.00    +0.120 A 
ATOM     25  C   UNL     1      -4.067   2.832  -1.913  0.00  0.00    +0.046 A 
ATOM     26  C   UNL     1      -2.915   2.099  -2.116  0.00  0.00    +0.005 A 
ATOM     27  C   UNL     1      -2.942   0.721  -2.007  0.00  0.00    -0.061 A 
ATOM     28  C   UNL     1      -4.124   0.073  -1.699  0.00  0.00    +0.005 A 
ATOM     29  C   UNL     1      -5.278   0.802  -1.488  0.00  0.00    +0.046 A 
BRANCH  24  31
ATOM     30  C   UNL     1      -7.573   2.171  -1.077  0.00  0.00    +0.277 C 
ATOM     31  O   UNL     1      -6.389   2.904  -1.398  0.00  0.00    -0.495 OA
ENDBRANCH  24  31
ENDBRANCH  18  27
ENDBRANCH  17  22
ENDBRANCH   1  17
TORSDOF 6
