REMARK  Name = ZINC23151965
REMARK  9 active torsions:
REMARK  status: ('A' for Active; 'I' for Inactive)
REMARK    1  A    between atoms: C_1  and  C_2
REMARK    2  A    between atoms: C_7  and  C_9
REMARK    3  A    between atoms: C_7  and  C_10
REMARK    4  A    between atoms: N_13  and  C_17
REMARK    5  A    between atoms: C_17  and  C_18
REMARK    6  A    between atoms: N_20  and  C_21
REMARK    7  A    between atoms: C_26  and  N_27
REMARK    8  A    between atoms: N_27  and  C_28
REMARK    9  A    between atoms: N_27  and  C_29
REMARK                            x       y       z     vdW  Elec       q    Type
REMARK                         _______ _______ _______ _____ _____    ______ ____
ROOT
ATOM      1  C   UNL     1       0.305   1.315  -0.731  0.00  0.00    +0.007 C 
ATOM      2  C   UNL     1       0.297  -0.198  -0.498  0.00  0.00    -0.011 C 
ATOM      3  C   UNL     1      -1.137  -0.723  -0.604  0.00  0.00    +0.038 C 
ATOM      4  C   UNL     1      -1.149  -2.227  -0.351  0.00  0.00    +0.113 C 
ATOM      5  C   UNL     1      -0.582  -2.546   1.028  0.00  0.00    +0.041 C 
ATOM      6  C   UNL     1       0.850  -2.014   1.128  0.00  0.00    -0.032 C 
ATOM      7  C   UNL     1       0.849  -0.502   0.897  0.00  0.00    +0.009 C 
ATOM      8  C   UNL     1       1.411  -2.317   2.519  0.00  0.00    +0.011 C 
ATOM      9  C   UNL     1       1.722  -2.692   0.068  0.00  0.00    +0.011 C 
ATOM     10  C   UNL     1      -2.551  -2.773  -0.485  0.00  0.00    +0.247 C 
ATOM     11  O   UNL     1      -3.522  -2.475   0.177  0.00  0.00    -0.273 OA
ATOM     12  N   UNL     1      -2.495  -3.663  -1.498  0.00  0.00    -0.215 N 
ATOM     13  C   UNL     1      -1.262  -3.748  -2.012  0.00  0.00    +0.310 C 
ATOM     14  O   UNL     1      -0.964  -4.482  -2.934  0.00  0.00    -0.252 OA
ATOM     15  N   UNL     1      -0.390  -2.929  -1.394  0.00  0.00    -0.285 N 
ATOM     16  H   UNL     1       0.552  -2.825  -1.597  0.00  0.00    +0.151 HD
ENDROOT
BRANCH  12  17
ATOM     17  C   UNL     1      -3.642  -4.440  -1.975  0.00  0.00    +0.214 C 
BRANCH  17  18
ATOM     18  C   UNL     1      -4.350  -3.674  -3.063  0.00  0.00    +0.235 C 
ATOM     19  O   UNL     1      -3.937  -2.586  -3.406  0.00  0.00    -0.274 OA
ATOM     20  N   UNL     1      -5.442  -4.198  -3.655  0.00  0.00    -0.283 N 
ATOM     21  H   UNL     1      -5.809  -5.038  -3.338  0.00  0.00    +0.155 HD
BRANCH  20  22
ATOM     22  C   UNL     1      -6.047  -3.528  -4.727  0.00  0.00    +0.055 A 
ATOM     23  C   UNL     1      -5.919  -2.153  -4.849  0.00  0.00    +0.025 A 
ATOM     24  C   UNL     1      -6.517  -1.494  -5.908  0.00  0.00    +0.002 A 
ATOM     25  C   UNL     1      -7.243  -2.203  -6.847  0.00  0.00    +0.002 A 
ATOM     26  C   UNL     1      -7.376  -3.574  -6.733  0.00  0.00    +0.025 A 
ATOM     27  C   UNL     1      -6.774  -4.244  -5.678  0.00  0.00    +0.051 A 
BRANCH  27  28
ATOM     28  N   UNL     1      -6.902  -5.632  -5.563  0.00  0.00    -0.335 N 
ATOM     29  C   UNL     1      -5.916  -6.513  -6.194  0.00  0.00    +0.129 C 
ATOM     30  C   UNL     1      -8.023  -6.205  -4.813  0.00  0.00    +0.129 C 
ENDBRANCH  27  28
ENDBRANCH  20  22
ENDBRANCH  17  18
ENDBRANCH  12  17
TORSDOF 4
