REMARK  Name = ZINC38701127
REMARK  13 active torsions:
REMARK  status: ('A' for Active; 'I' for Inactive)
REMARK    1  A    between atoms: C_1  and  C_2
REMARK    2  A    between atoms: C_10  and  C_11
REMARK    3  A    between atoms: C_11  and  O_13
REMARK    4  A    between atoms: O_13  and  C_14
REMARK    5  A    between atoms: C_21  and  N_39
REMARK    6  A    between atoms: C_22  and  C_37
REMARK    7  A    between atoms: C_23  and  C_25
REMARK    8  A    between atoms: C_29  and  O_31
REMARK    9  A    between atoms: O_31  and  C_32
REMARK   10  A    between atoms: C_32  and  C_33
REMARK   11  A    between atoms: C_33  and  C_34
REMARK   12  A    between atoms: C_34  and  C_35
REMARK   13  A    between atoms: C_34  and  C_36
REMARK                            x       y       z     vdW  Elec       q    Type
REMARK                         _______ _______ _______ _____ _____    ______ ____
ROOT
ATOM      1  C   UNL     1       0.025  -0.746   4.722  0.00  0.00    +0.136 A 
ATOM      2  C   UNL     1      -0.070   0.630   4.874  0.00  0.00    +0.047 A 
ATOM      3  C   UNL     1      -0.100   1.185   6.138  0.00  0.00    +0.012 A 
ATOM      4  C   UNL     1      -0.035   0.373   7.257  0.00  0.00    +0.008 A 
ATOM      5  C   UNL     1       0.060  -1.002   7.111  0.00  0.00    +0.138 A 
ATOM      6  C   UNL     1       0.084  -1.562   5.840  0.00  0.00    +0.093 A 
ATOM      7  O   UNL     1       0.124  -1.814   8.195  0.00  0.00    -0.441 OA
ATOM      8  C   UNL     1      -0.282  -1.364   9.394  0.00  0.00    +0.199 C 
ATOM      9  C   UNL     1      -0.395  -0.042   9.663  0.00  0.00    +0.098 C 
ATOM     10  C   UNL     1      -0.068   0.997   8.627  0.00  0.00    +0.098 C 
ENDROOT
BRANCH  10  11
ATOM     11  C   UNL     1       1.278   1.602   8.933  0.00  0.00    -0.031 A 
ATOM     12  C   UNL     1       2.406   0.803   8.950  0.00  0.00    +0.005 A 
ATOM     13  C   UNL     1       3.643   1.355   9.230  0.00  0.00    +0.004 A 
ATOM     14  C   UNL     1       3.753   2.706   9.495  0.00  0.00    +0.045 A 
ATOM     15  C   UNL     1       2.623   3.509   9.479  0.00  0.00    +0.121 A 
ATOM     16  C   UNL     1       1.384   2.954   9.191  0.00  0.00    +0.050 A 
BRANCH  15  17
ATOM     17  O   UNL     1       2.729   4.839   9.739  0.00  0.00    -0.492 OA
BRANCH  17  18
ATOM     18  C   UNL     1       4.036   5.343  10.021  0.00  0.00    +0.229 C 
BRANCH  18  19
ATOM     19  C   UNL     1       3.957   6.847  10.287  0.00  0.00    +0.044 C 
BRANCH  19  20
ATOM     20  C   UNL     1       5.356   7.386  10.589  0.00  0.00    -0.014 C 
ATOM     21  C   UNL     1       6.238   7.240   9.347  0.00  0.00    +0.007 C 
ATOM     22  C   UNL     1       5.261   8.863  10.976  0.00  0.00    +0.007 C 
ENDBRANCH  19  20
ENDBRANCH  18  19
ENDBRANCH  17  18
ENDBRANCH  15  17
ENDBRANCH  10  11
BRANCH   8  23
ATOM     23  N   UNL     1      -0.592  -2.272  10.376  0.00  0.00    -0.328 N 
ATOM     24  H   UNL     1      -0.517  -3.223  10.199  0.00  0.00    +0.145 HD
ATOM     25  H   UNL     1      -0.887  -1.963  11.247  0.00  0.00    +0.145 HD
ENDBRANCH   8  23
BRANCH   9  26
ATOM     26  C   UNL     1      -0.834   0.376  10.961  0.00  0.00    +0.101 C 
ATOM     27  N   UNL     1      -1.182   0.707  11.990  0.00  0.00    -0.191 NA
ENDBRANCH   9  26
BRANCH   1  28
ATOM     28  O   UNL     1       0.054  -1.293   3.478  0.00  0.00    -0.420 OA
BRANCH  28  29
ATOM     29  C   UNL     1      -1.073  -1.869   3.014  0.00  0.00    +0.380 C 
ATOM     30  O   UNL     1      -2.047  -1.968   3.735  0.00  0.00    -0.241 OA
BRANCH  29  40
ATOM     31  C   UNL     1      -3.541  -3.235   1.703  0.00  0.00    +0.048 C 
ATOM     32  C   UNL     1      -2.202  -2.974   1.063  0.00  0.00    +0.010 A 
ATOM     33  C   UNL     1      -1.801  -3.307  -0.303  0.00  0.00    +0.024 A 
ATOM     34  C   UNL     1      -2.441  -3.917  -1.385  0.00  0.00    +0.012 A 
ATOM     35  C   UNL     1      -1.769  -4.085  -2.562  0.00  0.00    +0.001 A 
ATOM     36  C   UNL     1      -0.455  -3.654  -2.690  0.00  0.00    +0.004 A 
ATOM     37  C   UNL     1       0.194  -3.051  -1.635  0.00  0.00    +0.047 A 
ATOM     38  C   UNL     1      -0.469  -2.868  -0.427  0.00  0.00    +0.136 A 
ATOM     39  O   UNL     1      -0.108  -2.325   0.752  0.00  0.00    -0.448 OA
ATOM     40  C   UNL     1      -1.125  -2.377   1.637  0.00  0.00    +0.216 A 
ENDBRANCH  29  40
ENDBRANCH  28  29
ENDBRANCH   1  28
TORSDOF 10
