REMARK  Name = ZINC60381224
REMARK  4 active torsions:
REMARK  status: ('A' for Active; 'I' for Inactive)
REMARK    1  A    between atoms: C_1  and  C_2
REMARK    2  A    between atoms: C_2  and  C_4
REMARK    3  A    between atoms: C_2  and  N_14
REMARK    4  A    between atoms: N_23  and  C_26
REMARK                            x       y       z     vdW  Elec       q    Type
REMARK                         _______ _______ _______ _____ _____    ______ ____
ROOT
ATOM      1  N   UNL     1       0.688  -0.476  -1.203  0.00  0.00    -0.308 N 
ATOM      2  C   UNL     1       2.055  -0.589  -1.215  0.00  0.00    +0.198 A 
ATOM      3  N   UNL     1       2.671  -1.026  -2.350  0.00  0.00    -0.294 N 
ATOM      4  H   UNL     1       2.142  -1.251  -3.131  0.00  0.00    +0.172 HD
ATOM      5  C   UNL     1       4.017  -1.146  -2.393  0.00  0.00    +0.263 A 
ATOM      6  O   UNL     1       4.578  -1.534  -3.402  0.00  0.00    -0.267 OA
ATOM      7  C   UNL     1       4.758  -0.808  -1.233  0.00  0.00    +0.103 A 
ATOM      8  C   UNL     1       6.131  -0.805  -0.910  0.00  0.00    +0.150 A 
ATOM      9  N   UNL     1       6.263  -0.396   0.321  0.00  0.00    -0.177 NA
ATOM     10  N   UNL     1       5.001  -0.113   0.858  0.00  0.00    -0.249 N 
ATOM     11  C   UNL     1       4.065  -0.365  -0.095  0.00  0.00    +0.167 A 
ATOM     12  N   UNL     1       2.729  -0.267  -0.134  0.00  0.00    -0.196 NA
ATOM     13  C   UNL     1       4.735   0.372   2.215  0.00  0.00    +0.174 C 
ATOM     14  H   UNL     1       0.175  -0.710  -1.993  0.00  0.00    +0.149 HD
ENDROOT
BRANCH   1  16
ATOM     15  C   UNL     1      -0.019   1.526   0.010  0.00  0.00    +0.033 C 
ATOM     16  C   UNL     1       0.002  -0.004   0.002  0.00  0.00    +0.100 C 
BRANCH  16  17
ATOM     17  C   UNL     1      -1.412  -0.526   0.013  0.00  0.00    -0.027 A 
ATOM     18  C   UNL     1      -2.144  -0.570  -1.159  0.00  0.00    +0.006 A 
ATOM     19  C   UNL     1      -3.438  -1.046  -1.141  0.00  0.00    +0.004 A 
ATOM     20  C   UNL     1      -4.013  -1.483   0.046  0.00  0.00    -0.044 A 
ATOM     21  C   UNL     1      -3.282  -1.444   1.212  0.00  0.00    -0.044 A 
ATOM     22  C   UNL     1      -1.978  -0.966   1.191  0.00  0.00    +0.009 A 
ATOM     23  C   UNL     1      -3.835  -1.916   2.531  0.00  0.00    +0.035 C 
ATOM     24  C   UNL     1      -5.359  -1.999   2.476  0.00  0.00    +0.005 C 
ATOM     25  C   UNL     1      -5.755  -2.811   1.237  0.00  0.00    +0.005 C 
ATOM     26  C   UNL     1      -5.433  -1.983  -0.005  0.00  0.00    +0.035 C 
ENDBRANCH  16  17
ENDBRANCH   1  16
TORSDOF 2
