REMARK  Name = ZINC43350520
REMARK  8 active torsions:
REMARK  status: ('A' for Active; 'I' for Inactive)
REMARK    1  A    between atoms: C_1  and  C_2
REMARK    2  A    between atoms: C_2  and  C_3
REMARK    3  A    between atoms: N_5  and  C_6
REMARK    4  A    between atoms: C_9  and  C_12
REMARK    5  A    between atoms: C_12  and  C_14
REMARK    6  A    between atoms: C_12  and  N_15
REMARK    7  A    between atoms: N_18  and  C_19
REMARK    8  A    between atoms: C_21  and  C_26
REMARK                            x       y       z     vdW  Elec       q    Type
REMARK                         _______ _______ _______ _____ _____    ______ ____
ROOT
ATOM      1  C   UNL     1       3.836  -3.434  -6.013  0.00  0.00    +0.102 C 
ATOM      2  C   UNL     1       2.889  -3.799  -7.159  0.00  0.00    +0.033 C 
ENDROOT
BRANCH   1   6
ATOM      3  C   UNL     1       1.551  -2.230  -2.607  0.00  0.00    +0.033 A 
ATOM      4  C   UNL     1       2.127  -1.273  -3.433  0.00  0.00    +0.023 A 
ATOM      5  C   UNL     1       2.864  -1.666  -4.533  0.00  0.00    +0.007 A 
ATOM      6  C   UNL     1       3.030  -3.010  -4.812  0.00  0.00    -0.027 A 
ATOM      7  C   UNL     1       2.458  -3.965  -3.992  0.00  0.00    +0.007 A 
ATOM      8  C   UNL     1       1.725  -3.579  -2.887  0.00  0.00    +0.023 A 
BRANCH   3  11
ATOM      9  C   UNL     1       0.842  -2.569  -0.361  0.00  0.00    +0.217 C 
ATOM     10  O   UNL     1       1.459  -3.613  -0.336  0.00  0.00    -0.275 OA
ATOM     11  N   UNL     1       0.803  -1.836  -1.492  0.00  0.00    -0.286 N 
ATOM     12  H   UNL     1       0.257  -1.036  -1.533  0.00  0.00    +0.155 HD
BRANCH   9  14
ATOM     13  C   UNL     1       0.322  -3.098   2.005  0.00  0.00    +0.013 C 
ATOM     14  C   UNL     1       0.119  -2.091   0.871  0.00  0.00    +0.093 C 
ENDBRANCH   9  14
ENDBRANCH   3  11
ENDBRANCH   1   6
BRANCH   1  15
ATOM     15  N   UNL     1       4.653  -4.600  -5.665  0.00  0.00    -0.293 N 
ATOM     16  C   UNL     1       5.787  -4.855  -6.348  0.00  0.00    +0.304 C 
ATOM     17  O   UNL     1       6.131  -4.119  -7.252  0.00  0.00    -0.252 OA
ATOM     18  N   UNL     1       6.538  -5.927  -6.029  0.00  0.00    -0.267 N 
ATOM     19  H   UNL     1       4.378  -5.187  -4.944  0.00  0.00    +0.151 HD
ATOM     20  H   UNL     1       6.231  -6.551  -5.352  0.00  0.00    +0.156 HD
BRANCH  18  21
ATOM     21  C   UNL     1       7.764  -6.141  -6.673  0.00  0.00    +0.070 A 
ATOM     22  C   UNL     1       7.917  -5.793  -8.008  0.00  0.00    +0.029 A 
ATOM     23  C   UNL     1       9.127  -6.004  -8.641  0.00  0.00    -0.049 A 
ATOM     24  C   UNL     1      10.185  -6.562  -7.947  0.00  0.00    +0.006 A 
ATOM     25  C   UNL     1      10.037  -6.910  -6.617  0.00  0.00    +0.040 A 
ATOM     26  C   UNL     1       8.831  -6.696  -5.975  0.00  0.00    +0.145 A 
ATOM     27  F   UNL     1       8.687  -7.031  -4.674  0.00  0.00    -0.204 F 
ATOM     28  C   UNL     1       9.293  -5.627 -10.090  0.00  0.00    +0.044 C 
ENDBRANCH  18  21
ENDBRANCH   1  15
TORSDOF 5
