REMARK  Name = ZINC06056720
REMARK  5 active torsions:
REMARK  status: ('A' for Active; 'I' for Inactive)
REMARK    1  A    between atoms: C_1  and  N_2
REMARK    2  A    between atoms: N_4  and  C_5
REMARK    3  A    between atoms: C_5  and  C_7
REMARK    4  A    between atoms: N_12  and  N_13
REMARK    5  A    between atoms: N_13  and  C_14
REMARK                            x       y       z     vdW  Elec       q    Type
REMARK                         _______ _______ _______ _____ _____    ______ ____
ROOT
ATOM      1  C   UNL     1      -0.151   1.373  -0.766  0.00  0.00    +0.155 C 
ATOM      2  N   UNL     1      -0.071  -0.051  -0.431  0.00  0.00    -0.237 N 
ATOM      3  C   UNL     1      -1.117  -0.809   0.015  0.00  0.00    +0.162 C 
ATOM      4  N   UNL     1      -2.365  -0.399   0.218  0.00  0.00    -0.154 NA
ATOM      5  C   UNL     1      -0.593  -2.169   0.225  0.00  0.00    +0.183 C 
ATOM      6  N   UNL     1      -1.257  -3.226   0.652  0.00  0.00    -0.174 NA
ATOM      7  C   UNL     1       0.834  -2.095  -0.144  0.00  0.00    +0.283 C 
ATOM      8  O   UNL     1       1.636  -3.010  -0.113  0.00  0.00    -0.267 OA
ATOM      9  N   UNL     1       1.083  -0.829  -0.526  0.00  0.00    -0.228 N 
ATOM     10  H   UNL     1       1.946  -0.502  -0.825  0.00  0.00    +0.173 HD
ENDROOT
BRANCH   4  11
ATOM     11  C   UNL     1      -2.659   0.898   0.150  0.00  0.00    +0.342 C 
ATOM     12  O   UNL     1      -2.043   1.697   0.828  0.00  0.00    -0.264 OA
BRANCH  11  13
ATOM     13  C   UNL     1      -3.755   1.374  -0.767  0.00  0.00    +0.472 C 
ATOM     14  F   UNL     1      -3.876   2.764  -0.666  0.00  0.00    -0.162 F 
ATOM     15  F   UNL     1      -3.442   1.029  -2.086  0.00  0.00    -0.162 F 
ATOM     16  F   UNL     1      -4.964   0.772  -0.401  0.00  0.00    -0.162 F 
ENDBRANCH  11  13
ENDBRANCH   4  11
BRANCH   6  17
ATOM     17  N   UNL     1      -2.512  -3.129   0.935  0.00  0.00    -0.236 N 
ATOM     18  H   UNL     1      -2.967  -2.278   0.835  0.00  0.00    +0.174 HD
BRANCH  17  19
ATOM     19  C   UNL     1      -3.214  -4.247   1.386  0.00  0.00    +0.067 A 
ATOM     20  C   UNL     1      -2.562  -5.465   1.536  0.00  0.00    +0.027 A 
ATOM     21  C   UNL     1      -3.259  -6.570   1.982  0.00  0.00    +0.022 A 
ATOM     22  C   UNL     1      -4.607  -6.466   2.281  0.00  0.00    +0.042 A 
ATOM     23  C   UNL     1      -5.260  -5.255   2.133  0.00  0.00    +0.042 A 
ATOM     24  C   UNL     1      -4.567  -4.144   1.693  0.00  0.00    +0.065 A 
ATOM     25 CL   UNL     1      -5.385  -2.623   1.515  0.00  0.00    -0.082 Cl
ATOM     26 CL   UNL     1      -5.480  -7.858   2.842  0.00  0.00    -0.083 Cl
ENDBRANCH  17  19
ENDBRANCH   6  17
TORSDOF 4
