REMARK  Name = ZINC21252256
REMARK  14 active torsions:
REMARK  status: ('A' for Active; 'I' for Inactive)
REMARK    1  A    between atoms: C_1  and  C_2
REMARK    2  A    between atoms: C_2  and  C_3
REMARK    3  A    between atoms: C_2  and  O_4
REMARK    4  A    between atoms: O_4  and  C_5
REMARK    5  A    between atoms: C_8  and  C_13
REMARK    6  A    between atoms: C_10  and  O_11
REMARK    7  A    between atoms: O_11  and  C_12
REMARK    8  A    between atoms: C_18  and  C_24
REMARK    9  A    between atoms: C_27  and  O_34
REMARK   10  A    between atoms: C_28  and  O_32
REMARK   11  A    between atoms: C_29  and  O_30
REMARK   12  A    between atoms: O_30  and  C_31
REMARK   13  A    between atoms: O_32  and  C_33
REMARK   14  A    between atoms: O_34  and  C_35
REMARK                            x       y       z     vdW  Elec       q    Type
REMARK                         _______ _______ _______ _____ _____    ______ ____
ROOT
ATOM      1  C   UNL     1      -2.050   2.869   0.959  0.00  0.00    +0.032 C 
ATOM      2  C   UNL     1      -1.921   1.514   0.255  0.00  0.00    +0.059 C 
ATOM      3  C   UNL     1      -0.473   1.092   0.237  0.00  0.00    +0.018 C 
ATOM      4  C   UNL     1       0.514   2.010   0.186  0.00  0.00    +0.020 C 
ATOM      5  C   UNL     1       1.957   1.563   0.156  0.00  0.00    +0.066 C 
ATOM      6  C   UNL     1       2.069   0.260  -0.637  0.00  0.00    +0.109 C 
ATOM      7  C   UNL     1       1.017  -0.704  -0.151  0.00  0.00    +0.218 C 
ATOM      8  O   UNL     1       1.248  -1.894  -0.138  0.00  0.00    -0.275 OA
ATOM      9  N   UNL     1      -0.176  -0.247   0.266  0.00  0.00    -0.289 N 
ATOM     10  C   UNL     1       0.233   3.386   0.165  0.00  0.00    +0.162 C 
ATOM     11  O   UNL     1       1.148   4.183   0.108  0.00  0.00    -0.292 OA
ATOM     12  C   UNL     1      -1.185   3.889   0.213  0.00  0.00    +0.088 C 
ATOM     13  H   UNL     1      -0.921  -0.968   0.635  0.00  0.00    +0.155 HD
ENDROOT
BRANCH   1  17
ATOM     14  C   UNL     1      -6.136   4.132   0.891  0.00  0.00    +0.162 A 
ATOM     15  C   UNL     1      -5.462   3.892  -0.295  0.00  0.00    +0.050 A 
ATOM     16  C   UNL     1      -4.141   3.483  -0.270  0.00  0.00    +0.008 A 
ATOM     17  C   UNL     1      -3.490   3.314   0.937  0.00  0.00    -0.040 A 
ATOM     18  C   UNL     1      -4.158   3.547   2.125  0.00  0.00    +0.053 A 
ATOM     19  C   UNL     1      -5.480   3.961   2.107  0.00  0.00    +0.162 A 
BRANCH  19  20
ATOM     20  O   UNL     1      -6.137   4.195   3.274  0.00  0.00    -0.491 OA
ATOM     21  C   UNL     1      -5.401   3.999   4.483  0.00  0.00    +0.277 C 
ENDBRANCH  19  20
BRANCH  14  22
ATOM     22  O   UNL     1      -7.435   4.533   0.868  0.00  0.00    -0.486 OA
BRANCH  22  24
ATOM     23  C   UNL     1      -9.540   4.637  -0.314  0.00  0.00    +0.051 C 
ATOM     24  C   UNL     1      -8.019   4.767  -0.415  0.00  0.00    +0.167 C 
ATOM     25  C   UNL     1      -7.658   6.176  -0.890  0.00  0.00    +0.051 C 
ENDBRANCH  22  24
ENDBRANCH  14  22
ENDBRANCH   1  17
BRANCH   5  26
ATOM     26  C   UNL     1       2.445   1.339   1.564  0.00  0.00    +0.006 A 
ATOM     27  C   UNL     1       1.735   0.513   2.416  0.00  0.00    +0.011 A 
ATOM     28  C   UNL     1       2.178   0.303   3.709  0.00  0.00    +0.050 A 
ATOM     29  C   UNL     1       3.337   0.921   4.156  0.00  0.00    +0.165 A 
ATOM     30  C   UNL     1       4.052   1.752   3.302  0.00  0.00    +0.204 A 
ATOM     31  C   UNL     1       3.607   1.956   2.001  0.00  0.00    +0.169 A 
BRANCH  31  32
ATOM     32  O   UNL     1       4.307   2.763   1.160  0.00  0.00    -0.491 OA
ATOM     33  C   UNL     1       4.067   4.168   1.260  0.00  0.00    +0.277 C 
ENDBRANCH  31  32
BRANCH  30  34
ATOM     34  O   UNL     1       5.190   2.360   3.737  0.00  0.00    -0.488 OA
ATOM     35  C   UNL     1       6.417   1.652   3.547  0.00  0.00    +0.277 C 
ENDBRANCH  30  34
BRANCH  29  36
ATOM     36  O   UNL     1       3.771   0.714   5.428  0.00  0.00    -0.491 OA
ATOM     37  C   UNL     1       2.985  -0.151   6.249  0.00  0.00    +0.277 C 
ENDBRANCH  29  36
ENDBRANCH   5  26
TORSDOF 8
