REMARK  Name = ZINC63633167
REMARK  9 active torsions:
REMARK  status: ('A' for Active; 'I' for Inactive)
REMARK    1  A    between atoms: C_1  and  C_2
REMARK    2  A    between atoms: C_2  and  C_3
REMARK    3  A    between atoms: C_8  and  C_12
REMARK    4  A    between atoms: C_8  and  C_13
REMARK    5  A    between atoms: N_21  and  C_22
REMARK    6  A    between atoms: C_22  and  C_23
REMARK    7  A    between atoms: N_25  and  C_26
REMARK    8  A    between atoms: C_26  and  C_27
REMARK    9  A    between atoms: C_27  and  C_28
REMARK                            x       y       z     vdW  Elec       q    Type
REMARK                         _______ _______ _______ _____ _____    ______ ____
ROOT
ATOM      1  C   UNL     1      -1.433  -0.534   0.013  0.00  0.00    +0.109 C 
ATOM      2  C   UNL     1      -1.393  -2.031  -0.179  0.00  0.00    +0.032 C 
ATOM      3  C   UNL     1      -1.681  -2.954   0.754  0.00  0.00    +0.017 C 
ATOM      4  C   UNL     1      -1.573  -4.435   0.430  0.00  0.00    +0.058 C 
ATOM      5  C   UNL     1      -1.922  -4.675  -1.037  0.00  0.00    -0.023 C 
ATOM      6  C   UNL     1      -0.932  -3.871  -1.889  0.00  0.00    +0.086 C 
ATOM      7  C   UNL     1      -1.013  -2.430  -1.483  0.00  0.00    +0.163 C 
ATOM      8  O   UNL     1      -0.743  -1.574  -2.302  0.00  0.00    -0.292 OA
ATOM      9  C   UNL     1      -1.796  -6.164  -1.364  0.00  0.00    +0.011 C 
ATOM     10  C   UNL     1      -3.350  -4.200  -1.315  0.00  0.00    +0.011 C 
ATOM     11  N   UNL     1      -2.075  -2.678   2.023  0.00  0.00    -0.316 N 
ATOM     12  C   UNL     1      -1.463  -1.751   2.859  0.00  0.00    +0.052 A 
ATOM     13  C   UNL     1      -0.820  -2.120   4.028  0.00  0.00    +0.025 A 
ATOM     14  C   UNL     1      -0.271  -1.141   4.838  0.00  0.00    +0.002 A 
ATOM     15  C   UNL     1      -0.366   0.193   4.484  0.00  0.00    +0.002 A 
ATOM     16  C   UNL     1      -0.995   0.561   3.307  0.00  0.00    +0.025 A 
ATOM     17  C   UNL     1      -1.527  -0.418   2.484  0.00  0.00    +0.052 A 
ATOM     18  N   UNL     1      -2.071  -0.107   1.241  0.00  0.00    -0.312 N 
ATOM     19  H   UNL     1      -2.838  -3.164   2.372  0.00  0.00    +0.152 HD
ENDROOT
BRANCH   1  21
ATOM     20  C   UNL     1      -0.019   1.526   0.010  0.00  0.00    +0.006 C 
ATOM     21  C   UNL     1       0.002  -0.004   0.002  0.00  0.00    +0.024 C 
ENDBRANCH   1  21
BRANCH  18  22
ATOM     22  C   UNL     1      -3.311   0.671   1.176  0.00  0.00    +0.201 C 
BRANCH  22  23
ATOM     23  C   UNL     1      -4.492  -0.266   1.179  0.00  0.00    +0.230 C 
ATOM     24  O   UNL     1      -4.315  -1.464   1.230  0.00  0.00    -0.274 OA
ATOM     25  N   UNL     1      -5.744   0.229   1.124  0.00  0.00    -0.314 N 
ATOM     26  H   UNL     1      -5.885   1.188   1.083  0.00  0.00    +0.149 HD
BRANCH  25  27
ATOM     27  C   UNL     1      -6.892  -0.681   1.127  0.00  0.00    +0.108 C 
BRANCH  27  28
ATOM     28  C   UNL     1      -8.187   0.132   1.060  0.00  0.00    +0.052 C 
BRANCH  28  29
ATOM     29  C   UNL     1      -9.368  -0.804   1.063  0.00  0.00    -0.040 C 
ATOM     30  C   UNL     1     -10.097  -1.190   2.135  0.00  0.00    -0.001 A 
ATOM     31  C   UNL     1     -10.012  -0.866   3.564  0.00  0.00    +0.010 A 
ATOM     32  C   UNL     1     -10.903  -1.421   4.416  0.00  0.00    +0.001 A 
ATOM     33  C   UNL     1     -11.904  -2.295   3.970  0.00  0.00    +0.002 A 
ATOM     34  C   UNL     1     -12.046  -2.640   2.673  0.00  0.00    +0.026 A 
ATOM     35  C   UNL     1     -11.163  -2.115   1.689  0.00  0.00    +0.043 A 
ATOM     36  N   UNL     1     -11.096  -2.295   0.392  0.00  0.00    -0.380 N 
ATOM     37  C   UNL     1      -9.982  -1.498  -0.133  0.00  0.00    +0.144 C 
ATOM     38  H   UNL     1     -11.687  -2.857  -0.133  0.00  0.00    +0.160 HD
ENDBRANCH  28  29
ENDBRANCH  27  28
ENDBRANCH  25  27
ENDBRANCH  22  23
ENDBRANCH  18  22
TORSDOF 6
