REMARK  Name = ZINC36435372
REMARK  11 active torsions:
REMARK  status: ('A' for Active; 'I' for Inactive)
REMARK    1  A    between atoms: C_1  and  C_2
REMARK    2  A    between atoms: N_4  and  S_9
REMARK    3  A    between atoms: C_6  and  C_8
REMARK    4  A    between atoms: S_9  and  C_12
REMARK    5  A    between atoms: C_15  and  N_18
REMARK    6  A    between atoms: C_19  and  C_21
REMARK    7  A    between atoms: C_21  and  N_22
REMARK    8  A    between atoms: N_22  and  C_23
REMARK    9  A    between atoms: N_22  and  C_24
REMARK   10  A    between atoms: C_24  and  C_25
REMARK   11  A    between atoms: C_24  and  C_26
REMARK                            x       y       z     vdW  Elec       q    Type
REMARK                         _______ _______ _______ _____ _____    ______ ____
ROOT
ATOM      1  C   UNL     1      -1.171  -3.412  -2.160  0.00  0.00    +0.106 A 
ATOM      2  C   UNL     1      -1.275  -2.728  -3.358  0.00  0.00    +0.030 A 
ATOM      3  C   UNL     1      -0.434  -3.039  -4.408  0.00  0.00    +0.025 A 
ATOM      4  C   UNL     1       0.517  -4.040  -4.260  0.00  0.00    +0.033 A 
ATOM      5  C   UNL     1       0.620  -4.724  -3.056  0.00  0.00    +0.025 A 
ATOM      6  C   UNL     1      -0.221  -4.405  -2.008  0.00  0.00    +0.030 A 
ENDROOT
BRANCH   4   7
ATOM      7  N   UNL     1       1.371  -4.358  -5.322  0.00  0.00    -0.287 N 
ATOM      8  C   UNL     1       1.777  -3.394  -6.173  0.00  0.00    +0.201 C 
ATOM      9  O   UNL     1       1.481  -2.237  -5.963  0.00  0.00    -0.278 OA
ATOM     10  H   UNL     1       1.670  -5.272  -5.447  0.00  0.00    +0.155 HD
BRANCH   8  11
ATOM     11  C   UNL     1       2.598  -3.755  -7.384  0.00  0.00    +0.019 C 
BRANCH  11  12
ATOM     12  N   UNL     1       2.910  -2.538  -8.144  0.00  0.00    +0.388 N 
ATOM     13  C   UNL     1       3.772  -1.664  -7.336  0.00  0.00    -0.095 C 
ATOM     14  H   UNL     1       2.055  -2.052  -8.368  0.00  0.00    -0.081 HD
BRANCH  12  15
ATOM     15  C   UNL     1       3.607  -2.900  -9.385  0.00  0.00    -0.034 C 
ATOM     16  C   UNL     1       3.933  -1.632 -10.177  0.00  0.00    -0.008 C 
BRANCH  15  17
ATOM     17  C   UNL     1       2.723  -3.797 -10.214  0.00  0.00    -0.024 A 
ATOM     18  C   UNL     1       3.058  -4.892 -10.938  0.00  0.00    +0.009 A 
ATOM     19  C   UNL     1       2.068  -5.568 -11.628  0.00  0.00    +0.008 A 
ATOM     20  C   UNL     1       0.793  -5.115 -11.559  0.00  0.00    +0.045 A 
ATOM     21  S   UNL     1       0.962  -3.695 -10.489  0.00  0.00    -0.103 S 
ENDBRANCH  15  17
ENDBRANCH  12  15
ENDBRANCH  11  12
ENDBRANCH   8  11
ENDBRANCH   4   7
BRANCH   1  22
ATOM     22  S   UNL     1      -2.246  -3.011  -0.823  0.00  0.00    +0.061 S 
ATOM     23  O   UNL     1      -2.307  -4.162   0.008  0.00  0.00    -0.153 OA
ATOM     24  O   UNL     1      -3.406  -2.424  -1.396  0.00  0.00    -0.153 OA
BRANCH  22  28
ATOM     25  C   UNL     1      -0.549   1.794  -0.480  0.00  0.00    +0.039 C 
ATOM     26  C   UNL     1      -0.355   0.282  -0.355  0.00  0.00    +0.131 C 
ATOM     27  C   UNL     1      -1.722  -0.403  -0.242  0.00  0.00    +0.140 C 
ATOM     28  N   UNL     1      -1.504  -1.826   0.064  0.00  0.00    -0.172 NA
ATOM     29  C   UNL     1      -0.608  -2.164   1.181  0.00  0.00    +0.140 C 
ATOM     30  C   UNL     1       0.704  -1.393   0.999  0.00  0.00    +0.131 C 
ATOM     31  O   UNL     1       0.414  -0.006   0.815  0.00  0.00    -0.371 OA
ATOM     32  C   UNL     1       1.444  -1.927  -0.230  0.00  0.00    +0.039 C 
ENDBRANCH  22  28
ENDBRANCH   1  22
TORSDOF 7
