REMARK  Name = ZINC30825645
REMARK  7 active torsions:
REMARK  status: ('A' for Active; 'I' for Inactive)
REMARK    1  A    between atoms: C_3  and  C_11
REMARK    2  A    between atoms: C_11  and  N_12
REMARK    3  A    between atoms: N_12  and  C_13
REMARK    4  A    between atoms: N_12  and  C_24
REMARK    5  A    between atoms: C_13  and  C_14
REMARK    6  A    between atoms: C_24  and  N_26
REMARK    7  A    between atoms: C_27  and  C_29
REMARK                            x       y       z     vdW  Elec       q    Type
REMARK                         _______ _______ _______ _____ _____    ______ ____
ROOT
ATOM      1  N   UNL     1      -2.982  -0.431   1.308  0.00  0.00    -0.304 N 
ENDROOT
BRANCH   1   2
ATOM      2  C   UNL     1      -1.973  -1.296   1.535  0.00  0.00    +0.140 C 
ATOM      3  S   UNL     1      -1.870  -2.116   3.034  0.00  0.00    -0.018 S 
BRANCH   2   4
ATOM      4  N   UNL     1      -1.045  -1.514   0.582  0.00  0.00    -0.264 N 
ATOM      5  C   UNL     1      -0.103  -2.461   0.763  0.00  0.00    +0.250 C 
ATOM      6  O   UNL     1      -0.134  -3.167   1.752  0.00  0.00    -0.270 OA
ATOM      7  H   UNL     1      -1.056  -0.918  -0.343  0.00  0.00    +0.157 HD
BRANCH   5   8
ATOM      8  C   UNL     1       0.965  -2.641  -0.241  0.00  0.00    +0.037 A 
ATOM      9  C   UNL     1       1.042  -1.788  -1.344  0.00  0.00    +0.014 A 
ATOM     10  C   UNL     1       2.046  -1.958  -2.274  0.00  0.00    +0.021 A 
ATOM     11  C   UNL     1       2.969  -2.979  -2.123  0.00  0.00    +0.041 A 
ATOM     12  C   UNL     1       2.895  -3.832  -1.034  0.00  0.00    +0.021 A 
ATOM     13  C   UNL     1       1.899  -3.669  -0.093  0.00  0.00    +0.014 A 
ATOM     14 CL   UNL     1       4.225  -3.191  -3.302  0.00  0.00    -0.084 Cl
ENDBRANCH   5   8
ENDBRANCH   2   4
ENDBRANCH   1   2
BRANCH   1  15
ATOM     15  C   UNL     1      -2.996   0.372   0.083  0.00  0.00    +0.143 C 
BRANCH  15  18
ATOM     16  C   UNL     1      -2.816   4.055   0.887  0.00  0.00    +0.002 A 
ATOM     17  C   UNL     1      -3.307   2.786   0.615  0.00  0.00    +0.006 A 
ATOM     18  C   UNL     1      -2.452   1.746   0.377  0.00  0.00    -0.021 A 
ATOM     19  C   UNL     1      -1.073   1.964   0.401  0.00  0.00    +0.004 A 
ATOM     20  C   UNL     1       0.097   1.105   0.205  0.00  0.00    +0.028 A 
ATOM     21  C   UNL     1       1.183   1.878   0.361  0.00  0.00    +0.083 A 
ATOM     22  N   UNL     1       0.804   3.162   0.646  0.00  0.00    -0.361 N 
ATOM     23  H   UNL     1       1.567   3.938   0.806  0.00  0.00    +0.165 HD
ATOM     24  C   UNL     1      -0.570   3.248   0.682  0.00  0.00    +0.047 A 
ATOM     25  C   UNL     1      -1.459   4.291   0.921  0.00  0.00    +0.026 A 
ENDBRANCH  15  18
ENDBRANCH   1  15
BRANCH   1  26
ATOM     26  C   UNL     1      -4.064  -0.295   2.285  0.00  0.00    +0.143 C 
BRANCH  26  27
ATOM     27  C   UNL     1      -5.290  -1.010   1.780  0.00  0.00    -0.021 A 
ATOM     28  C   UNL     1      -6.276  -0.312   1.139  0.00  0.00    +0.006 A 
ATOM     29  C   UNL     1      -7.409  -0.962   0.671  0.00  0.00    +0.002 A 
ATOM     30  C   UNL     1      -7.561  -2.321   0.841  0.00  0.00    +0.026 A 
ATOM     31  C   UNL     1      -6.571  -3.051   1.490  0.00  0.00    +0.047 A 
ATOM     32  C   UNL     1      -5.422  -2.389   1.958  0.00  0.00    +0.004 A 
ATOM     33  C   UNL     1      -4.589  -3.418   2.586  0.00  0.00    +0.028 A 
ATOM     34  C   UNL     1      -5.244  -4.583   2.461  0.00  0.00    +0.083 A 
ATOM     35  N   UNL     1      -6.430  -4.383   1.808  0.00  0.00    -0.361 N 
ATOM     36  H   UNL     1      -7.217  -5.101   1.532  0.00  0.00    +0.165 HD
ENDBRANCH  26  27
ENDBRANCH   1  26
TORSDOF 7
