REMARK  Name = ZINC00649802
REMARK  5 active torsions:
REMARK  status: ('A' for Active; 'I' for Inactive)
REMARK    1  A    between atoms: C_3  and  O_9
REMARK    2  A    between atoms: O_9  and  C_10
REMARK    3  A    between atoms: C_10  and  C_11
REMARK    4  A    between atoms: N_13  and  N_14
REMARK    5  A    between atoms: C_15  and  C_17
REMARK                            x       y       z     vdW  Elec       q    Type
REMARK                         _______ _______ _______ _____ _____    ______ ____
ROOT
ATOM      1  N   UNL     1       1.234  -4.944  -0.036  0.00  0.00    -0.230 N 
ATOM      2  C   UNL     1       0.071  -4.263  -0.022  0.00  0.00    +0.267 C 
ATOM      3  O   UNL     1      -0.986  -4.864  -0.016  0.00  0.00    -0.268 OA
ATOM      4  H   UNL     1       2.077  -4.464  -0.041  0.00  0.00    +0.173 HD
ENDROOT
BRANCH   2   5
ATOM      5  C   UNL     1       0.080  -2.790  -0.014  0.00  0.00    +0.123 A 
ATOM      6  C   UNL     1       1.276  -2.093  -0.021  0.00  0.00    +0.031 A 
ATOM      7  C   UNL     1       1.238  -0.675  -0.013  0.00  0.00    +0.019 A 
ATOM      8  C   UNL     1       2.431   0.062  -0.021  0.00  0.00    +0.026 A 
ATOM      9  C   UNL     1       2.387   1.427  -0.013  0.00  0.00    +0.019 A 
ATOM     10  C   UNL     1       1.167   2.092   0.002  0.00  0.00    +0.019 A 
ATOM     11  C   UNL     1      -0.017   1.387   0.010  0.00  0.00    +0.048 A 
ATOM     12  C   UNL     1       0.002  -0.004   0.002  0.00  0.00    +0.139 A 
ATOM     13  O   UNL     1      -1.160  -0.692   0.009  0.00  0.00    -0.422 OA
ATOM     14  C   UNL     1      -1.178  -2.036   0.002  0.00  0.00    +0.350 A 
ATOM     15  O   UNL     1      -2.241  -2.628   0.009  0.00  0.00    -0.244 OA
ATOM     16 BR   UNL     1       3.997   2.419  -0.023  0.00  0.00    -0.050 Br
ENDBRANCH   2   5
BRANCH   1  19
ATOM     17  C   UNL     1       2.389  -7.026  -0.058  0.00  0.00    +0.267 C 
ATOM     18  O   UNL     1       3.443  -6.426  -0.064  0.00  0.00    -0.271 OA
ATOM     19  N   UNL     1       1.226  -6.345  -0.044  0.00  0.00    -0.231 N 
ATOM     20  H   UNL     1       0.383  -6.824  -0.039  0.00  0.00    +0.173 HD
BRANCH  17  21
ATOM     21  C   UNL     1       2.380  -8.532  -0.067  0.00  0.00    +0.326 C 
BRANCH  21  22
ATOM     22  O   UNL     1       3.724  -9.017  -0.081  0.00  0.00    -0.481 OA
BRANCH  22  25
ATOM     23  C   UNL     1       2.964 -12.575  -0.095  0.00  0.00    +0.023 A 
ATOM     24  C   UNL     1       2.790 -11.204  -0.085  0.00  0.00    +0.048 A 
ATOM     25  C   UNL     1       3.894 -10.366  -0.090  0.00  0.00    +0.140 A 
ATOM     26  C   UNL     1       5.173 -10.905  -0.111  0.00  0.00    +0.084 A 
ATOM     27  C   UNL     1       5.343 -12.277  -0.115  0.00  0.00    +0.043 A 
ATOM     28  C   UNL     1       4.239 -13.111  -0.110  0.00  0.00    +0.043 A 
ATOM     29 CL   UNL     1       4.455 -14.834  -0.122  0.00  0.00    -0.083 Cl
ATOM     30 CL   UNL     1       6.557  -9.858  -0.124  0.00  0.00    -0.080 Cl
ENDBRANCH  22  25
ENDBRANCH  21  22
ENDBRANCH  17  21
ENDBRANCH   1  19
TORSDOF 5
