REMARK  Name = ZINC40364978
REMARK  6 active torsions:
REMARK  status: ('A' for Active; 'I' for Inactive)
REMARK    1  A    between atoms: C_2  and  S_8
REMARK    2  A    between atoms: S_8  and  N_11
REMARK    3  A    between atoms: N_11  and  C_12
REMARK    4  A    between atoms: C_12  and  C_14
REMARK    5  A    between atoms: C_12  and  C_20
REMARK    6  A    between atoms: C_20  and  N_22
REMARK                            x       y       z     vdW  Elec       q    Type
REMARK                         _______ _______ _______ _____ _____    ______ ____
ROOT
ATOM      1  N   UNL     1       1.859   4.124   1.217  0.00  0.00    -0.180 NA
ATOM      2  H   UNL     1       1.058   4.182   1.762  0.00  0.00    +0.149 HD
ENDROOT
BRANCH   1   3
ATOM      3  S   UNL     1       1.737   4.101  -0.434  0.00  0.00    +0.061 S 
ATOM      4  O   UNL     1       2.582   5.136  -0.918  0.00  0.00    -0.153 OA
ATOM      5  O   UNL     1       0.350   4.046  -0.739  0.00  0.00    -0.153 OA
BRANCH   3   7
ATOM      6  C   UNL     1       3.554   2.576  -1.799  0.00  0.00    +0.057 A 
ATOM      7  C   UNL     1       2.435   2.581  -0.987  0.00  0.00    +0.132 A 
ATOM      8  C   UNL     1       1.882   1.397  -0.623  0.00  0.00    +0.106 A 
ATOM      9  S   UNL     1       2.954   0.223  -1.436  0.00  0.00    -0.063 S 
ATOM     10  C   UNL     1       4.066   1.388  -2.206  0.00  0.00    +0.081 A 
ATOM     11 CL   UNL     1       5.444   1.080  -3.216  0.00  0.00    -0.076 Cl
ATOM     12 CL   UNL     1       0.494   1.100   0.375  0.00  0.00    -0.074 Cl
ENDBRANCH   3   7
ENDBRANCH   1   3
BRANCH   1  13
ATOM     13  C   UNL     1       3.176   4.057   1.855  0.00  0.00    +0.131 C 
BRANCH  13  14
ATOM     14  C   UNL     1       3.315   5.204   2.858  0.00  0.00    +0.014 C 
ATOM     15  C   UNL     1       2.157   5.151   3.857  0.00  0.00    +0.005 C 
ATOM     16  C   UNL     1       2.297   6.298   4.861  0.00  0.00    +0.000 C 
ATOM     17  C   UNL     1       2.268   7.634   4.116  0.00  0.00    +0.000 C 
ATOM     18  C   UNL     1       3.425   7.686   3.117  0.00  0.00    +0.000 C 
ATOM     19  C   UNL     1       3.286   6.540   2.114  0.00  0.00    +0.005 C 
ENDBRANCH  13  14
BRANCH  13  20
ATOM     20  C   UNL     1       3.319   2.740   2.574  0.00  0.00    +0.065 C 
ATOM     21  S   UNL     1       2.060   1.764   2.713  0.00  0.00    -0.039 S 
BRANCH  20  22
ATOM     22  N   UNL     1       4.508   2.386   3.100  0.00  0.00    -0.354 N 
ATOM     23  H   UNL     1       5.253   3.007   3.078  0.00  0.00    +0.143 HD
ATOM     24  H   UNL     1       4.619   1.509   3.501  0.00  0.00    +0.143 HD
ENDBRANCH  20  22
ENDBRANCH  13  20
ENDBRANCH   1  13
TORSDOF 6
