REMARK  Name = ZINC45638193
REMARK  10 active torsions:
REMARK  status: ('A' for Active; 'I' for Inactive)
REMARK    1  A    between atoms: C_1  and  C_2
REMARK    2  A    between atoms: C_3  and  C_8
REMARK    3  A    between atoms: N_6  and  C_7
REMARK    4  A    between atoms: C_8  and  C_10
REMARK    5  A    between atoms: C_8  and  N_11
REMARK    6  A    between atoms: N_14  and  C_15
REMARK    7  A    between atoms: C_18  and  C_27
REMARK    8  A    between atoms: C_22  and  C_24
REMARK    9  A    between atoms: C_24  and  C_25
REMARK   10  A    between atoms: C_24  and  C_26
REMARK                            x       y       z     vdW  Elec       q    Type
REMARK                         _______ _______ _______ _____ _____    ______ ____
ROOT
ATOM      1  N   UNL     1      -0.208  -1.034  -3.727  0.00  0.00    -0.293 N 
ATOM      2  C   UNL     1       0.579  -0.895  -4.812  0.00  0.00    +0.300 C 
ATOM      3  O   UNL     1       0.764   0.207  -5.293  0.00  0.00    -0.253 OA
ATOM      4  N   UNL     1       1.161  -1.978  -5.365  0.00  0.00    -0.296 N 
ATOM      5  H   UNL     1      -0.355  -1.912  -3.344  0.00  0.00    +0.151 HD
ATOM      6  H   UNL     1       1.014  -2.856  -4.982  0.00  0.00    +0.151 HD
ENDROOT
BRANCH   4   7
ATOM      7  C   UNL     1       2.016  -1.827  -6.545  0.00  0.00    +0.078 C 
ATOM      8  C   UNL     1       3.446  -1.510  -6.102  0.00  0.00    +0.026 C 
ATOM      9  C   UNL     1       4.339  -1.353  -7.334  0.00  0.00    -0.012 C 
ATOM     10  C   UNL     1       4.332  -2.654  -8.139  0.00  0.00    +0.004 C 
ATOM     11  C   UNL     1       2.902  -2.971  -8.582  0.00  0.00    +0.006 C 
ATOM     12  C   UNL     1       2.009  -3.128  -7.350  0.00  0.00    +0.012 C 
ATOM     13  C   UNL     1       3.811  -0.211  -8.205  0.00  0.00    +0.007 C 
BRANCH  12  14
ATOM     14  C   UNL     1       0.579  -3.445  -7.794  0.00  0.00    -0.012 C 
ATOM     15  C   UNL     1       0.100  -2.372  -8.773  0.00  0.00    +0.007 C 
ATOM     16  C   UNL     1       0.549  -4.812  -8.480  0.00  0.00    +0.007 C 
ENDBRANCH  12  14
ENDBRANCH   4   7
BRANCH   1  17
ATOM     17  C   UNL     1      -0.841   0.143  -3.126  0.00  0.00    +0.105 C 
ATOM     18  C   UNL     1      -2.151   0.446  -3.856  0.00  0.00    +0.033 C 
BRANCH  17  21
ATOM     19  C   UNL     1      -1.340   2.298  -0.914  0.00  0.00    +0.065 C 
ATOM     20  C   UNL     1      -1.343   0.804  -0.715  0.00  0.00    +0.041 A 
ATOM     21  C   UNL     1      -1.127  -0.128  -1.672  0.00  0.00    +0.013 A 
ATOM     22  C   UNL     1      -1.217  -1.389  -1.072  0.00  0.00    +0.140 A 
ATOM     23  N   UNL     1      -1.477  -1.219   0.199  0.00  0.00    -0.179 NA
ATOM     24  N   UNL     1      -1.557   0.157   0.450  0.00  0.00    -0.271 N 
ATOM     25  C   UNL     1      -1.827   0.783   1.746  0.00  0.00    +0.172 C 
ENDBRANCH  17  21
ENDBRANCH   1  17
TORSDOF 4
