REMARK  Name = ZINC12923091
REMARK  10 active torsions:
REMARK  status: ('A' for Active; 'I' for Inactive)
REMARK    1  A    between atoms: C_1  and  C_2
REMARK    2  A    between atoms: C_7  and  C_9
REMARK    3  A    between atoms: C_7  and  C_26
REMARK    4  A    between atoms: C_7  and  N_62
REMARK    5  A    between atoms: C_9  and  N_10
REMARK    6  A    between atoms: N_13  and  C_14
REMARK    7  A    between atoms: N_13  and  C_15
REMARK    8  A    between atoms: C_15  and  C_16
REMARK    9  A    between atoms: C_19  and  C_22
REMARK   10  A    between atoms: N_24  and  C_25
REMARK                            x       y       z     vdW  Elec       q    Type
REMARK                         _______ _______ _______ _____ _____    ______ ____
ROOT
ATOM      1  N   UNL     1      -2.443   1.067  -2.747  0.00  0.00    -0.300 N 
ATOM      2  C   UNL     1      -1.825   0.489  -1.698  0.00  0.00    +0.302 C 
ATOM      3  O   UNL     1      -2.116  -0.645  -1.371  0.00  0.00    -0.253 OA
ATOM      4  N   UNL     1      -0.886   1.169  -1.011  0.00  0.00    -0.284 N 
ATOM      5  C   UNL     1      -0.536   2.536  -1.405  0.00  0.00    +0.134 C 
ATOM      6  H   UNL     1      -2.211   1.972  -3.008  0.00  0.00    +0.150 HD
ENDROOT
BRANCH   1   7
ATOM      7  C   UNL     1      -3.464   0.328  -3.494  0.00  0.00    +0.095 C 
BRANCH   7   8
ATOM      8  C   UNL     1      -4.002   1.204  -4.627  0.00  0.00    -0.013 C 
BRANCH   8  15
ATOM      9  C   UNL     1      -0.005   2.403  -8.533  0.00  0.00    +0.007 C 
ATOM     10  C   UNL     1      -1.218   1.808  -7.816  0.00  0.00    -0.018 C 
ATOM     11  C   UNL     1      -2.193   2.929  -7.443  0.00  0.00    -0.015 C 
ATOM     12  C   UNL     1      -3.375   2.336  -6.673  0.00  0.00    -0.078 C 
ATOM     13  C   UNL     1      -1.984   0.555  -5.796  0.00  0.00    -0.078 C 
ATOM     14  C   UNL     1      -0.760   1.096  -6.540  0.00  0.00    -0.015 C 
ATOM     15  N   UNL     1      -2.870   1.686  -5.445  0.00  0.00    +0.386 N 
ATOM     16  H   UNL     1      -2.334   2.373  -4.901  0.00  0.00    -0.081 HD
ENDBRANCH   8  15
BRANCH   8  17
ATOM     17  C   UNL     1      -4.961   0.404  -5.469  0.00  0.00    -0.022 A 
ATOM     18  C   UNL     1      -6.311   0.496  -5.546  0.00  0.00    +0.009 A 
ATOM     19  C   UNL     1      -6.994  -0.351  -6.399  0.00  0.00    +0.008 A 
ATOM     20  C   UNL     1      -6.292  -1.249  -7.133  0.00  0.00    +0.045 A 
ATOM     21  S   UNL     1      -4.614  -0.906  -6.631  0.00  0.00    -0.103 S 
ENDBRANCH   8  17
ENDBRANCH   7   8
ENDBRANCH   1   7
BRANCH   4  22
ATOM     22  C   UNL     1      -0.215   0.541   0.130  0.00  0.00    +0.144 C 
BRANCH  22  23
ATOM     23  C   UNL     1      -0.988   0.833   1.391  0.00  0.00    -0.030 A 
ATOM     24  C   UNL     1      -0.689   1.960   2.136  0.00  0.00    +0.006 A 
ATOM     25  C   UNL     1      -1.396   2.235   3.288  0.00  0.00    +0.013 A 
ATOM     26  C   UNL     1      -2.407   1.369   3.707  0.00  0.00    +0.037 A 
ATOM     27  C   UNL     1      -2.700   0.232   2.953  0.00  0.00    +0.013 A 
ATOM     28  C   UNL     1      -1.989  -0.029   1.800  0.00  0.00    +0.006 A 
BRANCH  26  29
ATOM     29  C   UNL     1      -3.166   1.656   4.944  0.00  0.00    +0.244 C 
ATOM     30  O   UNL     1      -4.046   0.900   5.305  0.00  0.00    -0.270 OA
ATOM     31  N   UNL     1      -2.880   2.755   5.670  0.00  0.00    -0.314 N 
ATOM     32  C   UNL     1      -3.632   3.039   6.895  0.00  0.00    +0.128 C 
ATOM     33  H   UNL     1      -2.178   3.358   5.381  0.00  0.00    +0.149 HD
ENDBRANCH  26  29
ENDBRANCH  22  23
ENDBRANCH   4  22
TORSDOF 7
