REMARK  Name = ZINC63820436
REMARK  7 active torsions:
REMARK  status: ('A' for Active; 'I' for Inactive)
REMARK    1  A    between atoms: C_7  and  C_10
REMARK    2  A    between atoms: C_10  and  C_11
REMARK    3  A    between atoms: C_11  and  N_12
REMARK    4  A    between atoms: C_13  and  C_15
REMARK    5  A    between atoms: C_18  and  N_21
REMARK    6  A    between atoms: N_21  and  S_22
REMARK    7  A    between atoms: S_22  and  C_25
REMARK                            x       y       z     vdW  Elec       q    Type
REMARK                         _______ _______ _______ _____ _____    ______ ____
ROOT
ATOM      1  C   UNL     1      -1.676  -6.583  -2.681  0.00  0.00    +0.037 A 
ATOM      2  C   UNL     1      -2.139  -7.084  -1.461  0.00  0.00    +0.015 A 
ATOM      3  C   UNL     1      -3.017  -8.143  -1.442  0.00  0.00    +0.025 A 
ATOM      4  C   UNL     1      -3.445  -8.715  -2.637  0.00  0.00    +0.048 A 
ATOM      5  C   UNL     1      -2.986  -8.219  -3.854  0.00  0.00    +0.025 A 
ATOM      6  C   UNL     1      -2.112  -7.156  -3.879  0.00  0.00    +0.015 A 
ENDROOT
BRANCH   1   8
ATOM      7  N   UNL     1      -0.315  -4.896  -1.549  0.00  0.00    -0.311 N 
ATOM      8  C   UNL     1      -0.734  -5.448  -2.705  0.00  0.00    +0.244 C 
ATOM      9  O   UNL     1      -0.336  -5.010  -3.767  0.00  0.00    -0.270 OA
ATOM     10  H   UNL     1      -0.632  -5.245  -0.702  0.00  0.00    +0.149 HD
BRANCH   7  11
ATOM     11  C   UNL     1       0.621  -3.768  -1.573  0.00  0.00    +0.109 C 
BRANCH  11  12
ATOM     12  C   UNL     1       0.933  -3.335  -0.139  0.00  0.00    +0.052 C 
BRANCH  12  19
ATOM     13  C   UNL     1       0.315   1.209   0.019  0.00  0.00    +0.001 A 
ATOM     14  C   UNL     1       1.509   1.941  -0.031  0.00  0.00    +0.002 A 
ATOM     15  C   UNL     1       2.721   1.353  -0.117  0.00  0.00    +0.026 A 
ATOM     16  C   UNL     1       2.832  -0.064  -0.161  0.00  0.00    +0.043 A 
ATOM     17  N   UNL     1       3.873  -0.857  -0.243  0.00  0.00    -0.380 N 
ATOM     18  C   UNL     1       3.403  -2.246  -0.253  0.00  0.00    +0.144 C 
ATOM     19  C   UNL     1       1.895  -2.175  -0.163  0.00  0.00    -0.040 C 
ATOM     20  C   UNL     1       1.584  -0.860  -0.110  0.00  0.00    -0.001 A 
ATOM     21  C   UNL     1       0.307  -0.143  -0.016  0.00  0.00    +0.010 A 
ATOM     22  H   UNL     1       4.799  -0.572  -0.290  0.00  0.00    +0.160 HD
ENDBRANCH  12  19
ENDBRANCH  11  12
ENDBRANCH   7  11
ENDBRANCH   1   8
BRANCH   4  23
ATOM     23  N   UNL     1      -4.333  -9.785  -2.615  0.00  0.00    -0.216 N 
ATOM     24  H   UNL     1      -4.183 -10.527  -2.008  0.00  0.00    +0.174 HD
BRANCH  23  25
ATOM     25  S   UNL     1      -5.646  -9.793  -3.624  0.00  0.00    +0.072 S 
ATOM     26  O   UNL     1      -5.152  -9.555  -4.935  0.00  0.00    -0.150 OA
ATOM     27  O   UNL     1      -6.405 -10.948  -3.293  0.00  0.00    -0.150 OA
BRANCH  25  28
ATOM     28  C   UNL     1      -6.638  -8.400  -3.199  0.00  0.00    +0.112 A 
ATOM     29  C   UNL     1      -7.552  -8.494  -2.166  0.00  0.00    +0.032 A 
ATOM     30  C   UNL     1      -8.334  -7.404  -1.827  0.00  0.00    +0.051 A 
ATOM     31  C   UNL     1      -8.197  -6.217  -2.526  0.00  0.00    +0.162 A 
ATOM     32  C   UNL     1      -7.279  -6.123  -3.563  0.00  0.00    +0.164 A 
ATOM     33  C   UNL     1      -6.495  -7.214  -3.897  0.00  0.00    +0.078 A 
ATOM     34  O   UNL     1      -7.152  -4.948  -4.246  0.00  0.00    -0.488 OA
ATOM     35  C   UNL     1      -8.266  -4.573  -5.058  0.00  0.00    +0.232 C 
ATOM     36  C   UNL     1      -9.317  -3.849  -4.230  0.00  0.00    +0.082 C 
ATOM     37  C   UNL     1      -9.937  -4.745  -3.170  0.00  0.00    +0.232 C 
ATOM     38  O   UNL     1      -8.961  -5.134  -2.201  0.00  0.00    -0.488 OA
ENDBRANCH  25  28
ENDBRANCH  23  25
ENDBRANCH   4  23
TORSDOF 7
