REMARK  Name = ZINC39266327
REMARK  13 active torsions:
REMARK  status: ('A' for Active; 'I' for Inactive)
REMARK    1  A    between atoms: C_1  and  C_2
REMARK    2  A    between atoms: C_2  and  N_3
REMARK    3  A    between atoms: C_7  and  C_9
REMARK    4  A    between atoms: C_9  and  N_10
REMARK    5  A    between atoms: C_11  and  C_13
REMARK    6  A    between atoms: C_13  and  C_15
REMARK    7  A    between atoms: C_13  and  N_19
REMARK    8  A    between atoms: C_15  and  C_16
REMARK    9  A    between atoms: C_16  and  C_17
REMARK   10  A    between atoms: C_16  and  C_18
REMARK   11  A    between atoms: N_28  and  C_29
REMARK   12  A    between atoms: C_29  and  C_30
REMARK   13  A    between atoms: N_32  and  C_33
REMARK                            x       y       z     vdW  Elec       q    Type
REMARK                         _______ _______ _______ _____ _____    ______ ____
ROOT
ATOM      1  N   UNL     1      -4.569  -2.530   1.951  0.00  0.00    -0.291 N 
ATOM      2  C   UNL     1      -4.178  -2.200   3.327  0.00  0.00    +0.107 C 
ATOM      3  C   UNL     1      -5.404  -2.549   4.201  0.00  0.00    +0.016 C 
ATOM      4  C   UNL     1      -6.108  -3.610   3.337  0.00  0.00    +0.015 C 
ATOM      5  C   UNL     1      -5.653  -3.330   1.930  0.00  0.00    +0.206 C 
ATOM      6  O   UNL     1      -6.181  -3.762   0.927  0.00  0.00    -0.277 OA
ATOM      7  C   UNL     1      -7.633  -3.469   3.456  0.00  0.00    -0.005 C 
ATOM      8  C   UNL     1      -8.002  -4.576   4.481  0.00  0.00    -0.019 C 
ATOM      9  C   UNL     1      -6.982  -5.687   4.126  0.00  0.00    -0.077 C 
ATOM     10  N   UNL     1      -5.742  -4.963   3.768  0.00  0.00    +0.395 N 
ATOM     11  H   UNL     1      -5.133  -4.911   4.571  0.00  0.00    -0.080 HD
ENDROOT
BRANCH   1  12
ATOM     12  C   UNL     1      -3.876  -2.046   0.754  0.00  0.00    +0.162 C 
BRANCH  12  14
ATOM     13  N   UNL     1      -1.611  -2.192  -0.229  0.00  0.00    -0.315 N 
ATOM     14  C   UNL     1      -2.445  -2.519   0.778  0.00  0.00    +0.234 C 
ATOM     15  O   UNL     1      -2.045  -3.194   1.703  0.00  0.00    -0.274 OA
ATOM     16  H   UNL     1      -1.931  -1.653  -0.969  0.00  0.00    +0.149 HD
BRANCH  13  17
ATOM     17  C   UNL     1      -0.220  -2.652  -0.206  0.00  0.00    +0.089 C 
BRANCH  17  22
ATOM     18  N   UNL     1       1.951  -2.462  -1.347  0.00  0.00    +0.382 N 
ATOM     19  C   UNL     1       2.251  -3.237  -2.569  0.00  0.00    -0.078 C 
ATOM     20  C   UNL     1       1.202  -2.763  -3.606  0.00  0.00    -0.020 C 
ATOM     21  C   UNL     1      -0.054  -2.572  -2.715  0.00  0.00    -0.016 C 
ATOM     22  C   UNL     1       0.537  -2.046  -1.390  0.00  0.00    -0.051 C 
ATOM     23  H   UNL     1       2.544  -1.646  -1.310  0.00  0.00    -0.081 HD
BRANCH  18  25
ATOM     24  C   UNL     1       3.672  -3.642  -0.066  0.00  0.00    -0.017 C 
ATOM     25  C   UNL     1       2.185  -3.298  -0.161  0.00  0.00    -0.082 C 
ENDBRANCH  18  25
ENDBRANCH  17  22
ENDBRANCH  13  17
ENDBRANCH  12  14
BRANCH  12  26
ATOM     26  C   UNL     1      -3.907  -0.517   0.731  0.00  0.00    +0.035 C 
BRANCH  26  27
ATOM     27  C   UNL     1      -5.352  -0.038   0.581  0.00  0.00    -0.015 C 
ATOM     28  C   UNL     1      -5.397   1.488   0.682  0.00  0.00    +0.007 C 
ATOM     29  C   UNL     1      -5.896  -0.476  -0.780  0.00  0.00    +0.007 C 
ENDBRANCH  26  27
ENDBRANCH  12  26
ENDBRANCH   1  12
BRANCH  10  30
ATOM     30  C   UNL     1      -5.057  -5.664   2.673  0.00  0.00    +0.020 C 
BRANCH  30  31
ATOM     31  C   UNL     1      -4.574  -7.006   3.160  0.00  0.00    +0.201 C 
ATOM     32  O   UNL     1      -4.780  -7.345   4.306  0.00  0.00    -0.278 OA
ATOM     33  N   UNL     1      -3.914  -7.829   2.321  0.00  0.00    -0.287 N 
ATOM     34  H   UNL     1      -3.808  -7.588   1.388  0.00  0.00    +0.155 HD
BRANCH  33  35
ATOM     35  C   UNL     1      -3.380  -9.031   2.798  0.00  0.00    +0.034 A 
ATOM     36  C   UNL     1      -4.050  -9.750   3.780  0.00  0.00    +0.023 A 
ATOM     37  C   UNL     1      -3.519 -10.935   4.245  0.00  0.00    +0.006 A 
ATOM     38  C   UNL     1      -2.321 -11.412   3.738  0.00  0.00    -0.044 A 
ATOM     39  C   UNL     1      -1.652 -10.699   2.761  0.00  0.00    -0.042 A 
ATOM     40  C   UNL     1      -2.183  -9.512   2.287  0.00  0.00    +0.027 A 
ATOM     41  C   UNL     1      -0.379 -11.424   2.379  0.00  0.00    +0.036 C 
ATOM     42  C   UNL     1      -0.122 -12.422   3.528  0.00  0.00    +0.009 C 
ATOM     43  C   UNL     1      -1.543 -12.666   4.079  0.00  0.00    +0.036 C 
ENDBRANCH  33  35
ENDBRANCH  30  31
ENDBRANCH  10  30
TORSDOF 10
