REMARK  Name = ZINC64610806
REMARK  8 active torsions:
REMARK  status: ('A' for Active; 'I' for Inactive)
REMARK    1  A    between atoms: C_1  and  C_2
REMARK    2  A    between atoms: C_7  and  C_12
REMARK    3  A    between atoms: C_12  and  N_13
REMARK    4  A    between atoms: C_14  and  C_16
REMARK    5  A    between atoms: C_19  and  C_21
REMARK    6  A    between atoms: C_24  and  S_27
REMARK    7  A    between atoms: S_27  and  N_30
REMARK    8  A    between atoms: C_33  and  C_36
REMARK                            x       y       z     vdW  Elec       q    Type
REMARK                         _______ _______ _______ _____ _____    ______ ____
ROOT
ATOM      1  C   UNL     1       4.934  -4.032   1.390  0.00  0.00    +0.304 A 
ATOM      2  N   UNL     1       4.932  -2.872   0.772  0.00  0.00    -0.102 NA
ATOM      3  N   UNL     1       6.146  -2.496   0.569  0.00  0.00    -0.107 NA
ATOM      4  C   UNL     1       6.971  -3.404   1.052  0.00  0.00    +0.249 A 
ATOM      5  O   UNL     1       6.222  -4.387   1.584  0.00  0.00    -0.412 OA
ENDROOT
BRANCH   4   6
ATOM      6  C   UNL     1       8.446  -3.349   1.021  0.00  0.00    +0.039 A 
ATOM      7  C   UNL     1       9.199  -4.391   1.568  0.00  0.00    +0.015 A 
ATOM      8  C   UNL     1      10.576  -4.334   1.536  0.00  0.00    +0.029 A 
ATOM      9  C   UNL     1      11.213  -3.247   0.962  0.00  0.00    +0.106 A 
ATOM     10  C   UNL     1      10.474  -2.212   0.418  0.00  0.00    +0.029 A 
ATOM     11  C   UNL     1       9.096  -2.259   0.439  0.00  0.00    +0.015 A 
BRANCH   9  12
ATOM     12  S   UNL     1      12.974  -3.182   0.925  0.00  0.00    +0.061 S 
ATOM     13  O   UNL     1      13.327  -1.810   0.824  0.00  0.00    -0.153 OA
ATOM     14  O   UNL     1      13.433  -4.011   1.984  0.00  0.00    -0.153 OA
BRANCH  12  15
ATOM     15  N   UNL     1      13.461  -3.902  -0.485  0.00  0.00    -0.177 NA
ATOM     16  C   UNL     1      13.729  -5.345  -0.535  0.00  0.00    +0.110 C 
ATOM     17  C   UNL     1      15.135  -5.566  -1.102  0.00  0.00    +0.020 C 
ATOM     18  C   UNL     1      15.253  -4.858  -2.454  0.00  0.00    -0.012 C 
ATOM     19  C   UNL     1      15.039  -3.354  -2.264  0.00  0.00    +0.020 C 
ATOM     20  C   UNL     1      13.627  -3.109  -1.711  0.00  0.00    +0.110 C 
ATOM     21  C   UNL     1      16.644  -5.105  -3.039  0.00  0.00    +0.007 C 
ENDBRANCH  12  15
ENDBRANCH   9  12
ENDBRANCH   4   6
BRANCH   1  23
ATOM     22  N   UNL     1       2.513  -4.326   1.543  0.00  0.00    -0.304 N 
ATOM     23  C   UNL     1       3.747  -4.801   1.802  0.00  0.00    +0.301 C 
ATOM     24  O   UNL     1       3.881  -5.865   2.375  0.00  0.00    -0.265 OA
ATOM     25  H   UNL     1       2.406  -3.477   1.085  0.00  0.00    +0.149 HD
BRANCH  22  26
ATOM     26  C   UNL     1       1.332  -5.091   1.952  0.00  0.00    +0.151 C 
BRANCH  26  33
ATOM     27  C   UNL     1      -0.018   1.503   0.010  0.00  0.00    +0.044 C 
ATOM     28  C   UNL     1       0.002  -0.004   0.002  0.00  0.00    -0.048 A 
ATOM     29  C   UNL     1       0.005  -0.672  -1.235  0.00  0.00    +0.005 A 
ATOM     30  C   UNL     1       0.022  -2.017  -1.335  0.00  0.00    +0.027 A 
ATOM     31  C   UNL     1       0.040  -2.834  -0.114  0.00  0.00    +0.060 A 
ATOM     32  N   UNL     1       0.057  -4.120   0.090  0.00  0.00    -0.362 N 
ATOM     33  C   UNL     1       0.067  -4.335   1.542  0.00  0.00    +0.191 C 
ATOM     34  N   UNL     1       0.053  -3.002   2.159  0.00  0.00    -0.362 N 
ATOM     35  C   UNL     1       0.037  -2.127   1.195  0.00  0.00    +0.060 A 
ATOM     36  C   UNL     1       0.022  -0.657   1.181  0.00  0.00    +0.030 A 
ATOM     37  H   UNL     1       0.062  -4.809  -0.593  0.00  0.00    +0.162 HD
ATOM     38  H   UNL     1       0.055  -2.810   3.109  0.00  0.00    +0.162 HD
ENDBRANCH  26  33
ENDBRANCH  22  26
ENDBRANCH   1  23
TORSDOF 6
