REMARK  Name = ZINC14466909
REMARK  5 active torsions:
REMARK  status: ('A' for Active; 'I' for Inactive)
REMARK    1  A    between atoms: C_4  and  N_7
REMARK    2  A    between atoms: N_7  and  S_8
REMARK    3  A    between atoms: S_8  and  C_11
REMARK    4  A    between atoms: C_24  and  C_27
REMARK    5  A    between atoms: C_32  and  O_33
REMARK                            x       y       z     vdW  Elec       q    Type
REMARK                         _______ _______ _______ _____ _____    ______ ____
ROOT
ATOM      1  C   UNL     1       2.917   3.869  -1.277  0.00  0.00    +0.109 A 
ATOM      2  C   UNL     1       2.349   2.617  -1.425  0.00  0.00    +0.030 A 
ATOM      3  C   UNL     1       1.152   2.474  -2.096  0.00  0.00    +0.025 A 
ATOM      4  C   UNL     1       0.509   3.585  -2.630  0.00  0.00    +0.031 A 
ATOM      5  C   UNL     1       1.097   4.847  -2.488  0.00  0.00    -0.018 A 
ATOM      6  C   UNL     1       2.289   4.980  -1.808  0.00  0.00    +0.034 A 
ATOM      7  C   UNL     1       0.404   5.997  -3.107  0.00  0.00    +0.049 C 
ATOM      8  C   UNL     1       0.564   7.381  -2.592  0.00  0.00    -0.023 C 
ATOM      9  C   UNL     1      -0.563   8.048  -2.811  0.00  0.00    -0.030 C 
ATOM     10  C   UNL     1      -1.594   7.131  -3.471  0.00  0.00    +0.033 C 
ATOM     11  C   UNL     1      -1.130   5.749  -2.991  0.00  0.00    +0.029 C 
ATOM     12  C   UNL     1      -1.416   4.566  -3.904  0.00  0.00    +0.109 C 
ATOM     13  N   UNL     1      -0.712   3.417  -3.293  0.00  0.00    -0.336 N 
ATOM     14  H   UNL     1      -1.102   2.531  -3.357  0.00  0.00    +0.147 HD
ENDROOT
BRANCH  12  15
ATOM     15  C   UNL     1      -2.898   4.298  -3.961  0.00  0.00    +0.017 A 
ATOM     16  C   UNL     1      -3.476   3.417  -3.067  0.00  0.00    +0.029 A 
ATOM     17  C   UNL     1      -4.836   3.170  -3.119  0.00  0.00    +0.043 A 
ATOM     18  C   UNL     1      -5.622   3.806  -4.064  0.00  0.00    +0.043 A 
ATOM     19  C   UNL     1      -5.048   4.689  -4.959  0.00  0.00    +0.084 A 
ATOM     20  C   UNL     1      -3.683   4.941  -4.906  0.00  0.00    +0.140 A 
ATOM     21 CL   UNL     1      -6.033   5.486  -6.146  0.00  0.00    -0.080 Cl
ATOM     22 CL   UNL     1      -5.559   2.062  -1.995  0.00  0.00    -0.083 Cl
BRANCH  20  23
ATOM     23  O   UNL     1      -3.118   5.813  -5.782  0.00  0.00    -0.505 OA
ATOM     24  H   UNL     1      -2.813   5.404  -6.603  0.00  0.00    +0.292 HD
ENDBRANCH  20  23
ENDBRANCH  12  15
BRANCH   1  25
ATOM     25  S   UNL     1       4.441   4.048  -0.411  0.00  0.00    +0.072 S 
ATOM     26  O   UNL     1       4.429   5.346   0.167  0.00  0.00    -0.150 OA
ATOM     27  O   UNL     1       4.607   2.870   0.366  0.00  0.00    -0.150 OA
BRANCH  25  28
ATOM     28  N   UNL     1       5.651   4.044  -1.542  0.00  0.00    -0.216 N 
ATOM     29  H   UNL     1       6.213   4.827  -1.653  0.00  0.00    +0.174 HD
BRANCH  28  33
ATOM     30  C   UNL     1       6.279   0.676  -3.907  0.00  0.00    +0.000 A 
ATOM     31  C   UNL     1       5.667   1.793  -4.446  0.00  0.00    +0.002 A 
ATOM     32  C   UNL     1       5.457   2.912  -3.664  0.00  0.00    +0.024 A 
ATOM     33  C   UNL     1       5.861   2.914  -2.335  0.00  0.00    +0.048 A 
ATOM     34  C   UNL     1       6.481   1.793  -1.799  0.00  0.00    +0.024 A 
ATOM     35  C   UNL     1       6.683   0.675  -2.585  0.00  0.00    +0.002 A 
ENDBRANCH  28  33
ENDBRANCH  25  28
ENDBRANCH   1  25
TORSDOF 5
