REMARK  Name = ZINC06409030
REMARK  9 active torsions:
REMARK  status: ('A' for Active; 'I' for Inactive)
REMARK    1  A    between atoms: C_1  and  C_2
REMARK    2  A    between atoms: C_9  and  C_14
REMARK    3  A    between atoms: C_14  and  C_16
REMARK    4  A    between atoms: C_14  and  N_68
REMARK    5  A    between atoms: N_20  and  C_21
REMARK    6  A    between atoms: C_26  and  C_27
REMARK    7  A    between atoms: C_26  and  N_68
REMARK    8  A    between atoms: C_32  and  C_33
REMARK    9  A    between atoms: C_32  and  N_68
REMARK                            x       y       z     vdW  Elec       q    Type
REMARK                         _______ _______ _______ _____ _____    ______ ____
ROOT
ATOM      1  C   UNL     1       5.090  -2.837  -0.032  0.00  0.00    +0.039 C 
ENDROOT
BRANCH   1  10
ATOM      2  C   UNL     1       2.429   4.129  -0.132  0.00  0.00    +0.044 C 
ATOM      3  C   UNL     1       2.287   2.663  -0.451  0.00  0.00    -0.050 A 
ATOM      4  C   UNL     1       1.139   2.205  -1.084  0.00  0.00    +0.005 A 
ATOM      5  C   UNL     1       0.988   0.869  -1.385  0.00  0.00    +0.026 A 
ATOM      6  C   UNL     1       1.994  -0.032  -1.052  0.00  0.00    +0.049 A 
ATOM      7  C   UNL     1       3.155   0.436  -0.409  0.00  0.00    -0.001 A 
ATOM      8  C   UNL     1       3.287   1.797  -0.113  0.00  0.00    +0.013 A 
ATOM      9  C   UNL     1       4.209  -0.520  -0.063  0.00  0.00    +0.017 A 
ATOM     10  C   UNL     1       4.026  -1.827  -0.375  0.00  0.00    +0.011 A 
ATOM     11  C   UNL     1       2.841  -2.245  -1.019  0.00  0.00    +0.251 A 
ATOM     12  O   UNL     1       2.697  -3.424  -1.290  0.00  0.00    -0.268 OA
ATOM     13  N   UNL     1       1.869  -1.374  -1.342  0.00  0.00    -0.322 N 
ATOM     14  H   UNL     1       1.067  -1.695  -1.784  0.00  0.00    +0.169 HD
ENDBRANCH   1  10
BRANCH   1  15
ATOM     15  C   UNL     1       5.498  -3.580  -1.278  0.00  0.00    +0.143 A 
ATOM     16  N   UNL     1       4.817  -4.518  -1.888  0.00  0.00    -0.115 NA
ATOM     17  N   UNL     1       5.498  -4.902  -2.912  0.00  0.00    -0.023 NA
ATOM     18  N   UNL     1       6.596  -4.233  -2.971  0.00  0.00    -0.044 NA
ATOM     19  N   UNL     1       6.631  -3.404  -1.983  0.00  0.00    -0.227 N 
BRANCH  19  20
ATOM     20  C   UNL     1       7.704  -2.452  -1.684  0.00  0.00    +0.111 C 
ATOM     21  C   UNL     1       7.924  -1.509  -2.885  0.00  0.00    +0.027 C 
ATOM     22  C   UNL     1       9.457  -1.294  -2.922  0.00  0.00    +0.002 C 
ATOM     23  C   UNL     1      10.008  -2.690  -2.541  0.00  0.00    +0.002 C 
ATOM     24  C   UNL     1       9.029  -3.203  -1.465  0.00  0.00    +0.027 C 
ENDBRANCH  19  20
ENDBRANCH   1  15
BRANCH   1  25
ATOM     25  N   UNL     1       4.541  -3.804   0.942  0.00  0.00    +0.394 N 
ATOM     26  H   UNL     1       3.788  -4.339   0.493  0.00  0.00    -0.080 HD
BRANCH  25  27
ATOM     27  C   UNL     1       5.600  -4.738   1.379  0.00  0.00    -0.034 C 
BRANCH  27  28
ATOM     28  C   UNL     1       5.750  -5.817   0.337  0.00  0.00    -0.027 A 
ATOM     29  C   UNL     1       6.664  -5.921  -0.658  0.00  0.00    +0.009 A 
ATOM     30  C   UNL     1       6.612  -7.013  -1.504  0.00  0.00    +0.008 A 
ATOM     31  C   UNL     1       5.642  -7.942  -1.319  0.00  0.00    +0.045 A 
ATOM     32  S   UNL     1       4.765  -7.285   0.089  0.00  0.00    -0.103 S 
ENDBRANCH  27  28
ENDBRANCH  25  27
BRANCH  25  33
ATOM     33  C   UNL     1       3.987  -3.086   2.110  0.00  0.00    -0.045 C 
BRANCH  33  34
ATOM     34  C   UNL     1       2.521  -2.752   1.827  0.00  0.00    +0.102 C 
ATOM     35  C   UNL     1       1.867  -2.108   3.069  0.00  0.00    +0.032 C 
ATOM     36  C   UNL     1       0.431  -2.679   3.075  0.00  0.00    +0.030 C 
ATOM     37  C   UNL     1       0.388  -3.601   1.836  0.00  0.00    +0.160 C 
ATOM     38  O   UNL     1       1.766  -3.962   1.597  0.00  0.00    -0.378 OA
ENDBRANCH  33  34
ENDBRANCH  25  33
ENDBRANCH   1  25
TORSDOF 8
