REMARK  Name = ZINC45795049
REMARK  6 active torsions:
REMARK  status: ('A' for Active; 'I' for Inactive)
REMARK    1  A    between atoms: C_1  and  C_2
REMARK    2  A    between atoms: C_5  and  C_9
REMARK    3  A    between atoms: C_11  and  C_14
REMARK    4  A    between atoms: C_14  and  C_16
REMARK    5  A    between atoms: C_14  and  S_17
REMARK    6  A    between atoms: S_17  and  C_18
REMARK                            x       y       z     vdW  Elec       q    Type
REMARK                         _______ _______ _______ _____ _____    ______ ____
ROOT
ATOM      1  C   UNL     1       0.061  -4.258  -0.024  0.00  0.00    +0.202 A 
ATOM      2  N   UNL     1       0.071  -5.050   1.063  0.00  0.00    -0.190 NA
ATOM      3  C   UNL     1       0.088  -6.301   0.703  0.00  0.00    +0.241 A 
ATOM      4  O   UNL     1       0.089  -6.358  -0.635  0.00  0.00    -0.337 OA
ATOM      5  N   UNL     1       0.065  -5.015  -1.093  0.00  0.00    -0.056 NA
ENDROOT
BRANCH   1  10
ATOM      6  C   UNL     1      -0.018   1.503   0.010  0.00  0.00    +0.047 C 
ATOM      7  C   UNL     1       0.002  -0.004   0.002  0.00  0.00    -0.015 A 
ATOM      8  C   UNL     1       0.006  -0.687  -1.201  0.00  0.00    +0.007 A 
ATOM      9  C   UNL     1       0.025  -2.067  -1.215  0.00  0.00    +0.012 A 
ATOM     10  C   UNL     1       0.041  -2.774  -0.014  0.00  0.00    +0.025 A 
ATOM     11  C   UNL     1       0.037  -2.083   1.196  0.00  0.00    +0.050 A 
ATOM     12  C   UNL     1       0.023  -0.701   1.199  0.00  0.00    +0.127 A 
ATOM     13  F   UNL     1       0.025  -0.029   2.371  0.00  0.00    -0.205 F 
ENDBRANCH   1  10
BRANCH   3  14
ATOM     14  C   UNL     1       0.105  -7.486   1.635  0.00  0.00    +0.139 C 
ATOM     15  C   UNL     1       1.507  -8.098   1.655  0.00  0.00    +0.029 C 
BRANCH  14  16
ATOM     16  S   UNL     1      -1.087  -8.725   1.059  0.00  0.00    -0.084 S 
BRANCH  16  17
ATOM     17  C   UNL     1      -1.058  -9.961   2.314  0.00  0.00    +0.161 A 
ATOM     18  N   UNL     1      -0.352 -10.004   3.428  0.00  0.00    -0.133 NA
ATOM     19  N   UNL     1      -0.483 -11.077   4.280  0.00  0.00    -0.125 NA
ATOM     20  C   UNL     1      -1.313 -12.056   3.980  0.00  0.00    +0.180 A 
ATOM     21  S   UNL     1      -1.981 -11.486   2.424  0.00  0.00    -0.025 S 
ATOM     22  N   UNL     1      -1.598 -13.218   4.687  0.00  0.00    -0.336 N 
ATOM     23  H   UNL     1      -1.154 -13.392   5.532  0.00  0.00    +0.144 HD
ATOM     24  H   UNL     1      -2.240 -13.855   4.336  0.00  0.00    +0.144 HD
ENDBRANCH  16  17
ENDBRANCH  14  16
ENDBRANCH   3  14
TORSDOF 4
