REMARK  Name = ZINC08636620
REMARK  6 active torsions:
REMARK  status: ('A' for Active; 'I' for Inactive)
REMARK    1  A    between atoms: C_4  and  C_7
REMARK    2  A    between atoms: C_9  and  N_33
REMARK    3  A    between atoms: C_10  and  C_22
REMARK    4  A    between atoms: C_15  and  C_16
REMARK    5  A    between atoms: N_24  and  N_25
REMARK    6  A    between atoms: C_26  and  C_27
REMARK                            x       y       z     vdW  Elec       q    Type
REMARK                         _______ _______ _______ _____ _____    ______ ____
ROOT
ATOM      1  C   UNL     1       2.971   5.050  -1.024  0.00  0.00    +0.021 A 
ATOM      2  C   UNL     1       2.595   3.771  -0.517  0.00  0.00    +0.041 A 
ATOM      3  C   UNL     1       1.304   3.311  -0.043  0.00  0.00    +0.054 A 
ATOM      4  C   UNL     1       1.198   2.011   0.407  0.00  0.00    +0.099 A 
ATOM      5  S   UNL     1       2.845   1.364   0.191  0.00  0.00    -0.060 S 
ATOM      6  C   UNL     1       3.632   2.809  -0.474  0.00  0.00    +0.134 A 
ATOM      7  N   UNL     1       4.854   3.084  -0.877  0.00  0.00    -0.141 NA
ATOM      8  N   UNL     1       5.179   4.242  -1.332  0.00  0.00    -0.148 NA
ATOM      9  C   UNL     1       4.299   5.233  -1.424  0.00  0.00    +0.102 A 
ENDROOT
BRANCH   1  13
ATOM     10  C   UNL     1       0.141   8.207  -1.311  0.00  0.00    +0.000 A 
ATOM     11  C   UNL     1       0.035   7.108  -2.145  0.00  0.00    +0.001 A 
ATOM     12  C   UNL     1       0.950   6.080  -2.057  0.00  0.00    +0.008 A 
ATOM     13  C   UNL     1       1.986   6.150  -1.124  0.00  0.00    -0.015 A 
ATOM     14  C   UNL     1       2.085   7.258  -0.283  0.00  0.00    +0.008 A 
ATOM     15  C   UNL     1       1.165   8.282  -0.384  0.00  0.00    +0.001 A 
ENDBRANCH   1  13
BRANCH   9  16
ATOM     16  C   UNL     1       4.729   6.548  -1.956  0.00  0.00    +0.003 A 
ATOM     17  C   UNL     1       3.854   7.311  -2.729  0.00  0.00    +0.010 A 
ATOM     18  C   UNL     1       4.259   8.536  -3.217  0.00  0.00    +0.001 A 
ATOM     19  C   UNL     1       5.534   9.003  -2.951  0.00  0.00    +0.000 A 
ATOM     20  C   UNL     1       6.408   8.249  -2.190  0.00  0.00    +0.001 A 
ATOM     21  C   UNL     1       6.013   7.024  -1.691  0.00  0.00    +0.010 A 
ENDBRANCH   9  16
BRANCH   4  22
ATOM     22  C   UNL     1       0.017   1.327   0.929  0.00  0.00    +0.272 C 
ATOM     23  O   UNL     1      -1.045   1.918   1.006  0.00  0.00    -0.268 OA
ATOM     24  N   UNL     1       0.102   0.040   1.320  0.00  0.00    -0.202 N 
ATOM     25  H   UNL     1       0.947  -0.432   1.255  0.00  0.00    +0.178 HD
BRANCH  24  26
ATOM     26  N   UNL     1      -1.030  -0.616   1.821  0.00  0.00    -0.187 NA
ATOM     27  C   UNL     1      -0.949  -1.855   2.197  0.00  0.00    +0.139 C 
BRANCH  27  28
ATOM     28  C   UNL     1      -2.140  -2.546   2.724  0.00  0.00    +0.013 A 
ATOM     29  C   UNL     1      -2.067  -3.886   3.129  0.00  0.00    +0.012 A 
ATOM     30  C   UNL     1      -3.212  -4.485   3.622  0.00  0.00    +0.020 A 
ATOM     31  C   UNL     1      -4.385  -3.754   3.688  0.00  0.00    +0.111 A 
ATOM     32  N   UNL     1      -4.426  -2.495   3.294  0.00  0.00    -0.263 NA
ATOM     33  C   UNL     1      -3.363  -1.878   2.824  0.00  0.00    +0.120 A 
ENDBRANCH  27  28
ENDBRANCH  24  26
ENDBRANCH   4  22
BRANCH   3  34
ATOM     34  N   UNL     1       0.203   4.158  -0.040  0.00  0.00    -0.356 N 
ATOM     35  H   UNL     1      -0.692   3.790   0.028  0.00  0.00    +0.142 HD
ATOM     36  H   UNL     1       0.329   5.117  -0.107  0.00  0.00    +0.142 HD
ENDBRANCH   3  34
TORSDOF 6
