REMARK  Name = ZINC31314731
REMARK  4 active torsions:
REMARK  status: ('A' for Active; 'I' for Inactive)
REMARK    1  A    between atoms: C_6  and  N_7
REMARK    2  A    between atoms: C_11  and  C_12
REMARK    3  A    between atoms: N_14  and  C_15
REMARK    4  A    between atoms: C_15  and  C_16
REMARK                            x       y       z     vdW  Elec       q    Type
REMARK                         _______ _______ _______ _____ _____    ______ ____
ROOT
ATOM      1  C   UNL     1      -3.141   2.581   1.669  0.00  0.00    +0.263 C 
ATOM      2  O   UNL     1      -3.841   2.954   0.746  0.00  0.00    -0.269 OA
ATOM      3  N   UNL     1      -2.056   1.819   1.427  0.00  0.00    -0.306 N 
ATOM      4  H   UNL     1      -1.382   1.544   2.252  0.00  0.00    +0.149 HD
ENDROOT
BRANCH   1   9
ATOM      5  N   UNL     1      -4.568   3.708   3.456  0.00  0.00    -0.295 N 
ATOM      6  C   UNL     1      -4.490   3.814   4.797  0.00  0.00    +0.204 A 
ATOM      7  N   UNL     1      -3.421   3.184   5.215  0.00  0.00    -0.243 NA
ATOM      8  C   UNL     1      -2.778   2.650   4.177  0.00  0.00    +0.143 A 
ATOM      9  C   UNL     1      -3.479   2.960   3.045  0.00  0.00    +0.128 A 
BRANCH   5  15
ATOM     10  C   UNL     1      -5.218   5.106   1.595  0.00  0.00    +0.029 A 
ATOM     11  C   UNL     1      -6.201   5.636   0.782  0.00  0.00    +0.040 A 
ATOM     12  C   UNL     1      -7.531   5.325   1.009  0.00  0.00    +0.124 A 
ATOM     13  C   UNL     1      -7.878   4.478   2.048  0.00  0.00    +0.040 A 
ATOM     14  C   UNL     1      -6.898   3.941   2.860  0.00  0.00    +0.029 A 
ATOM     15  C   UNL     1      -5.564   4.252   2.633  0.00  0.00    +0.048 A 
ATOM     16  F   UNL     1      -8.492   5.850   0.217  0.00  0.00    -0.205 F 
ENDBRANCH   5  15
ENDBRANCH   1   9
BRANCH   3  17
ATOM     17  C   UNL     1      -1.773   1.358   0.066  0.00  0.00    +0.141 C 
BRANCH  17  18
ATOM     18  C   UNL     1      -0.513   0.531   0.067  0.00  0.00    -0.014 A 
ATOM     19  C   UNL     1      -0.576  -0.842   0.268  0.00  0.00    +0.010 A 
ATOM     20  C   UNL     1       0.604  -1.565   0.256  0.00  0.00    +0.042 A 
ATOM     21  C   UNL     1       1.805  -0.896   0.044  0.00  0.00    +0.099 A 
ATOM     22  N   UNL     1       1.823   0.414  -0.144  0.00  0.00    -0.349 N 
ATOM     23  C   UNL     1       0.713   1.129  -0.137  0.00  0.00    +0.089 A 
ATOM     24  N   UNL     1       2.998  -1.610   0.030  0.00  0.00    -0.317 N 
ATOM     25  C   UNL     1       3.014  -2.596  -1.081  0.00  0.00    +0.106 C 
ATOM     26  C   UNL     1       4.523  -2.890  -1.272  0.00  0.00    +0.020 C 
ATOM     27  C   UNL     1       5.177  -1.509  -1.035  0.00  0.00    +0.020 C 
ATOM     28  C   UNL     1       4.149  -0.714  -0.210  0.00  0.00    +0.106 C 
ATOM     29  H   UNL     1       2.778   0.933  -0.311  0.00  0.00    +0.167 HD
ENDBRANCH  17  18
ENDBRANCH   3  17
TORSDOF 4
