REMARK  Name = ZINC14543481
REMARK  6 active torsions:
REMARK  status: ('A' for Active; 'I' for Inactive)
REMARK    1  A    between atoms: C_4  and  C_7
REMARK    2  A    between atoms: C_7  and  N_8
REMARK    3  A    between atoms: N_11  and  C_30
REMARK    4  A    between atoms: C_19  and  C_20
REMARK    5  A    between atoms: C_19  and  N_65
REMARK    6  A    between atoms: C_30  and  C_31
REMARK                            x       y       z     vdW  Elec       q    Type
REMARK                         _______ _______ _______ _____ _____    ______ ____
ROOT
ATOM      1  N   UNL     1      -2.005   0.061  -1.934  0.00  0.00    -0.267 N 
ATOM      2  C   UNL     1      -2.703  -0.057  -3.079  0.00  0.00    +0.313 C 
ATOM      3  O   UNL     1      -3.025  -1.122  -3.568  0.00  0.00    -0.252 OA
ATOM      4  N   UNL     1      -3.004   1.131  -3.619  0.00  0.00    -0.218 N 
ATOM      5  C   UNL     1      -2.528   2.150  -2.873  0.00  0.00    +0.247 C 
ATOM      6  O   UNL     1      -2.637   3.337  -3.097  0.00  0.00    -0.273 OA
ATOM      7  C   UNL     1      -1.831   1.500  -1.701  0.00  0.00    +0.112 C 
ATOM      8  C   UNL     1      -0.349   1.865  -1.691  0.00  0.00    +0.017 C 
ATOM      9  C   UNL     1       0.324   1.215  -0.480  0.00  0.00    -0.076 C 
ATOM     10  C   UNL     1      -1.748   1.262   0.779  0.00  0.00    -0.076 C 
ATOM     11  C   UNL     1      -2.491   1.914  -0.390  0.00  0.00    +0.017 C 
ATOM     12  N   UNL     1      -0.336   1.701   0.752  0.00  0.00    +0.383 N 
ATOM     13  H   UNL     1      -0.305   2.727   0.763  0.00  0.00    -0.081 HD
ENDROOT
BRANCH   1  14
ATOM     14  C   UNL     1      -1.515  -1.030  -1.089  0.00  0.00    +0.145 C 
BRANCH  14  18
ATOM     15  C   UNL     1       1.129  -3.508  -3.351  0.00  0.00    +0.000 A 
ATOM     16  C   UNL     1       1.640  -2.518  -2.533  0.00  0.00    +0.000 A 
ATOM     17  C   UNL     1       0.785  -1.716  -1.801  0.00  0.00    +0.005 A 
ATOM     18  C   UNL     1      -0.582  -1.904  -1.887  0.00  0.00    -0.030 A 
ATOM     19  C   UNL     1      -1.093  -2.898  -2.701  0.00  0.00    +0.005 A 
ATOM     20  C   UNL     1      -0.238  -3.696  -3.437  0.00  0.00    +0.000 A 
ENDBRANCH  14  18
ENDBRANCH   1  14
BRANCH  12  21
ATOM     21  C   UNL     1       0.375   1.187   1.941  0.00  0.00    -0.041 C 
BRANCH  21  22
ATOM     22  C   UNL     1      -0.164   1.881   3.165  0.00  0.00    -0.039 A 
ATOM     23  C   UNL     1       0.365   2.955   3.772  0.00  0.00    +0.085 A 
ATOM     24  N   UNL     1      -0.400   3.305   4.851  0.00  0.00    -0.360 N 
ATOM     25  H   UNL     1      -0.219   4.051   5.444  0.00  0.00    +0.165 HD
ATOM     26  C   UNL     1      -1.463   2.438   4.973  0.00  0.00    +0.047 A 
ATOM     27  C   UNL     1      -1.361   1.508   3.922  0.00  0.00    +0.001 A 
ATOM     28  C   UNL     1      -2.315   0.497   3.792  0.00  0.00    +0.010 A 
ATOM     29  C   UNL     1      -3.345   0.416   4.687  0.00  0.00    +0.001 A 
ATOM     30  C   UNL     1      -3.449   1.331   5.726  0.00  0.00    +0.002 A 
ATOM     31  C   UNL     1      -2.518   2.337   5.873  0.00  0.00    +0.026 A 
ENDBRANCH  21  22
ENDBRANCH  12  21
BRANCH   4  32
ATOM     32  C   UNL     1      -3.757   1.303  -4.864  0.00  0.00    +0.173 C 
BRANCH  32  33
ATOM     33  C   UNL     1      -2.801   1.334  -6.029  0.00  0.00    +0.059 A 
ATOM     34  C   UNL     1      -2.541   0.172  -6.731  0.00  0.00    +0.025 A 
ATOM     35  C   UNL     1      -1.661   0.212  -7.801  0.00  0.00    +0.003 A 
ATOM     36  C   UNL     1      -1.072   1.425  -8.126  0.00  0.00    +0.020 A 
ATOM     37  C   UNL     1      -1.380   2.545  -7.378  0.00  0.00    +0.111 A 
ATOM     38  N   UNL     1      -2.226   2.471  -6.370  0.00  0.00    -0.258 NA
ENDBRANCH  32  33
ENDBRANCH   4  32
TORSDOF 6
