REMARK  Name = ZINC63150500
REMARK  10 active torsions:
REMARK  status: ('A' for Active; 'I' for Inactive)
REMARK    1  A    between atoms: C_1  and  C_2
REMARK    2  A    between atoms: C_2  and  C_3
REMARK    3  A    between atoms: C_3  and  C_4
REMARK    4  A    between atoms: C_4  and  C_5
REMARK    5  A    between atoms: C_7  and  C_11
REMARK    6  A    between atoms: C_11  and  C_13
REMARK    7  A    between atoms: C_11  and  S_14
REMARK    8  A    between atoms: S_14  and  C_15
REMARK    9  A    between atoms: C_18  and  C_23
REMARK   10  A    between atoms: N_19  and  C_20
REMARK                            x       y       z     vdW  Elec       q    Type
REMARK                         _______ _______ _______ _____ _____    ______ ____
ROOT
ATOM      1  C   UNL     1      -6.808   0.314   1.448  0.00  0.00    +0.193 A 
ATOM      2  N   UNL     1      -7.673  -0.112   2.357  0.00  0.00    -0.122 NA
ATOM      3  N   UNL     1      -8.605   0.757   2.522  0.00  0.00    -0.129 NA
ATOM      4  C   UNL     1      -8.394   1.797   1.728  0.00  0.00    +0.163 A 
ATOM      5  N   UNL     1      -7.231   1.536   1.024  0.00  0.00    -0.299 N 
ENDROOT
BRANCH   4   6
ATOM      6  C   UNL     1      -9.194   2.945   1.623  0.00  0.00    +0.025 C 
ATOM      7  C   UNL     1     -10.362   3.226   2.332  0.00  0.00    +0.006 A 
ATOM      8  C   UNL     1     -11.075   2.510   3.317  0.00  0.00    +0.010 A 
ATOM      9  C   UNL     1     -12.208   3.039   3.847  0.00  0.00    +0.001 A 
ATOM     10  C   UNL     1     -12.692   4.285   3.442  0.00  0.00    +0.002 A 
ATOM     11  C   UNL     1     -12.058   5.027   2.501  0.00  0.00    +0.026 A 
ATOM     12  C   UNL     1     -10.868   4.540   1.902  0.00  0.00    +0.043 A 
ATOM     13  N   UNL     1     -10.078   5.060   0.983  0.00  0.00    -0.380 N 
ATOM     14  C   UNL     1      -8.968   4.139   0.722  0.00  0.00    +0.152 C 
ATOM     15  H   UNL     1     -10.209   5.918   0.551  0.00  0.00    +0.160 HD
ENDBRANCH   4   6
BRANCH   5  16
ATOM     16  C   UNL     1      -6.590   2.397   0.026  0.00  0.00    +0.091 C 
ATOM     17  C   UNL     1      -5.554   1.755  -0.899  0.00  0.00    +0.027 C 
ATOM     18  C   UNL     1      -5.103   2.706   0.211  0.00  0.00    +0.027 C 
ENDBRANCH   5  16
BRANCH   1  19
ATOM     19  S   UNL     1      -5.370  -0.541   0.896  0.00  0.00    -0.078 S 
BRANCH  19  20
ATOM     20  C   UNL     1      -5.388  -2.088   1.844  0.00  0.00    +0.103 C 
ATOM     21  C   UNL     1      -6.609  -2.918   1.443  0.00  0.00    +0.024 C 
BRANCH  20  24
ATOM     22  C   UNL     1      -2.167  -1.893   1.037  0.00  0.00    +0.103 C 
ATOM     23  N   UNL     1      -2.936  -2.152   2.036  0.00  0.00    -0.346 N 
ATOM     24  C   UNL     1      -4.113  -2.881   1.549  0.00  0.00    +0.256 C 
ATOM     25  O   UNL     1      -3.919  -3.008   0.132  0.00  0.00    -0.247 OA
ATOM     26  N   UNL     1      -2.683  -2.364  -0.135  0.00  0.00    -0.252 N 
ATOM     27  H   UNL     1      -2.271  -2.276  -1.008  0.00  0.00    +0.195 HD
ATOM     28  H   UNL     1      -2.765  -1.906   2.959  0.00  0.00    +0.163 HD
BRANCH  22  29
ATOM     29  C   UNL     1      -0.859  -1.152   1.147  0.00  0.00    +0.074 C 
BRANCH  29  30
ATOM     30  C   UNL     1      -1.107   0.349   0.984  0.00  0.00    +0.007 C 
BRANCH  30  32
ATOM     31  C   UNL     1      -0.027   2.601   0.933  0.00  0.00    +0.004 C 
ATOM     32  C   UNL     1       0.222   1.100   1.095  0.00  0.00    -0.003 C 
ENDBRANCH  30  32
ENDBRANCH  29  30
ENDBRANCH  22  29
ENDBRANCH  20  24
ENDBRANCH  19  20
ENDBRANCH   1  19
TORSDOF 8
