REMARK  Name = ZINC58988634
REMARK  9 active torsions:
REMARK  status: ('A' for Active; 'I' for Inactive)
REMARK    1  A    between atoms: C_1  and  C_2
REMARK    2  A    between atoms: N_8  and  C_9
REMARK    3  A    between atoms: C_9  and  C_10
REMARK    4  A    between atoms: N_12  and  C_13
REMARK    5  A    between atoms: C_17  and  N_19
REMARK    6  A    between atoms: C_20  and  C_22
REMARK    7  A    between atoms: C_22  and  C_23
REMARK    8  A    between atoms: C_23  and  C_24
REMARK    9  A    between atoms: C_26  and  C_29
REMARK                            x       y       z     vdW  Elec       q    Type
REMARK                         _______ _______ _______ _____ _____    ______ ____
ROOT
ATOM      1  C   UNL     1       4.675  -0.175   3.936  0.00  0.00    +0.035 A 
ATOM      2  C   UNL     1       4.061  -0.981   4.886  0.00  0.00    +0.026 A 
ATOM      3  C   UNL     1       4.696  -1.247   6.084  0.00  0.00    +0.042 A 
ATOM      4  C   UNL     1       5.944  -0.710   6.342  0.00  0.00    +0.145 A 
ATOM      5  C   UNL     1       6.564   0.097   5.394  0.00  0.00    +0.071 A 
ATOM      6  C   UNL     1       5.930   0.359   4.188  0.00  0.00    +0.049 A 
ATOM      7  F   UNL     1       6.562  -0.971   7.514  0.00  0.00    -0.204 F 
ENDROOT
BRANCH   1  10
ATOM      8  C   UNL     1       2.690   0.234   2.688  0.00  0.00    +0.201 C 
ATOM      9  O   UNL     1       2.035   0.047   3.691  0.00  0.00    -0.278 OA
ATOM     10  N   UNL     1       4.030   0.093   2.722  0.00  0.00    -0.287 N 
ATOM     11  H   UNL     1       4.548   0.177   1.906  0.00  0.00    +0.155 HD
BRANCH   8  12
ATOM     12  C   UNL     1       2.006   0.623   1.403  0.00  0.00    +0.019 C 
BRANCH  12  19
ATOM     13  C   UNL     1       0.511   2.554   0.017  0.00  0.00    -0.013 C 
ATOM     14  C   UNL     1      -0.095   1.205   0.408  0.00  0.00    -0.071 C 
ATOM     15  C   UNL     1      -1.595   1.375   0.662  0.00  0.00    -0.016 C 
ATOM     16  C   UNL     1      -2.197   0.023   1.052  0.00  0.00    -0.003 C 
ATOM     17  C   UNL     1      -1.459  -0.519   2.279  0.00  0.00    -0.019 C 
ATOM     18  C   UNL     1       0.036  -0.619   1.966  0.00  0.00    -0.078 C 
ATOM     19  N   UNL     1       0.557   0.711   1.626  0.00  0.00    +0.387 N 
ATOM     20  H   UNL     1       0.374   1.348   2.387  0.00  0.00    -0.081 HD
ENDBRANCH  12  19
ENDBRANCH   8  12
ENDBRANCH   1  10
BRANCH   5  21
ATOM     21  N   UNL     1       7.828   0.641   5.654  0.00  0.00    -0.283 N 
ATOM     22  C   UNL     1       8.145   1.864   5.186  0.00  0.00    +0.218 C 
ATOM     23  O   UNL     1       7.367   2.460   4.471  0.00  0.00    -0.275 OA
ATOM     24  H   UNL     1       8.475   0.137   6.172  0.00  0.00    +0.155 HD
BRANCH  22  25
ATOM     25  C   UNL     1       9.465   2.492   5.552  0.00  0.00    +0.105 C 
BRANCH  25  26
ATOM     26  C   UNL     1       9.574   3.870   4.895  0.00  0.00    +0.108 C 
BRANCH  26  27
ATOM     27  C   UNL     1      10.894   4.497   5.261  0.00  0.00    +0.228 A 
ATOM     28  N   UNL     1      12.005   4.377   4.591  0.00  0.00    -0.191 NA
ATOM     29  C   UNL     1      12.987   5.068   5.200  0.00  0.00    +0.209 A 
ATOM     30  N   UNL     1      12.494   5.637   6.275  0.00  0.00    -0.056 NA
ATOM     31  O   UNL     1      11.121   5.277   6.326  0.00  0.00    -0.338 OA
BRANCH  29  32
ATOM     32  C   UNL     1      14.386   5.168   4.736  0.00  0.00    +0.060 A 
ATOM     33  C   UNL     1      15.437   5.843   5.301  0.00  0.00    +0.019 A 
ATOM     34  C   UNL     1      16.665   5.792   4.682  0.00  0.00    +0.008 A 
ATOM     35  C   UNL     1      16.799   5.077   3.535  0.00  0.00    +0.046 A 
ATOM     36  S   UNL     1      15.150   4.436   3.298  0.00  0.00    -0.093 S 
ENDBRANCH  29  32
ENDBRANCH  26  27
ENDBRANCH  25  26
ENDBRANCH  22  25
ENDBRANCH   5  21
TORSDOF 8
