REMARK  Name = ZINC21618076
REMARK  9 active torsions:
REMARK  status: ('A' for Active; 'I' for Inactive)
REMARK    1  A    between atoms: C_1  and  C_2
REMARK    2  A    between atoms: C_2  and  C_4
REMARK    3  A    between atoms: C_2  and  S_17
REMARK    4  A    between atoms: C_4  and  C_6
REMARK    5  A    between atoms: C_7  and  N_16
REMARK    6  A    between atoms: N_8  and  C_15
REMARK    7  A    between atoms: N_11  and  C_14
REMARK    8  A    between atoms: S_17  and  C_18
REMARK    9  A    between atoms: C_21  and  C_23
REMARK                            x       y       z     vdW  Elec       q    Type
REMARK                         _______ _______ _______ _____ _____    ______ ____
ROOT
ATOM      1  C   UNL     1       0.198  -2.827  -1.287  0.00  0.00    +0.028 C 
ATOM      2  C   UNL     1      -0.586  -2.670   0.017  0.00  0.00    +0.124 C 
ENDROOT
BRANCH   2   3
ATOM      3  C   UNL     1      -1.611  -3.769   0.123  0.00  0.00    +0.185 C 
ATOM      4  O   UNL     1      -2.752  -3.574  -0.247  0.00  0.00    -0.291 OA
BRANCH   3   5
ATOM      5  C   UNL     1      -1.246  -5.026   0.652  0.00  0.00    +0.121 A 
ATOM      6  C   UNL     1      -2.209  -6.025   0.878  0.00  0.00    +0.116 A 
ATOM      7  N   UNL     1      -1.807  -7.225   1.392  0.00  0.00    -0.284 N 
ATOM      8  C   UNL     1      -0.518  -7.463   1.683  0.00  0.00    +0.333 A 
ATOM      9  O   UNL     1      -0.212  -8.547   2.138  0.00  0.00    -0.246 OA
ATOM     10  N   UNL     1       0.445  -6.547   1.489  0.00  0.00    -0.263 N 
ATOM     11  C   UNL     1       0.152  -5.333   0.979  0.00  0.00    +0.269 A 
ATOM     12  O   UNL     1       1.028  -4.507   0.799  0.00  0.00    -0.267 OA
ATOM     13  C   UNL     1       1.832  -6.874   1.828  0.00  0.00    +0.157 C 
ATOM     14  C   UNL     1      -2.802  -8.273   1.631  0.00  0.00    +0.155 C 
BRANCH   6  15
ATOM     15  N   UNL     1      -3.519  -5.800   0.590  0.00  0.00    -0.344 N 
ATOM     16  H   UNL     1      -4.265  -6.589   0.770  0.00  0.00    +0.144 HD
ATOM     17  H   UNL     1      -3.833  -4.830   0.177  0.00  0.00    +0.144 HD
ENDBRANCH   6  15
ENDBRANCH   3   5
ENDBRANCH   2   3
BRANCH   2  18
ATOM     18  S   UNL     1      -1.421  -1.064   0.029  0.00  0.00    -0.055 S 
BRANCH  18  19
ATOM     19  C   UNL     1      -0.022   0.008   0.049  0.00  0.00    +0.278 A 
ATOM     20  N   UNL     1       1.238  -0.360   0.053  0.00  0.00    -0.101 NA
ATOM     21  N   UNL     1       1.989   0.685   0.069  0.00  0.00    -0.106 NA
ATOM     22  C   UNL     1       1.239   1.760   0.075  0.00  0.00    +0.249 A 
ATOM     23  O   UNL     1      -0.050   1.354   0.063  0.00  0.00    -0.411 OA
BRANCH  22  24
ATOM     24  C   UNL     1       1.715   3.159   0.093  0.00  0.00    +0.039 A 
ATOM     25  C   UNL     1       0.798   4.212   0.093  0.00  0.00    +0.014 A 
ATOM     26  C   UNL     1       1.249   5.515   0.114  0.00  0.00    +0.021 A 
ATOM     27  C   UNL     1       2.608   5.780   0.126  0.00  0.00    +0.041 A 
ATOM     28  C   UNL     1       3.523   4.740   0.121  0.00  0.00    +0.021 A 
ATOM     29  C   UNL     1       3.084   3.433   0.105  0.00  0.00    +0.014 A 
ATOM     30 CL   UNL     1       3.168   7.423   0.145  0.00  0.00    -0.084 Cl
ENDBRANCH  22  24
ENDBRANCH  18  19
ENDBRANCH   2  18
TORSDOF 6
