REMARK  Name = ZINC22290477
REMARK  5 active torsions:
REMARK  status: ('A' for Active; 'I' for Inactive)
REMARK    1  A    between atoms: C_1  and  C_2
REMARK    2  A    between atoms: C_2  and  C_3
REMARK    3  A    between atoms: C_2  and  N_4
REMARK    4  A    between atoms: C_5  and  N_9
REMARK    5  A    between atoms: C_10  and  C_12
REMARK                            x       y       z     vdW  Elec       q    Type
REMARK                         _______ _______ _______ _____ _____    ______ ____
ROOT
ATOM      1  N   UNL     1      -1.324  -1.778  -2.090  0.00  0.00    -0.264 N 
ATOM      2  C   UNL     1      -2.010  -2.559  -2.947  0.00  0.00    +0.285 C 
ATOM      3  O   UNL     1      -3.168  -2.849  -2.713  0.00  0.00    -0.266 OA
ATOM      4  H   UNL     1      -0.400  -1.546  -2.277  0.00  0.00    +0.157 HD
ENDROOT
BRANCH   2   5
ATOM      5  C   UNL     1      -1.360  -3.060  -4.166  0.00  0.00    +0.191 A 
ATOM      6  C   UNL     1      -1.952  -3.847  -5.101  0.00  0.00    +0.063 A 
ATOM      7  C   UNL     1      -0.937  -4.095  -6.124  0.00  0.00    +0.022 A 
ATOM      8  C   UNL     1      -0.916  -4.815  -7.321  0.00  0.00    +0.031 A 
ATOM      9  C   UNL     1       0.226  -4.851  -8.070  0.00  0.00    +0.042 A 
ATOM     10  C   UNL     1       1.365  -4.176  -7.649  0.00  0.00    +0.023 A 
ATOM     11  C   UNL     1       1.365  -3.461  -6.472  0.00  0.00    +0.048 A 
ATOM     12  C   UNL     1       0.214  -3.409  -5.693  0.00  0.00    +0.136 A 
ATOM     13  O   UNL     1      -0.085  -2.803  -4.527  0.00  0.00    -0.450 OA
ATOM     14 CL   UNL     1       0.254  -5.746  -9.558  0.00  0.00    -0.084 Cl
ENDBRANCH   2   5
BRANCH   1  16
ATOM     15  N   UNL     1      -1.372  -0.511   0.012  0.00  0.00    -0.248 N 
ATOM     16  C   UNL     1      -1.940  -1.302  -0.934  0.00  0.00    +0.124 A 
ATOM     17  C   UNL     1      -3.223  -1.546  -0.547  0.00  0.00    +0.065 A 
ATOM     18  C   UNL     1      -3.438  -0.885   0.665  0.00  0.00    +0.136 A 
ATOM     19  N   UNL     1      -2.333  -0.272   1.003  0.00  0.00    -0.178 NA
BRANCH  15  21
ATOM     20  C   UNL     1      -0.019   1.526   0.010  0.00  0.00    +0.032 C 
ATOM     21  C   UNL     1       0.002  -0.004   0.002  0.00  0.00    +0.103 C 
ATOM     22  C   UNL     1       0.742  -0.511   1.242  0.00  0.00    +0.032 C 
ENDBRANCH  15  21
ENDBRANCH   1  16
TORSDOF 3
