REMARK  Name = ZINC35934907
REMARK  7 active torsions:
REMARK  status: ('A' for Active; 'I' for Inactive)
REMARK    1  A    between atoms: C_1  and  C_2
REMARK    2  A    between atoms: C_2  and  N_3
REMARK    3  A    between atoms: C_6  and  C_11
REMARK    4  A    between atoms: N_21  and  C_23
REMARK    5  A    between atoms: C_23  and  C_24
REMARK    6  A    between atoms: C_24  and  C_25
REMARK    7  A    between atoms: N_27  and  C_28
REMARK                            x       y       z     vdW  Elec       q    Type
REMARK                         _______ _______ _______ _____ _____    ______ ____
ROOT
ATOM      1  N   UNL     1       0.730  -0.493  -1.254  0.00  0.00    -0.257 N 
ATOM      2  C   UNL     1      -0.025  -0.705  -2.373  0.00  0.00    +0.042 C 
ATOM      3  C   UNL     1       0.534  -1.141  -3.520  0.00  0.00    +0.058 C 
ATOM      4  C   UNL     1       2.029  -1.388  -3.527  0.00  0.00    +0.143 C 
ATOM      5  N   UNL     1       2.753  -1.130  -2.270  0.00  0.00    -0.288 N 
ATOM      6  C   UNL     1       2.054  -0.690  -1.205  0.00  0.00    +0.307 C 
ATOM      7  O   UNL     1       2.643  -0.470  -0.165  0.00  0.00    -0.252 OA
ATOM      8  C   UNL     1      -0.449  -1.281  -4.522  0.00  0.00    +0.247 C 
ATOM      9  O   UNL     1      -0.225  -1.659  -5.657  0.00  0.00    -0.270 OA
ATOM     10  N   UNL     1      -1.666  -0.943  -4.059  0.00  0.00    -0.292 N 
ATOM     11  C   UNL     1      -1.502  -0.547  -2.652  0.00  0.00    +0.159 C 
ATOM     12  H   UNL     1       3.711  -1.270  -2.212  0.00  0.00    +0.151 HD
ENDROOT
BRANCH   4  13
ATOM     13  C   UNL     1       2.260  -2.828  -3.908  0.00  0.00    -0.004 A 
ATOM     14  C   UNL     1       2.417  -3.787  -2.924  0.00  0.00    +0.008 A 
ATOM     15  C   UNL     1       2.629  -5.107  -3.273  0.00  0.00    +0.020 A 
ATOM     16  C   UNL     1       2.684  -5.470  -4.607  0.00  0.00    +0.042 A 
ATOM     17  C   UNL     1       2.527  -4.511  -5.591  0.00  0.00    +0.040 A 
ATOM     18  C   UNL     1       2.310  -3.191  -5.242  0.00  0.00    +0.048 A 
ATOM     19 CL   UNL     1       2.107  -1.988  -6.477  0.00  0.00    -0.083 Cl
ATOM     20 CL   UNL     1       2.952  -7.128  -5.045  0.00  0.00    -0.083 Cl
ENDBRANCH   4  13
BRANCH   1  22
ATOM     21  C   UNL     1       0.038   1.512  -0.036  0.00  0.00    +0.025 C 
ATOM     22  C   UNL     1       0.055  -0.018  -0.044  0.00  0.00    +0.111 C 
ENDBRANCH   1  22
BRANCH  10  23
ATOM     23  C   UNL     1      -2.920  -0.964  -4.816  0.00  0.00    +0.117 C 
BRANCH  23  24
ATOM     24  C   UNL     1      -3.581  -2.337  -4.669  0.00  0.00    +0.115 C 
BRANCH  24  25
ATOM     25  C   UNL     1      -4.871  -2.359  -5.447  0.00  0.00    +0.219 C 
ATOM     26  O   UNL     1      -5.227  -1.374  -6.059  0.00  0.00    -0.275 OA
ATOM     27  N   UNL     1      -5.629  -3.473  -5.464  0.00  0.00    -0.283 N 
ATOM     28  H   UNL     1      -5.314  -4.280  -5.029  0.00  0.00    +0.155 HD
BRANCH  27  29
ATOM     29  C   UNL     1      -6.872  -3.465  -6.109  0.00  0.00    +0.069 A 
ATOM     30  C   UNL     1      -7.054  -2.709  -7.260  0.00  0.00    +0.026 A 
ATOM     31  C   UNL     1      -8.281  -2.704  -7.894  0.00  0.00    +0.002 A 
ATOM     32  C   UNL     1      -9.329  -3.448  -7.385  0.00  0.00    +0.003 A 
ATOM     33  C   UNL     1      -9.153  -4.202  -6.239  0.00  0.00    +0.040 A 
ATOM     34  C   UNL     1      -7.926  -4.217  -5.602  0.00  0.00    +0.144 A 
ATOM     35  F   UNL     1      -7.752  -4.958  -4.485  0.00  0.00    -0.204 F 
ENDBRANCH  27  29
ENDBRANCH  24  25
ENDBRANCH  23  24
ENDBRANCH  10  23
TORSDOF 6
