REMARK  Name = ZINC00599038
REMARK  6 active torsions:
REMARK  status: ('A' for Active; 'I' for Inactive)
REMARK    1  A    between atoms: C_1  and  C_2
REMARK    2  A    between atoms: C_3  and  C_19
REMARK    3  A    between atoms: C_4  and  N_18
REMARK    4  A    between atoms: C_19  and  O_21
REMARK    5  A    between atoms: O_21  and  C_22
REMARK    6  A    between atoms: C_22  and  C_23
REMARK                            x       y       z     vdW  Elec       q    Type
REMARK                         _______ _______ _______ _____ _____    ______ ____
ROOT
ATOM      1  C   UNL     1      -9.320   6.496  -0.926  0.00  0.00    +0.064 C 
ATOM      2  C   UNL     1      -8.066   5.679  -0.752  0.00  0.00    +0.030 A 
ATOM      3  C   UNL     1      -8.149   4.439  -0.112  0.00  0.00    +0.099 A 
ATOM      4  C   UNL     1      -7.010   3.632   0.080  0.00  0.00    +0.050 A 
ATOM      5  C   UNL     1      -5.787   4.165  -0.419  0.00  0.00    +0.031 A 
ATOM      6  C   UNL     1      -4.478   3.531  -0.344  0.00  0.00    -0.026 A 
ATOM      7  C   UNL     1      -3.443   4.210  -0.887  0.00  0.00    +0.001 A 
ATOM      8  S   UNL     1      -4.150   5.714  -1.515  0.00  0.00    -0.075 S 
ATOM      9  C   UNL     1      -5.831   5.431  -1.051  0.00  0.00    +0.087 A 
ATOM     10  C   UNL     1      -2.013   3.785  -0.946  0.00  0.00    +0.107 C 
ATOM     11  C   UNL     1      -1.776   2.584  -0.041  0.00  0.00    +0.175 C 
ATOM     12  C   UNL     1      -2.918   1.591  -0.075  0.00  0.00    +0.070 C 
ATOM     13  C   UNL     1      -4.259   2.176   0.311  0.00  0.00    +0.042 C 
ATOM     14  O   UNL     1      -0.550   1.933  -0.421  0.00  0.00    -0.346 OA
ATOM     15  C   UNL     1       0.084   1.482   0.789  0.00  0.00    +0.191 C 
ATOM     16  C   UNL     1      -0.839   1.961   1.931  0.00  0.00    +0.191 C 
ATOM     17  O   UNL     1      -1.577   3.046   1.314  0.00  0.00    -0.346 OA
ATOM     18  N   UNL     1      -6.918   6.209  -1.236  0.00  0.00    -0.352 N 
ATOM     19  H   UNL     1      -6.878   7.122  -1.703  0.00  0.00    +0.166 HD
ENDROOT
BRANCH   4  20
ATOM     20  N   UNL     1      -7.075   2.405   0.711  0.00  0.00    -0.357 N 
ATOM     21  H   UNL     1      -6.268   1.995   1.060  0.00  0.00    +0.142 HD
ATOM     22  H   UNL     1      -7.928   1.952   0.805  0.00  0.00    +0.142 HD
ENDBRANCH   4  20
BRANCH   3  23
ATOM     23  C   UNL     1      -9.454   3.967   0.371  0.00  0.00    +0.343 C 
ATOM     24  O   UNL     1      -9.819   4.238   1.499  0.00  0.00    -0.245 OA
BRANCH  23  25
ATOM     25  O   UNL     1     -10.246   3.232  -0.435  0.00  0.00    -0.456 OA
BRANCH  25  26
ATOM     26  C   UNL     1     -11.521   2.800   0.109  0.00  0.00    +0.268 C 
BRANCH  26  27
ATOM     27  C   UNL     1     -12.264   1.997  -0.928  0.00  0.00    -0.010 A 
ATOM     28  C   UNL     1     -13.122   2.630  -1.807  0.00  0.00    +0.007 A 
ATOM     29  C   UNL     1     -13.799   1.894  -2.762  0.00  0.00    +0.000 A 
ATOM     30  C   UNL     1     -13.626   0.524  -2.830  0.00  0.00    +0.000 A 
ATOM     31  C   UNL     1     -12.772  -0.109  -1.946  0.00  0.00    +0.000 A 
ATOM     32  C   UNL     1     -12.091   0.627  -0.995  0.00  0.00    +0.007 A 
ENDBRANCH  26  27
ENDBRANCH  25  26
ENDBRANCH  23  25
ENDBRANCH   3  23
TORSDOF 5
