REMARK  Name = ZINC39631420
REMARK  13 active torsions:
REMARK  status: ('A' for Active; 'I' for Inactive)
REMARK    1  A    between atoms: C_1  and  C_2
REMARK    2  A    between atoms: C_2  and  C_4
REMARK    3  A    between atoms: C_2  and  N_11
REMARK    4  A    between atoms: C_4  and  C_5
REMARK    5  A    between atoms: C_5  and  C_6
REMARK    6  A    between atoms: C_6  and  C_7
REMARK    7  A    between atoms: C_7  and  C_8
REMARK    8  A    between atoms: C_7  and  C_9
REMARK    9  A    between atoms: C_7  and  O_10
REMARK   10  A    between atoms: C_12  and  C_14
REMARK   11  A    between atoms: C_25  and  C_27
REMARK   12  A    between atoms: C_30  and  O_33
REMARK   13  A    between atoms: O_33  and  C_34
REMARK                            x       y       z     vdW  Elec       q    Type
REMARK                         _______ _______ _______ _____ _____    ______ ____
ROOT
ATOM      1  C   UNL     1       2.799  -0.474   2.245  0.00  0.00    +0.100 C 
ATOM      2  C   UNL     1       2.653   0.273   3.590  0.00  0.00    +0.121 C 
ATOM      3  N   UNL     1       3.984   0.155   4.230  0.00  0.00    -0.296 N 
ATOM      4  C   UNL     1       4.946   0.320   3.114  0.00  0.00    +0.115 C 
ATOM      5  C   UNL     1       4.305  -0.440   1.936  0.00  0.00    -0.004 C 
ATOM      6  C   UNL     1       4.860  -1.859   1.859  0.00  0.00    -0.010 C 
ATOM      7  C   UNL     1       6.347  -1.801   1.495  0.00  0.00    -0.082 C 
ATOM      8  N   UNL     1       6.510  -1.119   0.205  0.00  0.00    +0.379 N 
ATOM      9  C   UNL     1       6.058   0.273   0.314  0.00  0.00    -0.082 C 
ATOM     10  C   UNL     1       4.560   0.303   0.628  0.00  0.00    -0.010 C 
ATOM     11  C   UNL     1       4.258  -0.056   5.533  0.00  0.00    +0.247 C 
ATOM     12  O   UNL     1       3.356  -0.282   6.315  0.00  0.00    -0.270 OA
ATOM     13  H   UNL     1       7.483  -1.136  -0.061  0.00  0.00    -0.086 HD
ATOM     14  H   UNL     1       5.963  -1.595  -0.497  0.00  0.00    -0.086 HD
ENDROOT
BRANCH  11  15
ATOM     15  C   UNL     1       5.654  -0.011   6.010  0.00  0.00    +0.037 A 
ATOM     16  C   UNL     1       6.625   0.670   5.271  0.00  0.00    +0.016 A 
ATOM     17  C   UNL     1       7.927   0.710   5.720  0.00  0.00    +0.047 A 
ATOM     18  C   UNL     1       8.275   0.073   6.905  0.00  0.00    +0.130 A 
ATOM     19  C   UNL     1       7.312  -0.606   7.642  0.00  0.00    +0.047 A 
ATOM     20  C   UNL     1       6.008  -0.645   7.204  0.00  0.00    +0.016 A 
BRANCH  18  21
ATOM     21  O   UNL     1       9.559   0.113   7.343  0.00  0.00    -0.406 OA
BRANCH  21  22
ATOM     22  C   UNL     1       9.848  -0.562   8.568  0.00  0.00    +0.575 C 
ATOM     23  F   UNL     1       9.539  -1.920   8.436  0.00  0.00    -0.133 F 
ATOM     24  F   UNL     1      11.207  -0.421   8.870  0.00  0.00    -0.133 F 
ATOM     25  F   UNL     1       9.081  -0.007   9.599  0.00  0.00    -0.133 F 
ENDBRANCH  21  22
ENDBRANCH  18  21
ENDBRANCH  11  15
BRANCH   1  27
ATOM     26  N   UNL     1       1.518  -0.462   0.129  0.00  0.00    -0.312 N 
ATOM     27  C   UNL     1       2.025   0.236   1.164  0.00  0.00    +0.218 C 
ATOM     28  O   UNL     1       1.859   1.436   1.226  0.00  0.00    -0.275 OA
ATOM     29  H   UNL     1       1.652  -1.422   0.079  0.00  0.00    +0.149 HD
BRANCH  26  31
ATOM     30  C   UNL     1      -0.695   0.371  -0.494  0.00  0.00    +0.028 C 
ATOM     31  C   UNL     1       0.767   0.228  -0.922  0.00  0.00    +0.070 C 
BRANCH  31  32
ATOM     32  C   UNL     1       0.841  -0.582  -2.218  0.00  0.00    +0.022 C 
BRANCH  32  33
ATOM     33  C   UNL     1       2.288  -0.619  -2.714  0.00  0.00    +0.005 C 
BRANCH  33  34
ATOM     34  C   UNL     1       2.362  -1.429  -4.010  0.00  0.00    +0.034 C 
BRANCH  34  35
ATOM     35  C   UNL     1       3.809  -1.466  -4.506  0.00  0.00    +0.061 C 
ATOM     36  C   UNL     1       3.865  -2.168  -5.864  0.00  0.00    +0.041 C 
ATOM     37  C   UNL     1       4.337  -0.037  -4.648  0.00  0.00    +0.041 C 
BRANCH  35  38
ATOM     38  O   UNL     1       4.616  -2.180  -3.567  0.00  0.00    -0.389 OA
ATOM     39  H   UNL     1       5.548  -2.244  -3.817  0.00  0.00    +0.210 HD
ENDBRANCH  35  38
ENDBRANCH  34  35
ENDBRANCH  33  34
ENDBRANCH  32  33
ENDBRANCH  31  32
ENDBRANCH  26  31
ENDBRANCH   1  27
TORSDOF 10
