REMARK  Name = ZINC35929543
REMARK  7 active torsions:
REMARK  status: ('A' for Active; 'I' for Inactive)
REMARK    1  A    between atoms: C_1  and  O_2
REMARK    2  A    between atoms: O_2  and  C_3
REMARK    3  A    between atoms: C_3  and  C_4
REMARK    4  A    between atoms: C_4  and  N_5
REMARK    5  A    between atoms: C_8  and  C_24
REMARK    6  A    between atoms: C_10  and  N_23
REMARK    7  A    between atoms: N_11  and  C_15
REMARK                            x       y       z     vdW  Elec       q    Type
REMARK                         _______ _______ _______ _____ _____    ______ ____
ROOT
ATOM      1  N   UNL     1       0.697  -2.568  -0.588  0.00  0.00    -0.311 N 
ATOM      2  C   UNL     1       1.084  -3.889  -0.731  0.00  0.00    +0.218 A 
ATOM      3  N   UNL     1       1.760  -4.231  -1.823  0.00  0.00    -0.214 NA
ATOM      4  C   UNL     1       2.170  -5.474  -2.039  0.00  0.00    +0.089 A 
ATOM      5  C   UNL     1       1.871  -6.456  -1.069  0.00  0.00    +0.086 A 
ATOM      6  C   UNL     1       2.111  -7.817  -0.922  0.00  0.00    +0.131 A 
ATOM      7  N   UNL     1       1.563  -8.201   0.247  0.00  0.00    -0.216 N 
ATOM      8  N   UNL     1       0.963  -7.104   0.875  0.00  0.00    -0.144 NA
ATOM      9  C   UNL     1       1.119  -6.034   0.128  0.00  0.00    +0.189 A 
ATOM     10  N   UNL     1       0.767  -4.738   0.226  0.00  0.00    -0.193 NA
ATOM     11  H   UNL     1       0.917  -1.921  -1.276  0.00  0.00    +0.149 HD
ENDROOT
BRANCH   7  12
ATOM     12  C   UNL     1       1.590  -9.505   0.757  0.00  0.00    +0.069 A 
ATOM     13  C   UNL     1       1.518 -10.592  -0.106  0.00  0.00    +0.029 A 
ATOM     14  C   UNL     1       1.545 -11.876   0.400  0.00  0.00    +0.023 A 
ATOM     15  C   UNL     1       1.643 -12.083   1.764  0.00  0.00    +0.059 A 
ATOM     16  C   UNL     1       1.714 -11.002   2.627  0.00  0.00    +0.061 A 
ATOM     17  C   UNL     1       1.694  -9.714   2.126  0.00  0.00    +0.049 A 
ATOM     18 CL   UNL     1       1.836 -11.265   4.339  0.00  0.00    -0.082 Cl
ATOM     19 CL   UNL     1       1.677 -13.700   2.396  0.00  0.00    -0.082 Cl
ENDBRANCH   7  12
BRANCH   4  20
ATOM     20  C   UNL     1       2.921  -5.824  -3.267  0.00  0.00    +0.001 A 
ATOM     21  C   UNL     1       2.572  -6.955  -4.003  0.00  0.00    +0.010 A 
ATOM     22  C   UNL     1       3.275  -7.276  -5.146  0.00  0.00    +0.001 A 
ATOM     23  C   UNL     1       4.326  -6.477  -5.561  0.00  0.00    +0.000 A 
ATOM     24  C   UNL     1       4.678  -5.354  -4.835  0.00  0.00    +0.001 A 
ATOM     25  C   UNL     1       3.978  -5.019  -3.694  0.00  0.00    +0.010 A 
ENDBRANCH   4  20
BRANCH   6  26
ATOM     26  N   UNL     1       2.787  -8.628  -1.814  0.00  0.00    -0.342 N 
ATOM     27  H   UNL     1       3.276  -8.234  -2.553  0.00  0.00    +0.144 HD
ATOM     28  H   UNL     1       2.772  -9.591  -1.701  0.00  0.00    +0.144 HD
ENDBRANCH   6  26
BRANCH   1  29
ATOM     29  C   UNL     1      -0.045  -2.148   0.603  0.00  0.00    +0.132 C 
BRANCH  29  30
ATOM     30  C   UNL     1      -0.348  -0.651   0.513  0.00  0.00    +0.178 C 
BRANCH  30  32
ATOM     31  C   UNL     1      -1.576   0.967  -0.760  0.00  0.00    +0.194 C 
ATOM     32  O   UNL     1      -1.228  -0.408  -0.586  0.00  0.00    -0.381 OA
ENDBRANCH  30  32
ENDBRANCH  29  30
ENDBRANCH   1  29
TORSDOF 6
