REMARK  Name = ZINC40151763
REMARK  11 active torsions:
REMARK  status: ('A' for Active; 'I' for Inactive)
REMARK    1  A    between atoms: C_1  and  C_2
REMARK    2  A    between atoms: C_2  and  O_3
REMARK    3  A    between atoms: O_3  and  C_4
REMARK    4  A    between atoms: N_6  and  C_7
REMARK    5  A    between atoms: C_7  and  C_9
REMARK    6  A    between atoms: C_7  and  C_12
REMARK    7  A    between atoms: C_9  and  C_10
REMARK    8  A    between atoms: C_9  and  C_11
REMARK    9  A    between atoms: N_14  and  C_15
REMARK   10  A    between atoms: N_18  and  C_21
REMARK   11  A    between atoms: C_21  and  C_22
REMARK                            x       y       z     vdW  Elec       q    Type
REMARK                         _______ _______ _______ _____ _____    ______ ____
ROOT
ATOM      1  C   UNL     1      -6.064  -5.758  -0.901  0.00  0.00    +0.069 C 
ATOM      2  C   UNL     1      -7.029  -5.547   0.269  0.00  0.00    +0.003 C 
ATOM      3  C   UNL     1      -8.438  -5.966  -0.157  0.00  0.00    -0.077 C 
ATOM      4  N   UNL     1      -8.436  -7.382  -0.542  0.00  0.00    +0.382 N 
ATOM      5  C   UNL     1      -7.568  -7.580  -1.709  0.00  0.00    -0.077 C 
ATOM      6  C   UNL     1      -6.125  -7.223  -1.342  0.00  0.00    +0.003 C 
ATOM      7  H   UNL     1      -8.095  -7.938   0.228  0.00  0.00    -0.081 HD
ENDROOT
BRANCH   1  10
ATOM      8  C   UNL     1      -4.267  -4.156  -0.527  0.00  0.00    +0.234 C 
ATOM      9  O   UNL     1      -4.971  -3.294  -1.009  0.00  0.00    -0.274 OA
ATOM     10  N   UNL     1      -4.701  -5.431  -0.476  0.00  0.00    -0.311 N 
ATOM     11  H   UNL     1      -4.111  -6.132  -0.158  0.00  0.00    +0.149 HD
BRANCH   8  12
ATOM     12  C   UNL     1      -2.905  -3.801   0.013  0.00  0.00    +0.165 C 
BRANCH  12  15
ATOM     13  C   UNL     1      -1.155  -2.241  -0.650  0.00  0.00    +0.401 C 
ATOM     14  O   UNL     1      -0.332  -3.043  -0.255  0.00  0.00    -0.226 OA
ATOM     15  N   UNL     1      -2.469  -2.526  -0.560  0.00  0.00    -0.270 N 
ATOM     16  H   UNL     1      -3.127  -1.886  -0.875  0.00  0.00    +0.153 HD
BRANCH  13  17
ATOM     17  O   UNL     1      -0.754  -1.069  -1.177  0.00  0.00    -0.451 OA
BRANCH  17  19
ATOM     18  C   UNL     1       0.914   0.539  -1.865  0.00  0.00    +0.048 C 
ATOM     19  C   UNL     1       0.654  -0.834  -1.241  0.00  0.00    +0.230 C 
ENDBRANCH  17  19
ENDBRANCH  13  17
ENDBRANCH  12  15
BRANCH  12  20
ATOM     20  C   UNL     1      -2.978  -3.677   1.537  0.00  0.00    +0.012 C 
ATOM     21  C   UNL     1      -1.575  -3.433   2.096  0.00  0.00    +0.009 C 
ATOM     22  C   UNL     1      -3.888  -2.505   1.910  0.00  0.00    +0.009 C 
ENDBRANCH  12  20
ENDBRANCH   8  12
ENDBRANCH   1  10
BRANCH   4  23
ATOM     23  C   UNL     1      -9.804  -7.800  -0.875  0.00  0.00    -0.043 C 
BRANCH  23  24
ATOM     24  C   UNL     1      -9.824  -9.281  -1.152  0.00  0.00    -0.061 A 
ATOM     25  C   UNL     1      -9.611  -9.747  -2.436  0.00  0.00    +0.005 A 
ATOM     26  C   UNL     1      -9.629 -11.105  -2.692  0.00  0.00    +0.041 A 
ATOM     27  C   UNL     1      -9.860 -12.000  -1.662  0.00  0.00    +0.158 A 
ATOM     28  C   UNL     1     -10.074 -11.533  -0.374  0.00  0.00    +0.159 A 
ATOM     29  C   UNL     1     -10.051 -10.172  -0.120  0.00  0.00    +0.043 A 
ATOM     30  F   UNL     1     -10.301 -12.405   0.633  0.00  0.00    -0.202 F 
ATOM     31  F   UNL     1      -9.878 -13.328  -1.911  0.00  0.00    -0.202 F 
ENDBRANCH  23  24
ENDBRANCH   4  23
TORSDOF 8
