REMARK  Name = ZINC16321139
REMARK  6 active torsions:
REMARK  status: ('A' for Active; 'I' for Inactive)
REMARK    1  A    between atoms: C_1  and  N_2
REMARK    2  A    between atoms: C_15  and  S_16
REMARK    3  A    between atoms: S_16  and  C_17
REMARK    4  A    between atoms: C_17  and  C_18
REMARK    5  A    between atoms: N_20  and  C_21
REMARK    6  A    between atoms: C_26  and  C_27
REMARK                            x       y       z     vdW  Elec       q    Type
REMARK                         _______ _______ _______ _____ _____    ______ ____
ROOT
ATOM      1  C   UNL     1       0.192   4.441   0.037  0.00  0.00    +0.173 C 
ENDROOT
BRANCH   1   2
ATOM      2  C   UNL     1       0.498   5.917   0.030  0.00  0.00    +0.228 C 
ATOM      3  O   UNL     1       1.649   6.297   0.014  0.00  0.00    -0.275 OA
ATOM      4  N   UNL     1      -0.508   6.814   0.042  0.00  0.00    -0.284 N 
ATOM      5  H   UNL     1      -1.428   6.512  -0.026  0.00  0.00    +0.155 HD
BRANCH   4   6
ATOM      6  C   UNL     1      -0.227   8.178   0.151  0.00  0.00    +0.041 A 
ATOM      7  C   UNL     1       0.953   8.600   0.747  0.00  0.00    +0.024 A 
ATOM      8  C   UNL     1       1.230   9.949   0.854  0.00  0.00    +0.002 A 
ATOM      9  C   UNL     1       0.334  10.887   0.369  0.00  0.00    +0.001 A 
ATOM     10  C   UNL     1      -0.843  10.481  -0.226  0.00  0.00    +0.010 A 
ATOM     11  C   UNL     1      -1.131   9.124  -0.345  0.00  0.00    +0.003 A 
BRANCH  11  12
ATOM     12  C   UNL     1      -2.392   8.683  -0.989  0.00  0.00    -0.016 A 
ATOM     13  C   UNL     1      -2.364   7.717  -1.994  0.00  0.00    +0.008 A 
ATOM     14  C   UNL     1      -3.541   7.308  -2.586  0.00  0.00    +0.001 A 
ATOM     15  C   UNL     1      -4.746   7.861  -2.192  0.00  0.00    +0.000 A 
ATOM     16  C   UNL     1      -4.779   8.823  -1.199  0.00  0.00    +0.001 A 
ATOM     17  C   UNL     1      -3.609   9.237  -0.596  0.00  0.00    +0.008 A 
ENDBRANCH  11  12
ENDBRANCH   4   6
ENDBRANCH   1   2
BRANCH   1  18
ATOM     18  S   UNL     1       1.744   3.502   0.019  0.00  0.00    -0.076 S 
BRANCH  18  33
ATOM     19  C   UNL     1       0.922  -2.837   0.042  0.00  0.00    +0.155 C 
ATOM     20  N   UNL     1       1.806  -1.669   0.028  0.00  0.00    -0.280 N 
ATOM     21  C   UNL     1       3.143  -1.849   0.011  0.00  0.00    +0.263 A 
ATOM     22  O   UNL     1       3.616  -2.969   0.008  0.00  0.00    -0.267 OA
ATOM     23  C   UNL     1       4.019  -0.663  -0.003  0.00  0.00    +0.064 A 
ATOM     24  C   UNL     1       5.407  -0.790  -0.021  0.00  0.00    +0.015 A 
ATOM     25  C   UNL     1       6.194   0.342  -0.034  0.00  0.00    +0.001 A 
ATOM     26  C   UNL     1       5.612   1.600  -0.029  0.00  0.00    +0.002 A 
ATOM     27  C   UNL     1       4.239   1.738  -0.011  0.00  0.00    +0.027 A 
ATOM     28  C   UNL     1       3.432   0.611   0.003  0.00  0.00    +0.064 A 
ATOM     29  N   UNL     1       2.043   0.722   0.020  0.00  0.00    -0.256 N 
ATOM     30  C   UNL     1       1.256  -0.396   0.033  0.00  0.00    +0.240 A 
ATOM     31  N   UNL     1       0.001  -0.004   0.049  0.00  0.00    -0.109 NA
ATOM     32  N   UNL     1      -0.018   1.396   0.047  0.00  0.00    -0.120 NA
ATOM     33  C   UNL     1       1.223   1.818   0.029  0.00  0.00    +0.198 A 
ENDBRANCH  18  33
ENDBRANCH   1  18
TORSDOF 5
