REMARK  Name = ZINC02192797
REMARK  8 active torsions:
REMARK  status: ('A' for Active; 'I' for Inactive)
REMARK    1  A    between atoms: C_1  and  C_2
REMARK    2  A    between atoms: C_2  and  C_3
REMARK    3  A    between atoms: C_3  and  C_4
REMARK    4  A    between atoms: C_4  and  N_5
REMARK    5  A    between atoms: C_11  and  C_25
REMARK    6  A    between atoms: C_13  and  O_24
REMARK    7  A    between atoms: C_15  and  O_22
REMARK    8  A    between atoms: C_15  and  O_23
REMARK                            x       y       z     vdW  Elec       q    Type
REMARK                         _______ _______ _______ _____ _____    ______ ____
ROOT
ATOM      1  N   UNL     1       0.691   3.401  -0.381  0.00  0.00    -0.274 N 
ATOM      2  C   UNL     1       1.192   2.179   0.007  0.00  0.00    +0.288 C 
ATOM      3  O   UNL     1       2.350   1.936   0.279  0.00  0.00    -0.266 OA
ATOM      4  C   UNL     1       0.045   1.192   0.035  0.00  0.00    +0.249 C 
ATOM      5  O   UNL     1       0.081  -0.024   0.028  0.00  0.00    -0.282 OA
ATOM      6  C   UNL     1      -1.069   2.044   0.064  0.00  0.00    +0.077 C 
ATOM      7  C   UNL     1      -2.167   2.610   0.618  0.00  0.00    +0.108 C 
ATOM      8  O   UNL     1      -2.026   3.991   0.533  0.00  0.00    -0.458 OA
ATOM      9  C   UNL     1      -1.772   4.095  -0.886  0.00  0.00    +0.268 C 
ATOM     10  C   UNL     1      -0.619   3.035  -0.934  0.00  0.00    +0.198 C 
ATOM     11  C   UNL     1      -0.478   3.029  -2.433  0.00  0.00    +0.226 C 
ATOM     12  C   UNL     1      -0.383   4.551  -2.651  0.00  0.00    +0.023 A 
ATOM     13  C   UNL     1      -1.060   5.198  -1.597  0.00  0.00    +0.034 A 
ATOM     14  C   UNL     1      -1.023   6.567  -1.506  0.00  0.00    +0.010 A 
ATOM     15  C   UNL     1      -0.386   7.313  -2.482  0.00  0.00    +0.000 A 
ATOM     16  C   UNL     1       0.216   6.681  -3.554  0.00  0.00    +0.000 A 
ATOM     17  C   UNL     1       0.216   5.300  -3.632  0.00  0.00    +0.009 A 
ATOM     18  C   UNL     1      -3.337   1.873   1.216  0.00  0.00    +0.086 C 
ENDROOT
BRANCH  11  19
ATOM     19  O   UNL     1       0.716   2.362  -2.846  0.00  0.00    -0.359 OA
ATOM     20  H   UNL     1       0.841   2.337  -3.805  0.00  0.00    +0.213 HD
ENDBRANCH  11  19
BRANCH  11  21
ATOM     21  O   UNL     1      -1.633   2.476  -3.068  0.00  0.00    -0.359 OA
ATOM     22  H   UNL     1      -1.578   2.455  -4.033  0.00  0.00    +0.213 HD
ENDBRANCH  11  21
BRANCH   9  23
ATOM     23  O   UNL     1      -2.901   3.655  -1.643  0.00  0.00    -0.350 OA
ATOM     24  H   UNL     1      -3.641   4.278  -1.643  0.00  0.00    +0.214 HD
ENDBRANCH   9  23
BRANCH   1  25
ATOM     25  C   UNL     1       1.307   4.726  -0.272  0.00  0.00    +0.109 C 
BRANCH  25  26
ATOM     26  C   UNL     1       0.813   5.414   1.002  0.00  0.00    +0.019 C 
BRANCH  26  28
ATOM     27  C   UNL     1       0.883   7.523   2.340  0.00  0.00    +0.004 C 
ATOM     28  C   UNL     1       1.377   6.835   1.066  0.00  0.00    -0.002 C 
ENDBRANCH  26  28
ENDBRANCH  25  26
ENDBRANCH   1  25
TORSDOF 6
