REMARK  Name = ZINC46875276
REMARK  5 active torsions:
REMARK  status: ('A' for Active; 'I' for Inactive)
REMARK    1  A    between atoms: C_10  and  C_11
REMARK    2  A    between atoms: C_11  and  C_12
REMARK    3  A    between atoms: N_14  and  N_15
REMARK    4  A    between atoms: N_18  and  C_19
REMARK    5  A    between atoms: C_19  and  C_20
REMARK                            x       y       z     vdW  Elec       q    Type
REMARK                         _______ _______ _______ _____ _____    ______ ____
ROOT
ATOM      1  N   UNL     1       6.823   1.550   2.919  0.00  0.00    -0.218 N 
ATOM      2  C   UNL     1       7.951   2.249   3.156  0.00  0.00    +0.316 C 
ATOM      3  O   UNL     1       8.258   2.538   4.297  0.00  0.00    -0.251 OA
ATOM      4  N   UNL     1       8.738   2.628   2.130  0.00  0.00    -0.295 N 
ATOM      5  H   UNL     1       6.257   1.278   3.658  0.00  0.00    +0.174 HD
ATOM      6  H   UNL     1       8.493   2.398   1.220  0.00  0.00    +0.150 HD
ENDROOT
BRANCH   1   9
ATOM      7  C   UNL     1       5.341   0.519   1.367  0.00  0.00    +0.233 C 
ATOM      8  O   UNL     1       4.633   0.178   2.291  0.00  0.00    -0.274 OA
ATOM      9  N   UNL     1       6.469   1.218   1.605  0.00  0.00    -0.233 N 
ATOM     10  H   UNL     1       7.035   1.490   0.866  0.00  0.00    +0.173 HD
BRANCH   7  11
ATOM     11  C   UNL     1       4.960   0.161  -0.046  0.00  0.00    +0.133 C 
BRANCH  11  21
ATOM     12  C   UNL     1      -0.016   1.357   0.009  0.00  0.00    +0.001 A 
ATOM     13  C   UNL     1       1.169   2.091   0.002  0.00  0.00    +0.001 A 
ATOM     14  C   UNL     1       2.378   1.468  -0.013  0.00  0.00    +0.009 A 
ATOM     15  C   UNL     1       2.438   0.064  -0.021  0.00  0.00    -0.014 A 
ATOM     16  C   UNL     1       1.233  -0.683  -0.013  0.00  0.00    -0.018 A 
ATOM     17  C   UNL     1       0.002  -0.004   0.002  0.00  0.00    +0.008 A 
ATOM     18  C   UNL     1       1.292  -2.087  -0.021  0.00  0.00    +0.008 A 
ATOM     19  C   UNL     1       2.502  -2.709  -0.036  0.00  0.00    +0.001 A 
ATOM     20  C   UNL     1       3.687  -1.976  -0.043  0.00  0.00    +0.005 A 
ATOM     21  C   UNL     1       3.668  -0.615  -0.037  0.00  0.00    -0.031 A 
ENDBRANCH  11  21
ENDBRANCH   7  11
ENDBRANCH   1   9
BRANCH   4  22
ATOM     22  C   UNL     1       9.964   3.388   2.388  0.00  0.00    +0.150 C 
BRANCH  22  23
ATOM     23  C   UNL     1      10.666   3.688   1.062  0.00  0.00    +0.195 C 
ATOM     24  C   UNL     1      11.998   4.436   1.305  0.00  0.00    +0.085 C 
ATOM     25  C   UNL     1      12.888   3.850   0.226  0.00  0.00    -0.002 A 
ATOM     26  C   UNL     1      14.096   4.254  -0.297  0.00  0.00    +0.007 A 
ATOM     27  C   UNL     1      14.695   3.518  -1.303  0.00  0.00    +0.000 A 
ATOM     28  C   UNL     1      14.077   2.376  -1.779  0.00  0.00    +0.004 A 
ATOM     29  C   UNL     1      12.869   1.968  -1.255  0.00  0.00    +0.046 A 
ATOM     30  C   UNL     1      12.261   2.701  -0.239  0.00  0.00    +0.124 A 
ATOM     31  O   UNL     1      11.091   2.472   0.424  0.00  0.00    -0.487 OA
ENDBRANCH  22  23
ENDBRANCH   4  22
TORSDOF 5
