REMARK  Name = ZINC39711244
REMARK  13 active torsions:
REMARK  status: ('A' for Active; 'I' for Inactive)
REMARK    1  A    between atoms: C_1  and  C_2
REMARK    2  A    between atoms: C_6  and  C_15
REMARK    3  A    between atoms: C_13  and  C_14
REMARK    4  A    between atoms: C_15  and  C_17
REMARK    5  A    between atoms: C_15  and  N_27
REMARK    6  A    between atoms: N_22  and  C_23
REMARK    7  A    between atoms: C_23  and  C_24
REMARK    8  A    between atoms: C_23  and  C_25
REMARK    9  A    between atoms: C_23  and  C_26
REMARK   10  A    between atoms: N_27  and  C_28
REMARK   11  A    between atoms: N_27  and  C_36
REMARK   12  A    between atoms: C_28  and  C_29
REMARK   13  A    between atoms: C_36  and  C_37
REMARK                            x       y       z     vdW  Elec       q    Type
REMARK                         _______ _______ _______ _____ _____    ______ ____
ROOT
ATOM      1  C   UNL     1      -0.183  -5.427  -3.006  0.00  0.00    -0.008 C 
ENDROOT
BRANCH   1   7
ATOM      2  C   UNL     1       6.651  -6.627  -4.702  0.00  0.00    +0.044 C 
ATOM      3  C   UNL     1       5.545  -5.842  -4.046  0.00  0.00    -0.047 A 
ATOM      4  C   UNL     1       4.376  -6.465  -3.745  0.00  0.00    +0.013 A 
ATOM      5  C   UNL     1       3.309  -5.692  -3.108  0.00  0.00    -0.007 A 
ATOM      6  C   UNL     1       2.119  -6.275  -2.787  0.00  0.00    -0.006 C 
ATOM      7  C   UNL     1       1.071  -5.399  -2.129  0.00  0.00    +0.088 C 
ATOM      8  C   UNL     1       1.431  -3.951  -1.881  0.00  0.00    +0.223 C 
ATOM      9  O   UNL     1       0.627  -3.204  -1.355  0.00  0.00    -0.275 OA
ATOM     10  N   UNL     1       2.622  -3.501  -2.238  0.00  0.00    -0.285 N 
ATOM     11  C   UNL     1       3.546  -4.267  -2.817  0.00  0.00    +0.041 A 
ATOM     12  C   UNL     1       4.793  -3.720  -3.169  0.00  0.00    +0.027 A 
ATOM     13  C   UNL     1       5.745  -4.492  -3.755  0.00  0.00    -0.046 A 
ATOM     14  C   UNL     1       7.069  -3.865  -4.109  0.00  0.00    +0.044 C 
ATOM     15  H   UNL     1       2.833  -2.569  -2.070  0.00  0.00    +0.155 HD
ENDBRANCH   1   7
BRANCH   1  16
ATOM     16  C   UNL     1       0.130  -4.794  -4.363  0.00  0.00    +0.205 C 
ATOM     17  N   UNL     1       1.231  -5.509  -5.021  0.00  0.00    -0.152 NA
ATOM     18  N   UNL     1       2.170  -4.728  -5.190  0.00  0.00    -0.070 NA
ATOM     19  N   UNL     1       1.900  -3.445  -4.716  0.00  0.00    -0.179 N 
ATOM     20  N   UNL     1       0.634  -3.416  -4.185  0.00  0.00    -0.183 NA
ATOM     21  H   UNL     1       2.509  -2.692  -4.756  0.00  0.00    +0.191 HD
BRANCH  20  22
ATOM     22  C   UNL     1      -0.215  -2.449  -4.894  0.00  0.00    +0.035 C 
ATOM     23  C   UNL     1      -1.646  -2.538  -4.359  0.00  0.00    +0.029 C 
ATOM     24  C   UNL     1       0.326  -1.035  -4.670  0.00  0.00    +0.029 C 
ATOM     25  C   UNL     1      -0.209  -2.767  -6.391  0.00  0.00    +0.029 C 
ENDBRANCH  20  22
ENDBRANCH   1  16
BRANCH   1  26
ATOM     26  N   UNL     1      -0.612  -6.818  -3.202  0.00  0.00    +0.392 N 
ATOM     27  H   UNL     1       0.074  -7.306  -3.758  0.00  0.00    -0.080 HD
BRANCH  26  28
ATOM     28  C   UNL     1      -1.908  -6.838  -3.893  0.00  0.00    -0.040 C 
BRANCH  28  29
ATOM     29  C   UNL     1      -1.694  -6.608  -5.367  0.00  0.00    -0.046 A 
ATOM     30  C   UNL     1      -2.325  -5.554  -6.002  0.00  0.00    +0.003 A 
ATOM     31  C   UNL     1      -2.129  -5.344  -7.354  0.00  0.00    +0.000 A 
ATOM     32  C   UNL     1      -1.302  -6.186  -8.072  0.00  0.00    +0.001 A 
ATOM     33  C   UNL     1      -0.670  -7.240  -7.439  0.00  0.00    +0.020 A 
ATOM     34  C   UNL     1      -0.861  -7.448  -6.085  0.00  0.00    +0.042 A 
ATOM     35 CL   UNL     1      -0.063  -8.767  -5.288  0.00  0.00    -0.083 Cl
ENDBRANCH  28  29
ENDBRANCH  26  28
BRANCH  26  36
ATOM     36  C   UNL     1      -0.744  -7.479  -1.896  0.00  0.00    -0.002 C 
BRANCH  36  37
ATOM     37  C   UNL     1      -1.101  -8.929  -2.101  0.00  0.00    +0.089 A 
ATOM     38  C   UNL     1      -0.231  -9.953  -2.151  0.00  0.00    +0.042 A 
ATOM     39  C   UNL     1      -0.992 -11.127  -2.356  0.00  0.00    +0.041 A 
ATOM     40  C   UNL     1      -2.281 -10.749  -2.419  0.00  0.00    +0.195 A 
ATOM     41  O   UNL     1      -2.342  -9.418  -2.258  0.00  0.00    -0.470 OA
ENDBRANCH  36  37
ENDBRANCH  26  36
ENDBRANCH   1  26
TORSDOF 8
