REMARK  Name = ZINC13149886
REMARK  5 active torsions:
REMARK  status: ('A' for Active; 'I' for Inactive)
REMARK    1  A    between atoms: C_4  and  C_7
REMARK    2  A    between atoms: C_10  and  C_25
REMARK    3  A    between atoms: C_13  and  C_15
REMARK    4  A    between atoms: C_15  and  N_61
REMARK    5  A    between atoms: C_19  and  C_22
REMARK                            x       y       z     vdW  Elec       q    Type
REMARK                         _______ _______ _______ _____ _____    ______ ____
ROOT
ATOM      1  C   UNL     1      -4.898   4.379   0.637  0.00  0.00    +0.137 C 
ATOM      2  C   UNL     1      -3.926   3.187   0.530  0.00  0.00    +0.087 C 
ATOM      3  C   UNL     1      -2.595   3.829   0.211  0.00  0.00    +0.069 C 
ATOM      4  N   UNL     1      -2.738   5.108   0.149  0.00  0.00    -0.181 NA
ATOM      5  N   UNL     1      -4.041   5.547   0.374  0.00  0.00    -0.187 N 
ATOM      6  C   UNL     1      -4.449   6.831   0.361  0.00  0.00    +0.219 C 
ATOM      7  O   UNL     1      -5.612   7.101   0.577  0.00  0.00    -0.276 OA
ENDROOT
BRANCH   3   8
ATOM      8  C   UNL     1      -1.328   3.104   0.009  0.00  0.00    -0.002 A 
ATOM      9  C   UNL     1      -1.303   1.700   0.105  0.00  0.00    +0.010 A 
ATOM     10  C   UNL     1      -0.147   1.011  -0.071  0.00  0.00    +0.009 A 
ATOM     11  C   UNL     1       1.045   1.698  -0.365  0.00  0.00    -0.018 A 
ATOM     12  C   UNL     1       2.252   1.006  -0.558  0.00  0.00    +0.008 A 
ATOM     13  C   UNL     1       3.389   1.698  -0.841  0.00  0.00    +0.001 A 
ATOM     14  C   UNL     1       3.378   3.087  -0.945  0.00  0.00    +0.001 A 
ATOM     15  C   UNL     1       2.228   3.793  -0.765  0.00  0.00    +0.008 A 
ATOM     16  C   UNL     1       1.032   3.113  -0.470  0.00  0.00    -0.017 A 
ATOM     17  C   UNL     1      -0.170   3.809  -0.279  0.00  0.00    +0.018 A 
ENDBRANCH   3   8
BRANCH   1  21
ATOM     18  C   UNL     1      -7.975   4.081  -2.311  0.00  0.00    +0.000 A 
ATOM     19  C   UNL     1      -8.227   3.695  -1.007  0.00  0.00    +0.000 A 
ATOM     20  C   UNL     1      -7.231   3.792  -0.054  0.00  0.00    +0.005 A 
ATOM     21  C   UNL     1      -5.983   4.274  -0.403  0.00  0.00    -0.025 A 
ATOM     22  C   UNL     1      -5.733   4.664  -1.706  0.00  0.00    +0.005 A 
ATOM     23  C   UNL     1      -6.728   4.563  -2.660  0.00  0.00    +0.000 A 
ENDBRANCH   1  21
BRANCH   6  24
ATOM     24  C   UNL     1      -3.461   7.933   0.077  0.00  0.00    +0.021 C 
BRANCH  24  30
ATOM     25  C   UNL     1      -3.230  10.339  -0.054  0.00  0.00    -0.078 C 
ATOM     26  C   UNL     1      -4.006  11.658  -0.018  0.00  0.00    -0.018 C 
ATOM     27  C   UNL     1      -4.943  11.726  -1.227  0.00  0.00    +0.009 C 
ATOM     28  C   UNL     1      -5.882  10.517  -1.204  0.00  0.00    +0.058 C 
ATOM     29  C   UNL     1      -5.052   9.231  -1.205  0.00  0.00    -0.065 C 
ATOM     30  N   UNL     1      -4.189   9.216  -0.004  0.00  0.00    +0.386 N 
ATOM     31  H   UNL     1      -4.779   9.318   0.830  0.00  0.00    -0.081 HD
BRANCH  28  32
ATOM     32  C   UNL     1      -6.769  10.544  -2.422  0.00  0.00    +0.212 C 
ATOM     33  O   UNL     1      -6.740   9.626  -3.214  0.00  0.00    -0.276 OA
ATOM     34  N   UNL     1      -7.594  11.589  -2.631  0.00  0.00    -0.329 N 
ATOM     35  H   UNL     1      -7.617  12.323  -1.998  0.00  0.00    +0.145 HD
ATOM     36  H   UNL     1      -8.165  11.607  -3.415  0.00  0.00    +0.145 HD
ENDBRANCH  28  32
ENDBRANCH  24  30
ENDBRANCH   6  24
TORSDOF 5
