REMARK  Name = ZINC20967161
REMARK  7 active torsions:
REMARK  status: ('A' for Active; 'I' for Inactive)
REMARK    1  A    between atoms: C_8  and  C_12
REMARK    2  A    between atoms: C_12  and  N_13
REMARK    3  A    between atoms: N_13  and  C_14
REMARK    4  A    between atoms: C_14  and  C_15
REMARK    5  A    between atoms: C_15  and  N_16
REMARK    6  A    between atoms: N_16  and  C_17
REMARK    7  A    between atoms: C_20  and  N_24
REMARK                            x       y       z     vdW  Elec       q    Type
REMARK                         _______ _______ _______ _____ _____    ______ ____
ROOT
ATOM      1  N   UNL     1      -4.933   1.550   0.034  0.00  0.00    +0.383 N 
ATOM      2  H   UNL     1      -4.963   0.911   0.929  0.00  0.00    -0.085 HD
ATOM      3  H   UNL     1      -4.971   0.921  -0.868  0.00  0.00    -0.085 HD
ENDROOT
BRANCH   1   4
ATOM      4  C   UNL     1      -6.086   2.461   0.044  0.00  0.00    -0.044 C 
BRANCH   4  12
ATOM      5  C   UNL     1     -11.227  -0.117   2.204  0.00  0.00    +0.001 A 
ATOM      6  C   UNL     1     -11.601  -0.722   1.006  0.00  0.00    +0.002 A 
ATOM      7  C   UNL     1     -10.842  -0.589  -0.115  0.00  0.00    +0.028 A 
ATOM      8  C   UNL     1      -9.660   0.171  -0.071  0.00  0.00    +0.073 A 
ATOM      9  C   UNL     1      -9.281   0.785   1.148  0.00  0.00    +0.001 A 
ATOM     10  C   UNL     1     -10.089   0.626   2.285  0.00  0.00    +0.010 A 
ATOM     11  C   UNL     1      -8.097   1.545   1.191  0.00  0.00    +0.014 A 
ATOM     12  C   UNL     1      -7.361   1.657   0.046  0.00  0.00    -0.027 A 
ATOM     13  C   UNL     1      -7.793   1.032  -1.123  0.00  0.00    +0.131 A 
ATOM     14  N   UNL     1      -8.895   0.319  -1.157  0.00  0.00    -0.235 NA
ATOM     15 CL   UNL     1      -6.846   1.193  -2.569  0.00  0.00    -0.062 Cl
ENDBRANCH   4  12
ENDBRANCH   1   4
BRANCH   1  16
ATOM     16  C   UNL     1      -3.670   2.300   0.032  0.00  0.00    -0.063 C 
BRANCH  16  17
ATOM     17  C   UNL     1      -2.495   1.321   0.021  0.00  0.00    +0.082 C 
BRANCH  17  18
ATOM     18  N   UNL     1      -1.236   2.068   0.019  0.00  0.00    -0.345 N 
ATOM     19  H   UNL     1      -1.249   3.168   0.025  0.00  0.00    +0.146 HD
BRANCH  18  20
ATOM     20  C   UNL     1      -0.017   1.385   0.010  0.00  0.00    +0.046 A 
ATOM     21  C   UNL     1       0.002  -0.004   0.002  0.00  0.00    +0.026 A 
ATOM     22  C   UNL     1       1.208  -0.677  -0.013  0.00  0.00    +0.034 A 
ATOM     23  C   UNL     1       2.397   0.030  -0.021  0.00  0.00    +0.128 A 
ATOM     24  C   UNL     1       2.382   1.413  -0.014  0.00  0.00    +0.054 A 
ATOM     25  C   UNL     1       1.179   2.093   0.002  0.00  0.00    +0.064 A 
ATOM     26 CL   UNL     1       1.162   3.829   0.011  0.00  0.00    -0.082 Cl
BRANCH  23  27
ATOM     27  N   UNL     1       3.687  -0.695  -0.038  0.00  0.00    +0.056 N 
ATOM     28  O   UNL     1       3.701  -1.913  -0.045  0.00  0.00    -0.126 OA
ATOM     29  O   UNL     1       4.734  -0.074  -0.045  0.00  0.00    -0.126 OA
ENDBRANCH  23  27
ENDBRANCH  18  20
ENDBRANCH  17  18
ENDBRANCH  16  17
ENDBRANCH   1  16
TORSDOF 7
