REMARK  Name = ZINC10212396
REMARK  10 active torsions:
REMARK  status: ('A' for Active; 'I' for Inactive)
REMARK    1  A    between atoms: C_1  and  C_2
REMARK    2  A    between atoms: C_5  and  N_9
REMARK    3  A    between atoms: C_7  and  C_8
REMARK    4  A    between atoms: C_13  and  S_15
REMARK    5  A    between atoms: S_15  and  C_16
REMARK    6  A    between atoms: C_16  and  C_18
REMARK    7  A    between atoms: C_16  and  C_19
REMARK    8  A    between atoms: N_21  and  C_22
REMARK    9  A    between atoms: C_22  and  C_23
REMARK   10  A    between atoms: N_25  and  C_26
REMARK                            x       y       z     vdW  Elec       q    Type
REMARK                         _______ _______ _______ _____ _____    ______ ____
ROOT
ATOM      1  C   UNL     1       5.308   8.025   0.516  0.00  0.00    +0.136 C 
ATOM      2  C   UNL     1       5.879   8.196  -0.893  0.00  0.00    +0.029 C 
ENDROOT
BRANCH   1   3
ATOM      3  C   UNL     1       3.895   7.508   0.426  0.00  0.00    +0.227 C 
ATOM      4  O   UNL     1       2.962   8.282   0.455  0.00  0.00    -0.275 OA
ATOM      5  N   UNL     1       3.668   6.184   0.314  0.00  0.00    -0.306 N 
ATOM      6  H   UNL     1       4.414   5.564   0.290  0.00  0.00    +0.149 HD
BRANCH   5   7
ATOM      7  C   UNL     1       2.295   5.681   0.226  0.00  0.00    +0.200 C 
BRANCH   7   8
ATOM      8  C   UNL     1       2.317   4.178   0.108  0.00  0.00    +0.234 C 
ATOM      9  O   UNL     1       3.376   3.586   0.098  0.00  0.00    -0.274 OA
ATOM     10  N   UNL     1       1.161   3.493   0.013  0.00  0.00    -0.282 N 
ATOM     11  H   UNL     1       0.319   3.969  -0.060  0.00  0.00    +0.155 HD
BRANCH  10  12
ATOM     12  C   UNL     1       1.174   2.091   0.021  0.00  0.00    +0.072 A 
ATOM     13  C   UNL     1       2.225   1.410   0.619  0.00  0.00    +0.029 A 
ATOM     14  C   UNL     1       2.238   0.028   0.626  0.00  0.00    +0.043 A 
ATOM     15  C   UNL     1       1.204  -0.679   0.036  0.00  0.00    +0.161 A 
ATOM     16  C   UNL     1       0.152  -0.002  -0.562  0.00  0.00    +0.195 A 
ATOM     17  C   UNL     1       0.136   1.382  -0.571  0.00  0.00    +0.182 A 
ATOM     18  F   UNL     1      -0.886   2.043  -1.159  0.00  0.00    -0.200 F 
ATOM     19  F   UNL     1      -0.856  -0.694  -1.137  0.00  0.00    -0.199 F 
ATOM     20  F   UNL     1       1.220  -2.030   0.044  0.00  0.00    -0.202 F 
ENDBRANCH  10  12
ENDBRANCH   7   8
ENDBRANCH   5   7
ENDBRANCH   1   3
BRANCH   1  21
ATOM     21  S   UNL     1       5.311   9.626   1.369  0.00  0.00    -0.084 S 
BRANCH  21  26
ATOM     22  N   UNL     1      10.656  11.677   2.288  0.00  0.00    -0.292 N 
ATOM     23  C   UNL     1       9.488  10.996   1.963  0.00  0.00    +0.187 A 
ATOM     24  N   UNL     1       9.340   9.837   1.351  0.00  0.00    -0.125 NA
ATOM     25  N   UNL     1       8.078   9.338   1.127  0.00  0.00    -0.133 NA
ATOM     26  C   UNL     1       7.021  10.022   1.525  0.00  0.00    +0.161 A 
ATOM     27  S   UNL     1       7.788  11.459   2.257  0.00  0.00    -0.024 S 
ATOM     28  H   UNL     1      10.612  12.494   2.809  0.00  0.00    +0.154 HD
BRANCH  22  33
ATOM     29  C   UNL     1      15.677   9.682   0.564  0.00  0.00    +0.044 C 
ATOM     30  C   UNL     1      14.343  10.212   1.022  0.00  0.00    -0.047 A 
ATOM     31  C   UNL     1      13.195   9.889   0.322  0.00  0.00    +0.005 A 
ATOM     32  C   UNL     1      11.971  10.373   0.739  0.00  0.00    +0.023 A 
ATOM     33  C   UNL     1      11.893  11.185   1.863  0.00  0.00    +0.033 A 
ATOM     34  C   UNL     1      13.049  11.512   2.561  0.00  0.00    +0.027 A 
ATOM     35  C   UNL     1      14.269  11.021   2.142  0.00  0.00    -0.046 A 
ATOM     36  C   UNL     1      15.523  11.370   2.901  0.00  0.00    +0.044 C 
ENDBRANCH  22  33
ENDBRANCH  21  26
ENDBRANCH   1  21
TORSDOF 7
