REMARK  Name = ZINC43548717
REMARK  7 active torsions:
REMARK  status: ('A' for Active; 'I' for Inactive)
REMARK    1  A    between atoms: C_1  and  C_2
REMARK    2  A    between atoms: N_9  and  C_10
REMARK    3  A    between atoms: C_18  and  C_39
REMARK    4  A    between atoms: C_21  and  O_38
REMARK    5  A    between atoms: C_23  and  C_27
REMARK    6  A    between atoms: C_27  and  C_29
REMARK    7  A    between atoms: C_27  and  C_30
REMARK                            x       y       z     vdW  Elec       q    Type
REMARK                         _______ _______ _______ _____ _____    ______ ____
ROOT
ATOM      1  C   UNL     1      -0.483   1.585  -0.130  0.00  0.00    +0.014 C 
ATOM      2  C   UNL     1      -0.361   0.059  -0.142  0.00  0.00    +0.042 C 
ATOM      3  C   UNL     1      -1.734  -0.562   0.067  0.00  0.00    +0.057 A 
ATOM      4  C   UNL     1      -2.087  -1.059   1.279  0.00  0.00    +0.015 A 
ATOM      5  S   UNL     1      -3.732  -1.647   0.991  0.00  0.00    -0.057 S 
ATOM      6  C   UNL     1      -3.838  -1.218  -0.635  0.00  0.00    +0.163 A 
ATOM      7  N   UNL     1      -2.667  -0.670  -0.876  0.00  0.00    -0.229 NA
ATOM      8  N   UNL     1      -4.901  -1.400  -1.507  0.00  0.00    -0.294 N 
ATOM      9  C   UNL     1      -1.270  -1.089   2.525  0.00  0.00    +0.051 C 
ATOM     10  C   UNL     1      -0.074  -0.135   2.355  0.00  0.00    -0.022 C 
ATOM     11  C   UNL     1       0.567  -0.386   0.984  0.00  0.00    +0.033 C 
ATOM     12  C   UNL     1       0.902  -1.871   0.850  0.00  0.00    +0.123 C 
ATOM     13  C   UNL     1       1.911  -2.256   1.936  0.00  0.00    +0.029 C 
ATOM     14  C   UNL     1       1.320  -1.968   3.317  0.00  0.00    +0.007 C 
ATOM     15  C   UNL     1       0.962  -0.483   3.434  0.00  0.00    +0.008 C 
ATOM     16  C   UNL     1      -0.525   1.321   2.492  0.00  0.00    +0.012 C 
ATOM     17  H   UNL     1      -4.798  -1.187  -2.448  0.00  0.00    +0.154 HD
ENDROOT
BRANCH   8  18
ATOM     18  C   UNL     1      -6.121  -1.890  -1.030  0.00  0.00    +0.033 A 
ATOM     19  C   UNL     1      -6.893  -2.728  -1.826  0.00  0.00    +0.026 A 
ATOM     20  C   UNL     1      -8.097  -3.211  -1.353  0.00  0.00    +0.040 A 
ATOM     21  C   UNL     1      -8.535  -2.861  -0.086  0.00  0.00    +0.124 A 
ATOM     22  C   UNL     1      -7.767  -2.026   0.708  0.00  0.00    +0.040 A 
ATOM     23  C   UNL     1      -6.560  -1.545   0.241  0.00  0.00    +0.026 A 
ATOM     24  F   UNL     1      -9.713  -3.335   0.374  0.00  0.00    -0.205 F 
ENDBRANCH   8  18
BRANCH  13  25
ATOM     25  C   UNL     1       2.235  -3.747   1.824  0.00  0.00    +0.078 C 
ATOM     26  C   UNL     1       0.947  -4.561   1.966  0.00  0.00    +0.017 C 
BRANCH  25  27
ATOM     27  C   UNL     1       3.198  -4.135   2.916  0.00  0.00    +0.219 C 
ATOM     28  O   UNL     1       2.781  -4.607   3.953  0.00  0.00    -0.275 OA
ATOM     29  N   UNL     1       4.522  -3.958   2.741  0.00  0.00    -0.300 N 
ATOM     30  C   UNL     1       5.009  -3.283   1.537  0.00  0.00    +0.118 C 
ATOM     31  C   UNL     1       5.662  -1.951   1.926  0.00  0.00    +0.088 C 
ATOM     32  S   UNL     1       6.996  -2.284   3.115  0.00  0.00    -0.158 S 
ATOM     33  C   UNL     1       6.164  -3.248   4.412  0.00  0.00    +0.088 C 
ATOM     34  C   UNL     1       5.457  -4.437   3.761  0.00  0.00    +0.118 C 
ENDBRANCH  25  27
ENDBRANCH  13  25
BRANCH  12  35
ATOM     35  O   UNL     1       1.466  -2.120  -0.439  0.00  0.00    -0.391 OA
ATOM     36  H   UNL     1       1.630  -3.055  -0.623  0.00  0.00    +0.210 HD
ENDBRANCH  12  35
TORSDOF 4
