REMARK  Name = ZINC44714492
REMARK  8 active torsions:
REMARK  status: ('A' for Active; 'I' for Inactive)
REMARK    1  A    between atoms: C_1  and  C_2
REMARK    2  A    between atoms: C_3  and  C_14
REMARK    3  A    between atoms: C_6  and  C_12
REMARK    4  A    between atoms: C_14  and  C_15
REMARK    5  A    between atoms: C_15  and  N_16
REMARK    6  A    between atoms: C_17  and  C_19
REMARK    7  A    between atoms: C_30  and  C_32
REMARK    8  A    between atoms: C_32  and  C_33
REMARK                            x       y       z     vdW  Elec       q    Type
REMARK                         _______ _______ _______ _____ _____    ______ ____
ROOT
ATOM      1  C   UNL     1       2.563   1.089  -6.477  0.00  0.00    +0.100 C 
ATOM      2  C   UNL     1       2.030  -0.017  -7.415  0.00  0.00    +0.121 C 
ATOM      3  N   UNL     1       2.846   0.111  -8.646  0.00  0.00    -0.300 N 
ATOM      4  C   UNL     1       4.212   0.407  -8.153  0.00  0.00    +0.115 C 
ATOM      5  C   UNL     1       3.996   1.363  -6.964  0.00  0.00    -0.004 C 
ATOM      6  C   UNL     1       4.998   1.060  -5.854  0.00  0.00    -0.010 C 
ATOM      7  C   UNL     1       6.410   1.396  -6.342  0.00  0.00    -0.082 C 
ATOM      8  N   UNL     1       6.477   2.814  -6.715  0.00  0.00    +0.379 N 
ATOM      9  C   UNL     1       5.577   3.077  -7.845  0.00  0.00    -0.082 C 
ATOM     10  C   UNL     1       4.130   2.813  -7.421  0.00  0.00    -0.010 C 
ATOM     11  C   UNL     1       2.437  -0.013  -9.924  0.00  0.00    +0.220 C 
ATOM     12  O   UNL     1       3.232   0.120 -10.830  0.00  0.00    -0.275 OA
ATOM     13  H   UNL     1       6.200   3.381  -5.928  0.00  0.00    -0.086 HD
ATOM     14  H   UNL     1       7.422   3.047  -6.978  0.00  0.00    -0.086 HD
ENDROOT
BRANCH   1  16
ATOM     15  N   UNL     1       2.439   1.484  -4.038  0.00  0.00    -0.315 N 
ATOM     16  C   UNL     1       2.577   0.605  -5.050  0.00  0.00    +0.218 C 
ATOM     17  O   UNL     1       2.713  -0.577  -4.812  0.00  0.00    -0.275 OA
ATOM     18  H   UNL     1       2.330   2.429  -4.229  0.00  0.00    +0.149 HD
BRANCH  15  19
ATOM     19  C   UNL     1       2.453   1.013  -2.651  0.00  0.00    +0.109 C 
BRANCH  19  20
ATOM     20  C   UNL     1       2.278   2.204  -1.706  0.00  0.00    +0.056 C 
BRANCH  20  23
ATOM     21  C   UNL     1       4.784   1.918   0.103  0.00  0.00    +0.063 C 
ATOM     22  C   UNL     1       3.370   1.593   0.510  0.00  0.00    +0.017 A 
ATOM     23  C   UNL     1       2.293   1.719  -0.280  0.00  0.00    -0.018 A 
ATOM     24  C   UNL     1       1.132   1.297   0.510  0.00  0.00    +0.004 A 
ATOM     25  C   UNL     1      -0.233   1.205   0.250  0.00  0.00    +0.029 A 
ATOM     26  C   UNL     1      -1.090   0.752   1.248  0.00  0.00    +0.052 A 
ATOM     27  C   UNL     1      -0.578   0.393   2.503  0.00  0.00    +0.021 A 
ATOM     28  C   UNL     1       0.758   0.482   2.760  0.00  0.00    +0.027 A 
ATOM     29  C   UNL     1       1.634   0.933   1.775  0.00  0.00    +0.047 A 
ATOM     30  N   UNL     1       2.996   1.120   1.739  0.00  0.00    -0.358 N 
ATOM     31  H   UNL     1       3.602   0.944   2.476  0.00  0.00    +0.166 HD
BRANCH  26  32
ATOM     32  C   UNL     1      -2.496   0.653   0.994  0.00  0.00    +0.099 C 
ATOM     33  N   UNL     1      -3.611   0.575   0.792  0.00  0.00    -0.191 NA
ENDBRANCH  26  32
ENDBRANCH  20  23
ENDBRANCH  19  20
ENDBRANCH  15  19
ENDBRANCH   1  16
BRANCH  11  34
ATOM     34  C   UNL     1       0.993  -0.317 -10.228  0.00  0.00    +0.131 C 
BRANCH  34  35
ATOM     35  C   UNL     1       0.801  -0.404 -11.720  0.00  0.00    -0.039 A 
ATOM     36  C   UNL     1       0.479   0.730 -12.442  0.00  0.00    +0.005 A 
ATOM     37  C   UNL     1       0.302   0.651 -13.811  0.00  0.00    +0.020 A 
ATOM     38  C   UNL     1       0.448  -0.563 -14.458  0.00  0.00    +0.041 A 
ATOM     39  C   UNL     1       0.770  -1.698 -13.734  0.00  0.00    +0.020 A 
ATOM     40  C   UNL     1       0.952  -1.616 -12.367  0.00  0.00    +0.005 A 
ATOM     41 CL   UNL     1       0.226  -0.663 -16.177  0.00  0.00    -0.084 Cl
ENDBRANCH  34  35
ENDBRANCH  11  34
TORSDOF 7
