REMARK  Name = ZINC35990780
REMARK  9 active torsions:
REMARK  status: ('A' for Active; 'I' for Inactive)
REMARK    1  A    between atoms: C_1  and  C_2
REMARK    2  A    between atoms: C_2  and  N_3
REMARK    3  A    between atoms: C_4  and  C_23
REMARK    4  A    between atoms: C_5  and  C_18
REMARK    5  A    between atoms: C_6  and  C_11
REMARK    6  A    between atoms: C_18  and  O_20
REMARK    7  A    between atoms: O_20  and  C_21
REMARK    8  A    between atoms: C_21  and  C_22
REMARK    9  A    between atoms: C_23  and  N_24
REMARK                            x       y       z     vdW  Elec       q    Type
REMARK                         _______ _______ _______ _____ _____    ______ ____
ROOT
ATOM      1  N   UNL     1      -1.417  -0.412   0.126  0.00  0.00    -0.258 N 
ATOM      2  C   UNL     1      -2.107  -0.582   1.292  0.00  0.00    +0.041 C 
ATOM      3  C   UNL     1      -3.344  -1.123   1.298  0.00  0.00    +0.080 C 
ATOM      4  C   UNL     1      -3.940  -1.535  -0.033  0.00  0.00    +0.146 C 
ATOM      5  N   UNL     1      -3.115  -1.309  -1.232  0.00  0.00    -0.288 N 
ATOM      6  C   UNL     1      -1.897  -0.752  -1.077  0.00  0.00    +0.307 C 
ATOM      7  O   UNL     1      -1.210  -0.558  -2.061  0.00  0.00    -0.252 OA
ATOM      8  H   UNL     1      -3.442  -1.551  -2.112  0.00  0.00    +0.151 HD
ENDROOT
BRANCH   4   9
ATOM      9  C   UNL     1      -4.263  -3.005   0.037  0.00  0.00    +0.013 A 
ATOM     10  C   UNL     1      -3.336  -3.938  -0.390  0.00  0.00    +0.008 A 
ATOM     11  C   UNL     1      -3.632  -5.286  -0.326  0.00  0.00    +0.001 A 
ATOM     12  C   UNL     1      -4.855  -5.704   0.166  0.00  0.00    +0.003 A 
ATOM     13  C   UNL     1      -5.782  -4.774   0.594  0.00  0.00    +0.039 A 
ATOM     14  C   UNL     1      -5.485  -3.423   0.534  0.00  0.00    +0.129 A 
ATOM     15  F   UNL     1      -6.390  -2.513   0.957  0.00  0.00    -0.205 F 
ENDBRANCH   4   9
BRANCH   1  17
ATOM     16  C   UNL     1      -0.191   1.703   0.075  0.00  0.00    +0.025 C 
ATOM     17  C   UNL     1      -0.080   0.182   0.193  0.00  0.00    +0.111 C 
ENDBRANCH   1  17
BRANCH   3  18
ATOM     18  C   UNL     1      -4.059  -1.301   2.506  0.00  0.00    +0.339 C 
ATOM     19  O   UNL     1      -4.948  -0.527   2.805  0.00  0.00    -0.245 OA
BRANCH  18  20
ATOM     20  O   UNL     1      -3.754  -2.329   3.325  0.00  0.00    -0.462 OA
BRANCH  20  21
ATOM     21  C   UNL     1      -4.517  -2.448   4.527  0.00  0.00    +0.229 C 
ATOM     22  C   UNL     1      -4.032  -3.663   5.321  0.00  0.00    +0.048 C 
ENDBRANCH  20  21
ENDBRANCH  18  20
ENDBRANCH   3  18
BRANCH   2  23
ATOM     23  C   UNL     1      -1.477  -0.159   2.594  0.00  0.00    +0.136 C 
BRANCH  23  24
ATOM     24  N   UNL     1      -0.302  -0.998   2.865  0.00  0.00    -0.299 NA
ATOM     25  C   UNL     1      -0.691  -2.420   3.030  0.00  0.00    +0.083 C 
ATOM     26  C   UNL     1       0.503  -3.283   2.711  0.00  0.00    -0.004 C 
ATOM     27  C   UNL     1       1.338  -3.622   3.956  0.00  0.00    -0.081 C 
ATOM     28  N   UNL     1       1.508  -2.464   4.862  0.00  0.00    +0.380 N 
ATOM     29  C   UNL     1       1.770  -1.239   4.141  0.00  0.00    -0.067 C 
ATOM     30  C   UNL     1       0.436  -0.494   3.940  0.00  0.00    +0.066 C 
ATOM     31  H   UNL     1       0.667  -2.349   5.408  0.00  0.00    -0.086 HD
ATOM     32  H   UNL     1       2.279  -2.647   5.487  0.00  0.00    -0.086 HD
ENDBRANCH  23  24
ENDBRANCH   2  23
TORSDOF 7
