REMARK  Name = ZINC63403983
REMARK  11 active torsions:
REMARK  status: ('A' for Active; 'I' for Inactive)
REMARK    1  A    between atoms: C_1  and  C_2
REMARK    2  A    between atoms: C_2  and  C_4
REMARK    3  A    between atoms: C_2  and  S_16
REMARK    4  A    between atoms: N_6  and  C_7
REMARK    5  A    between atoms: C_10  and  N_13
REMARK    6  A    between atoms: N_13  and  C_14
REMARK    7  A    between atoms: N_13  and  C_15
REMARK    8  A    between atoms: S_16  and  C_17
REMARK    9  A    between atoms: C_21  and  C_30
REMARK   10  A    between atoms: N_22  and  C_23
REMARK   11  A    between atoms: C_23  and  C_24
REMARK                            x       y       z     vdW  Elec       q    Type
REMARK                         _______ _______ _______ _____ _____    ______ ____
ROOT
ATOM      1  C   UNL     1      -2.192  -0.037   2.105  0.00  0.00    +0.237 C 
ATOM      2  N   UNL     1      -1.071  -0.247   3.037  0.00  0.00    -0.237 N 
ATOM      3  N   UNL     1      -0.683   1.021   3.484  0.00  0.00    -0.169 NA
ATOM      4  C   UNL     1      -1.417   1.959   2.947  0.00  0.00    +0.147 C 
ATOM      5  N   UNL     1      -2.379   1.423   2.083  0.00  0.00    -0.283 N 
ATOM      6  H   UNL     1      -0.680  -1.097   3.292  0.00  0.00    +0.171 HD
ENDROOT
BRANCH   4   7
ATOM      7  C   UNL     1      -1.263   3.330   3.205  0.00  0.00    +0.022 C 
ATOM      8  C   UNL     1      -0.410   3.922   4.138  0.00  0.00    +0.006 A 
ATOM      9  C   UNL     1       0.511   3.385   5.063  0.00  0.00    +0.010 A 
ATOM     10  C   UNL     1       1.222   4.218   5.865  0.00  0.00    +0.001 A 
ATOM     11  C   UNL     1       1.067   5.604   5.801  0.00  0.00    +0.002 A 
ATOM     12  C   UNL     1       0.201   6.188   4.937  0.00  0.00    +0.026 A 
ATOM     13  C   UNL     1      -0.578   5.383   4.066  0.00  0.00    +0.043 A 
ATOM     14  N   UNL     1      -1.473   5.700   3.152  0.00  0.00    -0.380 N 
ATOM     15  C   UNL     1      -1.980   4.475   2.526  0.00  0.00    +0.152 C 
ATOM     16  H   UNL     1      -1.750   6.602   2.926  0.00  0.00    +0.160 HD
ENDBRANCH   4   7
BRANCH   1  17
ATOM     17  S   UNL     1      -1.765  -0.647   0.451  0.00  0.00    -0.106 S 
BRANCH  17  19
ATOM     18  C   UNL     1      -0.573   1.753  -0.095  0.00  0.00    +0.029 C 
ATOM     19  C   UNL     1      -0.254   0.262   0.025  0.00  0.00    +0.133 C 
BRANCH  19  20
ATOM     20  C   UNL     1       0.282  -0.244  -1.290  0.00  0.00    +0.230 C 
ATOM     21  O   UNL     1      -0.466  -0.764  -2.090  0.00  0.00    -0.274 OA
ATOM     22  N   UNL     1       1.593  -0.119  -1.576  0.00  0.00    -0.285 N 
ATOM     23  H   UNL     1       2.176   0.370  -0.975  0.00  0.00    +0.155 HD
BRANCH  22  24
ATOM     24  C   UNL     1       2.114  -0.695  -2.742  0.00  0.00    +0.034 A 
ATOM     25  C   UNL     1       3.377  -1.273  -2.727  0.00  0.00    +0.025 A 
ATOM     26  C   UNL     1       3.890  -1.841  -3.876  0.00  0.00    +0.025 A 
ATOM     27  C   UNL     1       3.143  -1.835  -5.047  0.00  0.00    +0.029 A 
ATOM     28  C   UNL     1       1.880  -1.257  -5.062  0.00  0.00    +0.025 A 
ATOM     29  C   UNL     1       1.365  -0.693  -3.912  0.00  0.00    +0.025 A 
BRANCH  27  30
ATOM     30  N   UNL     1       3.663  -2.410  -6.211  0.00  0.00    -0.336 N 
ATOM     31  C   UNL     1       4.995  -3.020  -6.195  0.00  0.00    +0.129 C 
ATOM     32  C   UNL     1       2.876  -2.404  -7.446  0.00  0.00    +0.129 C 
ENDBRANCH  27  30
ENDBRANCH  22  24
ENDBRANCH  19  20
ENDBRANCH  17  19
ENDBRANCH   1  17
BRANCH   5  33
ATOM     33  C   UNL     1      -3.376   2.166   1.308  0.00  0.00    +0.140 C 
BRANCH  33  34
ATOM     34  C   UNL     1      -4.701   2.192   2.073  0.00  0.00    +0.136 C 
ATOM     35  C   UNL     1      -5.769   2.937   1.244  0.00  0.00    +0.035 C 
ATOM     36  C   UNL     1      -6.532   3.739   2.334  0.00  0.00    +0.031 C 
ATOM     37  C   UNL     1      -5.381   4.065   3.319  0.00  0.00    +0.160 C 
ATOM     38  O   UNL     1      -4.535   2.901   3.307  0.00  0.00    -0.375 OA
ENDBRANCH  33  34
ENDBRANCH   5  33
TORSDOF 8
