REMARK  Name = ZINC05600287
REMARK  2 active torsions:
REMARK  status: ('A' for Active; 'I' for Inactive)
REMARK    1  A    between atoms: C_10  and  C_11
REMARK    2  A    between atoms: C_10  and  C_13
REMARK                            x       y       z     vdW  Elec       q    Type
REMARK                         _______ _______ _______ _____ _____    ______ ____
ROOT
ATOM      1  C   UNL     1       3.283   2.514  -0.785  0.00  0.00    +0.005 C 
ATOM      2  C   UNL     1       2.264   3.676  -0.902  0.00  0.00    +0.010 C 
ATOM      3  C   UNL     1       1.188   3.296   0.129  0.00  0.00    +0.044 C 
ATOM      4  C   UNL     1       1.076   1.796  -0.022  0.00  0.00    -0.062 C 
ATOM      5  C   UNL     1      -0.042   1.075  -0.002  0.00  0.00    +0.046 C 
ATOM      6  C   UNL     1      -1.291   1.869   0.028  0.00  0.00    +0.158 C 
ATOM      7  O   UNL     1      -2.300   1.483   0.580  0.00  0.00    -0.293 OA
ATOM      8  C   UNL     1      -1.208   3.206  -0.682  0.00  0.00    +0.109 C 
ATOM      9  C   UNL     1      -0.108   4.042  -0.032  0.00  0.00    +0.185 C 
ATOM     10  C   UNL     1       2.503   1.323  -0.184  0.00  0.00    +0.031 C 
ENDROOT
BRANCH   9  11
ATOM     11  C   UNL     1      -0.581   4.490   1.327  0.00  0.00    +0.374 C 
ATOM     12  O   UNL     1       0.071   4.227   2.310  0.00  0.00    -0.245 OA
ATOM     13  O   UNL     1      -1.726   5.181   1.445  0.00  0.00    -0.245 OA
ENDBRANCH   9  11
BRANCH   9  14
ATOM     14  C   UNL     1       0.138   5.262  -0.881  0.00  0.00    +0.374 C 
ATOM     15  O   UNL     1      -0.368   5.349  -1.975  0.00  0.00    -0.245 OA
ATOM     16  O   UNL     1       0.920   6.252  -0.422  0.00  0.00    -0.245 OA
ENDBRANCH   9  14
TORSDOF 2
