REMARK  Name = ZINC04524093
REMARK  8 active torsions:
REMARK  status: ('A' for Active; 'I' for Inactive)
REMARK    1  A    between atoms: C_1  and  C_2
REMARK    2  A    between atoms: C_2  and  C_3
REMARK    3  A    between atoms: C_2  and  N_4
REMARK    4  A    between atoms: C_8  and  C_10
REMARK    5  A    between atoms: C_10  and  O_11
REMARK    6  A    between atoms: O_11  and  C_12
REMARK    7  A    between atoms: C_12  and  C_14
REMARK    8  A    between atoms: N_23  and  C_25
REMARK                            x       y       z     vdW  Elec       q    Type
REMARK                         _______ _______ _______ _____ _____    ______ ____
ROOT
ATOM      1  C   UNL     1       1.110   3.574  -0.122  0.00  0.00    +0.176 A 
ATOM      2  C   UNL     1       1.199   2.109  -0.004  0.00  0.00    +0.021 A 
ATOM      3  C   UNL     1       2.409   1.424  -0.026  0.00  0.00    +0.011 A 
ATOM      4  C   UNL     1       2.411   0.050   0.089  0.00  0.00    +0.001 A 
ATOM      5  C   UNL     1       1.222  -0.654   0.226  0.00  0.00    +0.001 A 
ATOM      6  C   UNL     1       0.011   0.006   0.250  0.00  0.00    +0.014 A 
ATOM      7  C   UNL     1      -0.012   1.392   0.135  0.00  0.00    +0.051 A 
ATOM      8  C   UNL     1      -1.257   2.173   0.144  0.00  0.00    +0.280 A 
ATOM      9  O   UNL     1      -2.336   1.622   0.256  0.00  0.00    -0.265 OA
ATOM     10  N   UNL     1      -1.175   3.514   0.031  0.00  0.00    -0.196 N 
ATOM     11  N   UNL     1      -0.070   4.147  -0.094  0.00  0.00    -0.156 NA
ENDROOT
BRANCH  10  12
ATOM     12  C   UNL     1      -2.363   4.253   0.046  0.00  0.00    +0.069 A 
ATOM     13  C   UNL     1      -2.596   5.215  -0.928  0.00  0.00    +0.028 A 
ATOM     14  C   UNL     1      -3.772   5.940  -0.914  0.00  0.00    +0.002 A 
ATOM     15  C   UNL     1      -4.712   5.716   0.076  0.00  0.00    +0.000 A 
ATOM     16  C   UNL     1      -4.480   4.762   1.051  0.00  0.00    +0.002 A 
ATOM     17  C   UNL     1      -3.309   4.031   1.039  0.00  0.00    +0.028 A 
ENDBRANCH  10  12
BRANCH   1  18
ATOM     18  C   UNL     1       2.331   4.386  -0.270  0.00  0.00    +0.361 C 
ATOM     19  O   UNL     1       3.420   3.848  -0.295  0.00  0.00    -0.243 OA
BRANCH  18  20
ATOM     20  O   UNL     1       2.240   5.727  -0.377  0.00  0.00    -0.451 OA
BRANCH  20  21
ATOM     21  C   UNL     1       3.483   6.463  -0.519  0.00  0.00    +0.328 C 
BRANCH  21  26
ATOM     22  N   UNL     1       4.936  11.020  -0.998  0.00  0.00    -0.297 N 
ATOM     23  C   UNL     1       3.928  10.137  -0.858  0.00  0.00    +0.306 C 
ATOM     24  O   UNL     1       2.778  10.529  -0.817  0.00  0.00    -0.252 OA
ATOM     25  N   UNL     1       4.194   8.819  -0.764  0.00  0.00    -0.237 N 
ATOM     26  C   UNL     1       3.186   7.936  -0.625  0.00  0.00    +0.258 C 
ATOM     27  O   UNL     1       2.039   8.328  -0.584  0.00  0.00    -0.272 OA
ATOM     28  H   UNL     1       5.854  10.707  -1.031  0.00  0.00    +0.151 HD
ATOM     29  H   UNL     1       5.112   8.507  -0.797  0.00  0.00    +0.159 HD
BRANCH  22  31
ATOM     30  C   UNL     1       5.864  13.254  -0.633  0.00  0.00    +0.027 C 
ATOM     31  C   UNL     1       4.647  12.453  -1.100  0.00  0.00    +0.068 C 
ATOM     32  C   UNL     1       4.331  12.807  -2.555  0.00  0.00    +0.027 C 
ENDBRANCH  22  31
ENDBRANCH  21  26
ENDBRANCH  20  21
ENDBRANCH  18  20
ENDBRANCH   1  18
TORSDOF 6
