REMARK  Name = ZINC10188467
REMARK  10 active torsions:
REMARK  status: ('A' for Active; 'I' for Inactive)
REMARK    1  A    between atoms: C_1  and  N_2
REMARK    2  A    between atoms: N_2  and  C_3
REMARK    3  A    between atoms: N_2  and  C_4
REMARK    4  A    between atoms: C_7  and  C_10
REMARK    5  A    between atoms: C_10  and  C_12
REMARK    6  A    between atoms: C_10  and  N_64
REMARK    7  A    between atoms: C_12  and  N_13
REMARK    8  A    between atoms: C_14  and  C_16
REMARK    9  A    between atoms: N_18  and  C_19
REMARK   10  A    between atoms: C_24  and  C_25
REMARK                            x       y       z     vdW  Elec       q    Type
REMARK                         _______ _______ _______ _____ _____    ______ ____
ROOT
ATOM      1  C   UNL     1       8.448   2.460  -0.471  0.00  0.00    -0.020 C 
ENDROOT
BRANCH   1  11
ATOM      2  C   UNL     1       8.075   3.924  -2.366  0.00  0.00    -0.073 C 
ATOM      3  C   UNL     1       7.837   5.394  -2.711  0.00  0.00    +0.017 C 
ATOM      4  C   UNL     1       9.042   6.214  -2.326  0.00  0.00    -0.048 A 
ATOM      5  C   UNL     1       9.177   7.484  -2.866  0.00  0.00    +0.004 A 
ATOM      6  C   UNL     1      10.264   8.269  -2.537  0.00  0.00    +0.000 A 
ATOM      7  C   UNL     1      11.222   7.787  -1.665  0.00  0.00    +0.000 A 
ATOM      8  C   UNL     1      11.089   6.523  -1.128  0.00  0.00    +0.002 A 
ATOM      9  C   UNL     1       9.998   5.731  -1.459  0.00  0.00    -0.061 A 
ATOM     10  C   UNL     1       9.901   4.355  -0.854  0.00  0.00    -0.042 C 
ATOM     11  N   UNL     1       8.520   3.856  -0.960  0.00  0.00    +0.388 N 
ATOM     12  H   UNL     1       7.906   4.443  -0.385  0.00  0.00    -0.080 HD
ENDBRANCH   1  11
BRANCH   1  16
ATOM     13  C   UNL     1      10.875  -0.088  -2.896  0.00  0.00    +0.029 A 
ATOM     14  C   UNL     1      11.189   0.103  -1.556  0.00  0.00    +0.023 A 
ATOM     15  C   UNL     1      10.402   0.927  -0.776  0.00  0.00    +0.004 A 
ATOM     16  C   UNL     1       9.304   1.561  -1.326  0.00  0.00    -0.059 A 
ATOM     17  C   UNL     1       8.985   1.368  -2.658  0.00  0.00    +0.004 A 
ATOM     18  C   UNL     1       9.771   0.550  -3.446  0.00  0.00    +0.023 A 
BRANCH  13  20
ATOM     19  C   UNL     1      12.761  -1.687  -3.082  0.00  0.00    +0.129 C 
ATOM     20  N   UNL     1      11.668  -0.922  -3.688  0.00  0.00    -0.336 N 
ATOM     21  C   UNL     1      11.408  -1.031  -5.126  0.00  0.00    +0.129 C 
ENDBRANCH  13  20
ENDBRANCH   1  16
BRANCH   1  22
ATOM     22  C   UNL     1       6.994   1.986  -0.530  0.00  0.00    +0.094 C 
BRANCH  22  23
ATOM     23  N   UNL     1       6.159   2.871   0.286  0.00  0.00    -0.309 N 
ATOM     24  C   UNL     1       4.853   2.589   0.466  0.00  0.00    +0.299 C 
ATOM     25  O   UNL     1       4.370   1.601  -0.048  0.00  0.00    -0.265 OA
ATOM     26  H   UNL     1       6.546   3.660   0.698  0.00  0.00    +0.149 HD
BRANCH  24  27
ATOM     27  C   UNL     1       4.002   3.490   1.298  0.00  0.00    +0.303 C 
ATOM     28  O   UNL     1       4.486   4.478   1.813  0.00  0.00    -0.265 OA
ATOM     29  N   UNL     1       2.696   3.208   1.478  0.00  0.00    -0.277 N 
ATOM     30  H   UNL     1       2.326   2.382   1.129  0.00  0.00    +0.155 HD
BRANCH  29  31
ATOM     31  C   UNL     1       1.879   4.102   2.165  0.00  0.00    +0.051 A 
ATOM     32  C   UNL     1       2.212   5.449   2.223  0.00  0.00    +0.024 A 
ATOM     33  C   UNL     1       1.400   6.333   2.904  0.00  0.00    +0.002 A 
ATOM     34  C   UNL     1       0.249   5.887   3.533  0.00  0.00    +0.001 A 
ATOM     35  C   UNL     1      -0.100   4.554   3.482  0.00  0.00    +0.021 A 
ATOM     36  C   UNL     1       0.714   3.646   2.801  0.00  0.00    +0.073 A 
BRANCH  36  37
ATOM     37  C   UNL     1       0.360   2.260   2.749  0.00  0.00    +0.101 C 
ATOM     38  N   UNL     1       0.079   1.160   2.707  0.00  0.00    -0.191 NA
ENDBRANCH  36  37
ENDBRANCH  29  31
ENDBRANCH  24  27
ENDBRANCH  22  23
ENDBRANCH   1  22
TORSDOF 8
