REMARK  Name = ZINC20452533
REMARK  7 active torsions:
REMARK  status: ('A' for Active; 'I' for Inactive)
REMARK    1  A    between atoms: C_1  and  C_2
REMARK    2  A    between atoms: C_2  and  C_4
REMARK    3  A    between atoms: C_2  and  N_14
REMARK    4  A    between atoms: N_14  and  C_15
REMARK    5  A    between atoms: N_14  and  C_16
REMARK    6  A    between atoms: C_16  and  C_17
REMARK    7  A    between atoms: C_22  and  C_23
REMARK                            x       y       z     vdW  Elec       q    Type
REMARK                         _______ _______ _______ _____ _____    ______ ____
ROOT
ATOM      1  C   UNL     1      -5.712  -1.315   1.400  0.00  0.00    -0.039 C 
ENDROOT
BRANCH   1   2
ATOM      2  C   UNL     1      -6.462  -0.919   2.645  0.00  0.00    -0.016 A 
ATOM      3  C   UNL     1      -6.206   0.158   3.418  0.00  0.00    +0.107 A 
ATOM      4  N   UNL     1      -7.098   0.165   4.433  0.00  0.00    -0.284 N 
ATOM      5  H   UNL     1      -7.071   0.969   5.183  0.00  0.00    +0.188 HD
ATOM      6  N   UNL     1      -7.931  -0.953   4.291  0.00  0.00    -0.171 NA
ATOM      7  C   UNL     1      -7.552  -1.611   3.214  0.00  0.00    +0.129 A 
BRANCH   7   8
ATOM      8  C   UNL     1      -8.161  -2.853   2.694  0.00  0.00    +0.156 A 
ATOM      9  C   UNL     1      -8.639  -3.864   3.457  0.00  0.00    +0.060 A 
ATOM     10  C   UNL     1      -9.142  -4.875   2.524  0.00  0.00    +0.021 A 
ATOM     11  C   UNL     1      -9.745  -6.125   2.675  0.00  0.00    +0.011 A 
ATOM     12  C   UNL     1     -10.108  -6.840   1.568  0.00  0.00    +0.001 A 
ATOM     13  C   UNL     1      -9.881  -6.331   0.297  0.00  0.00    +0.004 A 
ATOM     14  C   UNL     1      -9.286  -5.098   0.128  0.00  0.00    +0.047 A 
ATOM     15  C   UNL     1      -8.909  -4.355   1.239  0.00  0.00    +0.136 A 
ATOM     16  O   UNL     1      -8.329  -3.147   1.389  0.00  0.00    -0.453 OA
ENDBRANCH   7   8
ENDBRANCH   1   2
BRANCH   1  17
ATOM     17  N   UNL     1      -4.765  -0.252   1.039  0.00  0.00    +0.385 N 
ATOM     18  C   UNL     1      -5.470   0.924   0.510  0.00  0.00    -0.095 C 
ATOM     19  H   UNL     1      -4.236   0.054   1.954  0.00  0.00    -0.081 HD
BRANCH  17  21
ATOM     20  C   UNL     1      -2.815   0.400  -0.291  0.00  0.00    -0.008 C 
ATOM     21  C   UNL     1      -3.764  -0.741   0.081  0.00  0.00    -0.041 C 
BRANCH  21  22
ATOM     22  C   UNL     1      -2.978  -1.865   0.705  0.00  0.00    -0.057 A 
ATOM     23  C   UNL     1      -2.475  -1.727   1.986  0.00  0.00    +0.006 A 
ATOM     24  C   UNL     1      -1.749  -2.754   2.559  0.00  0.00    +0.049 A 
ATOM     25  C   UNL     1      -1.530  -3.928   1.855  0.00  0.00    +0.162 A 
ATOM     26  C   UNL     1      -2.038  -4.067   0.569  0.00  0.00    +0.162 A 
ATOM     27  C   UNL     1      -2.762  -3.031  -0.003  0.00  0.00    +0.051 A 
ATOM     28  O   UNL     1      -1.836  -5.212  -0.140  0.00  0.00    -0.485 OA
ATOM     29  C   UNL     1      -0.791  -6.077   0.319  0.00  0.00    +0.270 C 
ATOM     30  C   UNL     1      -0.928  -6.229   1.840  0.00  0.00    +0.270 C 
ATOM     31  O   UNL     1      -0.813  -4.930   2.433  0.00  0.00    -0.485 OA
ENDBRANCH  21  22
ENDBRANCH  17  21
ENDBRANCH   1  17
TORSDOF 5
