REMARK  Name = ZINC40650740
REMARK  6 active torsions:
REMARK  status: ('A' for Active; 'I' for Inactive)
REMARK    1  A    between atoms: C_1  and  C_2
REMARK    2  A    between atoms: C_5  and  C_8
REMARK    3  A    between atoms: C_8  and  N_9
REMARK    4  A    between atoms: C_11  and  N_29
REMARK    5  A    between atoms: C_12  and  N_16
REMARK    6  A    between atoms: N_19  and  C_22
REMARK                            x       y       z     vdW  Elec       q    Type
REMARK                         _______ _______ _______ _____ _____    ______ ____
ROOT
ATOM      1  N   UNL     1       1.419  -4.752  -0.007  0.00  0.00    -0.323 N 
ATOM      2  C   UNL     1       1.704  -6.108  -0.029  0.00  0.00    +0.155 A 
ATOM      3  C   UNL     1       3.018  -6.555   0.069  0.00  0.00    +0.205 A 
ATOM      4  C   UNL     1       3.252  -7.927   0.043  0.00  0.00    +0.157 A 
ATOM      5  N   UNL     1       2.216  -8.756  -0.073  0.00  0.00    -0.218 NA
ATOM      6  C   UNL     1       0.986  -8.294  -0.163  0.00  0.00    +0.225 A 
ATOM      7  N   UNL     1       0.724  -7.003  -0.137  0.00  0.00    -0.218 NA
ATOM      8  H   UNL     1       2.139  -4.106   0.072  0.00  0.00    +0.148 HD
ENDROOT
BRANCH   4   9
ATOM      9  N   UNL     1       4.543  -8.422   0.137  0.00  0.00    -0.310 N 
ATOM     10  C   UNL     1       5.134  -8.728   1.448  0.00  0.00    +0.125 C 
ATOM     11  C   UNL     1       5.607 -10.187   1.444  0.00  0.00    +0.124 C 
ATOM     12  N   UNL     1       6.410 -10.416   0.234  0.00  0.00    -0.325 N 
ATOM     13  C   UNL     1       5.819 -10.111  -1.077  0.00  0.00    +0.124 C 
ATOM     14  C   UNL     1       5.343  -8.657  -1.073  0.00  0.00    +0.125 C 
BRANCH  12  15
ATOM     15  C   UNL     1       7.712 -10.916   0.328  0.00  0.00    +0.065 A 
ATOM     16  C   UNL     1       7.935 -12.286   0.300  0.00  0.00    +0.026 A 
ATOM     17  C   UNL     1       9.223 -12.777   0.393  0.00  0.00    +0.002 A 
ATOM     18  C   UNL     1      10.291 -11.907   0.515  0.00  0.00    +0.003 A 
ATOM     19  C   UNL     1      10.074 -10.541   0.544  0.00  0.00    +0.040 A 
ATOM     20  C   UNL     1       8.788 -10.042   0.445  0.00  0.00    +0.144 A 
ATOM     21  F   UNL     1       8.576  -8.708   0.467  0.00  0.00    -0.204 F 
ENDBRANCH  12  15
ENDBRANCH   4   9
BRANCH   3  22
ATOM     22  N   UNL     1       4.139  -5.597   0.197  0.00  0.00    +0.063 N 
ATOM     23  O   UNL     1       4.503  -5.234   1.291  0.00  0.00    -0.126 OA
ATOM     24  O   UNL     1       4.691  -5.176  -0.794  0.00  0.00    -0.126 OA
ENDBRANCH   3  22
BRANCH   1  25
ATOM     25  C   UNL     1       0.031  -4.293  -0.105  0.00  0.00    +0.138 C 
BRANCH  25  30
ATOM     26  C   UNL     1      -0.110   1.481   0.072  0.00  0.00    +0.044 C 
ATOM     27  C   UNL     1      -0.073  -0.025   0.026  0.00  0.00    -0.050 A 
ATOM     28  C   UNL     1       0.042  -0.676  -1.187  0.00  0.00    +0.003 A 
ATOM     29  C   UNL     1       0.075  -2.058  -1.230  0.00  0.00    +0.005 A 
ATOM     30  C   UNL     1      -0.005  -2.787  -0.058  0.00  0.00    -0.030 A 
ATOM     31  C   UNL     1      -0.118  -2.135   1.155  0.00  0.00    +0.005 A 
ATOM     32  C   UNL     1      -0.148  -0.754   1.198  0.00  0.00    +0.003 A 
ENDBRANCH  25  30
ENDBRANCH   1  25
TORSDOF 5
