REMARK  Name = ZINC15969697
REMARK  4 active torsions:
REMARK  status: ('A' for Active; 'I' for Inactive)
REMARK    1  A    between atoms: C_4  and  C_7
REMARK    2  A    between atoms: C_7  and  N_8
REMARK    3  A    between atoms: C_13  and  C_31
REMARK    4  A    between atoms: C_31  and  C_32
REMARK                            x       y       z     vdW  Elec       q    Type
REMARK                         _______ _______ _______ _____ _____    ______ ____
ROOT
ATOM      1  N   UNL     1       4.152  -0.952   1.338  0.00  0.00    -0.237 N 
ATOM      2  C   UNL     1       4.914  -0.089   2.018  0.00  0.00    +0.227 C 
ATOM      3  O   UNL     1       5.321   0.972   1.594  0.00  0.00    -0.275 OA
ATOM      4  C   UNL     1       5.189  -0.640   3.399  0.00  0.00    +0.107 C 
ATOM      5  C   UNL     1       6.685  -1.004   3.510  0.00  0.00    +0.072 C 
ATOM      6  N   UNL     1       6.703  -2.352   4.139  0.00  0.00    -0.295 NA
ATOM      7  C   UNL     1       5.559  -3.052   3.526  0.00  0.00    +0.136 C 
ATOM      8  C   UNL     1       4.432  -1.998   3.399  0.00  0.00    +0.122 C 
ATOM      9  C   UNL     1       3.820  -2.056   2.018  0.00  0.00    +0.229 C 
ATOM     10  O   UNL     1       3.137  -2.962   1.592  0.00  0.00    -0.275 OA
ATOM     11  C   UNL     1       5.926  -3.644   2.195  0.00  0.00    +0.005 A 
ATOM     12  C   UNL     1       6.395  -3.110   1.016  0.00  0.00    +0.008 A 
ATOM     13  C   UNL     1       6.649  -3.933  -0.067  0.00  0.00    +0.002 A 
ATOM     14  C   UNL     1       6.429  -5.295   0.038  0.00  0.00    +0.022 A 
ATOM     15  C   UNL     1       5.958  -5.836   1.217  0.00  0.00    +0.062 A 
ATOM     16  C   UNL     1       5.700  -5.013   2.312  0.00  0.00    +0.057 A 
ATOM     17  N   UNL     1       5.229  -5.316   3.592  0.00  0.00    -0.282 N 
ATOM     18  C   UNL     1       5.118  -4.220   4.366  0.00  0.00    +0.243 C 
ATOM     19  O   UNL     1       4.737  -4.181   5.517  0.00  0.00    -0.273 OA
ATOM     20 CL   UNL     1       5.685  -7.546   1.337  0.00  0.00    -0.082 Cl
ATOM     21  H   UNL     1       7.569  -2.831   3.942  0.00  0.00    +0.124 HD
ATOM     22  H   UNL     1       5.006  -6.213   3.888  0.00  0.00    +0.155 HD
ENDROOT
BRANCH   1  23
ATOM     23  C   UNL     1       3.711  -0.707  -0.038  0.00  0.00    +0.151 C 
BRANCH  23  27
ATOM     24  C   UNL     1      -0.017   1.378   0.010  0.00  0.00    +0.000 A 
ATOM     25  C   UNL     1       1.171   2.086   0.002  0.00  0.00    +0.000 A 
ATOM     26  C   UNL     1       2.377   1.411  -0.013  0.00  0.00    +0.005 A 
ATOM     27  C   UNL     1       2.396   0.029  -0.020  0.00  0.00    -0.030 A 
ATOM     28  C   UNL     1       1.208  -0.679  -0.012  0.00  0.00    +0.005 A 
ATOM     29  C   UNL     1       0.002  -0.004   0.002  0.00  0.00    +0.000 A 
ENDBRANCH  23  27
ENDBRANCH   1  23
BRANCH   5  30
ATOM     30  C   UNL     1       7.415   0.008   4.395  0.00  0.00    +0.056 C 
BRANCH  30  31
ATOM     31  C   UNL     1       8.892  -0.293   4.391  0.00  0.00    -0.021 A 
ATOM     32  C   UNL     1       9.558  -1.033   5.291  0.00  0.00    +0.087 A 
ATOM     33  N   UNL     1      10.885  -1.086   4.961  0.00  0.00    -0.360 N 
ATOM     34  H   UNL     1      11.565  -1.562   5.463  0.00  0.00    +0.165 HD
ATOM     35  C   UNL     1      11.111  -0.364   3.811  0.00  0.00    +0.047 A 
ATOM     36  C   UNL     1       9.871   0.159   3.399  0.00  0.00    +0.003 A 
ATOM     37  C   UNL     1       9.793   0.938   2.244  0.00  0.00    +0.010 A 
ATOM     38  C   UNL     1      10.922   1.186   1.515  0.00  0.00    +0.001 A 
ATOM     39  C   UNL     1      12.146   0.669   1.914  0.00  0.00    +0.002 A 
ATOM     40  C   UNL     1      12.248  -0.095   3.057  0.00  0.00    +0.026 A 
ENDBRANCH  30  31
ENDBRANCH   5  30
TORSDOF 4
