REMARK  Name = ZINC04246103
REMARK  9 active torsions:
REMARK  status: ('A' for Active; 'I' for Inactive)
REMARK    1  A    between atoms: C_1  and  C_2
REMARK    2  A    between atoms: C_2  and  C_4
REMARK    3  A    between atoms: C_2  and  N_12
REMARK    4  A    between atoms: C_13  and  C_15
REMARK    5  A    between atoms: C_15  and  O_16
REMARK    6  A    between atoms: O_16  and  C_17
REMARK    7  A    between atoms: C_17  and  C_19
REMARK    8  A    between atoms: C_22  and  N_26
REMARK    9  A    between atoms: C_24  and  N_25
REMARK                            x       y       z     vdW  Elec       q    Type
REMARK                         _______ _______ _______ _____ _____    ______ ____
ROOT
ATOM      1  C   UNL     1       0.722  -1.038  -3.612  0.00  0.00    +0.328 C 
ENDROOT
BRANCH   1   3
ATOM      2  N   UNL     1       0.707  -0.377  -1.228  0.00  0.00    -0.306 N 
ATOM      3  C   UNL     1       0.023  -0.521  -2.380  0.00  0.00    +0.251 C 
ATOM      4  O   UNL     1      -1.155  -0.236  -2.426  0.00  0.00    -0.272 OA
ATOM      5  H   UNL     1       1.649  -0.605  -1.191  0.00  0.00    +0.149 HD
BRANCH   2   7
ATOM      6  C   UNL     1       0.024   1.655  -0.050  0.00  0.00    +0.033 C 
ATOM      7  C   UNL     1       0.027   0.125  -0.031  0.00  0.00    +0.102 C 
BRANCH   7   8
ATOM      8  C   UNL     1       0.751  -0.360   1.198  0.00  0.00    -0.009 A 
ATOM      9  C   UNL     1       2.094  -0.682   1.128  0.00  0.00    +0.008 A 
ATOM     10  C   UNL     1       2.759  -1.127   2.255  0.00  0.00    +0.020 A 
ATOM     11  C   UNL     1       2.081  -1.251   3.454  0.00  0.00    +0.042 A 
ATOM     12  C   UNL     1       0.737  -0.929   3.526  0.00  0.00    +0.040 A 
ATOM     13  C   UNL     1       0.074  -0.479   2.398  0.00  0.00    +0.047 A 
ATOM     14 CL   UNL     1      -1.611  -0.069   2.488  0.00  0.00    -0.083 Cl
ATOM     15 CL   UNL     1       2.916  -1.811   4.870  0.00  0.00    -0.083 Cl
ENDBRANCH   7   8
ENDBRANCH   2   7
ENDBRANCH   1   3
BRANCH   1  16
ATOM     16  O   UNL     1      -0.207  -1.101  -4.695  0.00  0.00    -0.452 OA
BRANCH  16  17
ATOM     17  C   UNL     1       0.262  -1.546  -5.878  0.00  0.00    +0.341 C 
ATOM     18  O   UNL     1       1.428  -1.871  -5.986  0.00  0.00    -0.245 OA
BRANCH  17  19
ATOM     19  C   UNL     1      -0.639  -1.638  -7.040  0.00  0.00    +0.080 A 
ATOM     20  C   UNL     1      -2.006  -1.384  -6.892  0.00  0.00    +0.019 A 
ATOM     21  C   UNL     1      -2.843  -1.472  -7.982  0.00  0.00    +0.033 A 
ATOM     22  C   UNL     1      -2.338  -1.812  -9.228  0.00  0.00    +0.128 A 
ATOM     23  C   UNL     1      -0.992  -2.066  -9.390  0.00  0.00    +0.056 A 
ATOM     24  C   UNL     1      -0.130  -1.976  -8.304  0.00  0.00    +0.041 A 
BRANCH  24  25
ATOM     25  N   UNL     1       1.226  -2.225  -8.466  0.00  0.00    -0.357 N 
ATOM     26  H   UNL     1       1.812  -2.244  -7.693  0.00  0.00    +0.142 HD
ATOM     27  H   UNL     1       1.588  -2.380  -9.352  0.00  0.00    +0.142 HD
ENDBRANCH  24  25
BRANCH  22  28
ATOM     28  N   UNL     1      -3.249  -1.903 -10.391  0.00  0.00    +0.056 N 
ATOM     29  O   UNL     1      -4.429  -1.682 -10.253  0.00  0.00    -0.126 OA
ATOM     30  O   UNL     1      -2.812  -2.199 -11.479  0.00  0.00    -0.126 OA
ENDBRANCH  22  28
ENDBRANCH  17  19
ENDBRANCH  16  17
ENDBRANCH   1  16
TORSDOF 8
