REMARK  Name = ZINC13065262
REMARK  13 active torsions:
REMARK  status: ('A' for Active; 'I' for Inactive)
REMARK    1  A    between atoms: C_1  and  C_2
REMARK    2  A    between atoms: C_2  and  C_3
REMARK    3  A    between atoms: C_3  and  C_5
REMARK    4  A    between atoms: C_3  and  N_72
REMARK    5  A    between atoms: N_9  and  C_10
REMARK    6  A    between atoms: C_10  and  C_11
REMARK    7  A    between atoms: C_17  and  C_18
REMARK    8  A    between atoms: C_17  and  N_72
REMARK    9  A    between atoms: C_21  and  C_24
REMARK   10  A    between atoms: C_25  and  C_26
REMARK   11  A    between atoms: C_25  and  N_72
REMARK   12  A    between atoms: C_29  and  C_39
REMARK   13  A    between atoms: C_32  and  C_38
REMARK                            x       y       z     vdW  Elec       q    Type
REMARK                         _______ _______ _______ _____ _____    ______ ____
ROOT
ATOM      1  N   UNL     1      -1.294   0.362  -1.253  0.00  0.00    +0.392 N 
ATOM      2  H   UNL     1      -2.218   0.792  -1.131  0.00  0.00    -0.080 HD
ENDROOT
BRANCH   1   3
ATOM      3  C   UNL     1      -0.425   0.764  -0.126  0.00  0.00    +0.003 C 
BRANCH   3   4
ATOM      4  C   UNL     1      -1.258   0.811   1.130  0.00  0.00    +0.138 A 
ATOM      5  N   UNL     1      -2.496   0.403   1.264  0.00  0.00    -0.115 NA
ATOM      6  N   UNL     1      -2.853   0.609   2.485  0.00  0.00    -0.023 NA
ATOM      7  N   UNL     1      -1.877   1.146   3.131  0.00  0.00    -0.044 NA
ATOM      8  N   UNL     1      -0.875   1.286   2.330  0.00  0.00    -0.226 N 
BRANCH   8   9
ATOM      9  C   UNL     1       0.432   1.857   2.663  0.00  0.00    +0.182 C 
BRANCH   9  10
ATOM     10  C   UNL     1       0.410   3.343   2.417  0.00  0.00    -0.026 A 
ATOM     11  C   UNL     1       0.771   3.844   1.180  0.00  0.00    +0.005 A 
ATOM     12  C   UNL     1       0.746   5.207   0.952  0.00  0.00    +0.000 A 
ATOM     13  C   UNL     1       0.369   6.070   1.964  0.00  0.00    +0.000 A 
ATOM     14  C   UNL     1       0.013   5.570   3.202  0.00  0.00    +0.000 A 
ATOM     15  C   UNL     1       0.033   4.206   3.429  0.00  0.00    +0.005 A 
ENDBRANCH   9  10
ENDBRANCH   8   9
ENDBRANCH   3   4
BRANCH   3  17
ATOM     16  C   UNL     1       1.501  -0.360  -1.251  0.00  0.00    +0.002 C 
ATOM     17  C   UNL     1       0.714  -0.241   0.055  0.00  0.00    -0.011 C 
ENDBRANCH   3  17
ENDBRANCH   1   3
BRANCH   1  18
ATOM     18  C   UNL     1      -0.712   0.828  -2.529  0.00  0.00    -0.042 C 
BRANCH  18  19
ATOM     19  C   UNL     1      -1.789   0.816  -3.583  0.00  0.00    -0.064 A 
ATOM     20  C   UNL     1      -1.852  -0.220  -4.496  0.00  0.00    +0.002 A 
ATOM     21  C   UNL     1      -2.842  -0.233  -5.460  0.00  0.00    +0.003 A 
ATOM     22  C   UNL     1      -3.764   0.796  -5.518  0.00  0.00    -0.050 A 
ATOM     23  C   UNL     1      -3.699   1.834  -4.608  0.00  0.00    +0.003 A 
ATOM     24  C   UNL     1      -2.711   1.845  -3.641  0.00  0.00    +0.002 A 
ATOM     25  C   UNL     1      -4.841   0.784  -6.572  0.00  0.00    +0.044 C 
ENDBRANCH  18  19
ENDBRANCH   1  18
BRANCH   1  26
ATOM     26  C   UNL     1      -1.446  -1.108  -1.274  0.00  0.00    -0.036 C 
BRANCH  26  27
ATOM     27  C   UNL     1      -2.594  -1.484  -0.373  0.00  0.00    +0.001 A 
ATOM     28  C   UNL     1      -3.847  -1.587  -0.882  0.00  0.00    +0.017 A 
ATOM     29  C   UNL     1      -4.940  -1.959   0.019  0.00  0.00    +0.002 A 
ATOM     30  C   UNL     1      -6.252  -2.086  -0.449  0.00  0.00    -0.041 A 
ATOM     31  C   UNL     1      -7.250  -2.430   0.418  0.00  0.00    +0.004 A 
ATOM     32  C   UNL     1      -6.973  -2.656   1.760  0.00  0.00    +0.005 A 
ATOM     33  C   UNL     1      -5.688  -2.536   2.243  0.00  0.00    -0.026 A 
ATOM     34  C   UNL     1      -4.655  -2.186   1.379  0.00  0.00    +0.052 A 
ATOM     35  N   UNL     1      -3.361  -2.061   1.835  0.00  0.00    -0.322 N 
ATOM     36  H   UNL     1      -3.166  -2.218   2.772  0.00  0.00    +0.169 HD
ATOM     37  C   UNL     1      -2.363  -1.723   0.999  0.00  0.00    +0.251 A 
ATOM     38  O   UNL     1      -1.230  -1.620   1.437  0.00  0.00    -0.268 OA
ATOM     39  C   UNL     1      -5.402  -2.783   3.702  0.00  0.00    +0.046 C 
ATOM     40  C   UNL     1      -6.563  -1.844  -1.903  0.00  0.00    +0.044 C 
ENDBRANCH  26  27
ENDBRANCH   1  26
TORSDOF 9
