REMARK  Name = ZINC25443849
REMARK  10 active torsions:
REMARK  status: ('A' for Active; 'I' for Inactive)
REMARK    1  A    between atoms: C_1  and  N_2
REMARK    2  A    between atoms: N_2  and  C_3
REMARK    3  A    between atoms: N_2  and  C_4
REMARK    4  A    between atoms: C_4  and  C_11
REMARK    5  A    between atoms: C_11  and  N_12
REMARK    6  A    between atoms: C_13  and  C_15
REMARK    7  A    between atoms: C_18  and  N_21
REMARK    8  A    between atoms: N_21  and  S_22
REMARK    9  A    between atoms: S_22  and  C_25
REMARK   10  A    between atoms: C_26  and  C_27
REMARK                            x       y       z     vdW  Elec       q    Type
REMARK                         _______ _______ _______ _____ _____    ______ ____
ROOT
ATOM      1  C   UNL     1       3.538   4.378   0.089  0.00  0.00    +0.037 A 
ATOM      2  C   UNL     1       2.317   4.853  -0.399  0.00  0.00    +0.015 A 
ATOM      3  C   UNL     1       1.136   4.354   0.103  0.00  0.00    +0.025 A 
ATOM      4  C   UNL     1       1.157   3.377   1.095  0.00  0.00    +0.048 A 
ATOM      5  C   UNL     1       2.372   2.906   1.586  0.00  0.00    +0.025 A 
ATOM      6  C   UNL     1       3.555   3.397   1.085  0.00  0.00    +0.015 A 
ENDROOT
BRANCH   1   8
ATOM      7  N   UNL     1       5.981   4.451   0.024  0.00  0.00    -0.313 N 
ATOM      8  C   UNL     1       4.805   4.910  -0.447  0.00  0.00    +0.244 C 
ATOM      9  O   UNL     1       4.788   5.763  -1.313  0.00  0.00    -0.270 OA
ATOM     10  H   UNL     1       5.997   3.680   0.808  0.00  0.00    +0.149 HD
BRANCH   7  11
ATOM     11  C   UNL     1       7.240   4.980  -0.508  0.00  0.00    +0.092 C 
BRANCH  11  12
ATOM     12  C   UNL     1       8.412   4.400   0.285  0.00  0.00    -0.050 C 
ATOM     13  C   UNL     1       9.469   5.456   0.470  0.00  0.00    -0.010 C 
ATOM     14  C   UNL     1       9.429   6.527  -0.639  0.00  0.00    -0.001 C 
ATOM     15  C   UNL     1       9.194   5.932  -2.041  0.00  0.00    -0.000 C 
ATOM     16  C   UNL     1       9.983   4.672  -2.271  0.00  0.00    -0.000 C 
ATOM     17  C   UNL     1       9.090   3.464  -1.922  0.00  0.00    -0.001 C 
ATOM     18  C   UNL     1       9.027   3.216  -0.489  0.00  0.00    -0.010 C 
BRANCH  12  20
ATOM     19  C   UNL     1       9.030   3.315   2.360  0.00  0.00    -0.096 C 
ATOM     20  N   UNL     1       7.940   3.939   1.598  0.00  0.00    +0.381 N 
ATOM     21  C   UNL     1       7.332   5.041   2.355  0.00  0.00    -0.096 C 
ATOM     22  H   UNL     1       7.165   3.177   1.430  0.00  0.00    -0.082 HD
ENDBRANCH  12  20
ENDBRANCH  11  12
ENDBRANCH   7  11
ENDBRANCH   1   8
BRANCH   4  23
ATOM     23  N   UNL     1      -0.037   2.875   1.599  0.00  0.00    -0.217 N 
ATOM     24  H   UNL     1      -0.856   3.562   1.860  0.00  0.00    +0.174 HD
BRANCH  23  25
ATOM     25  S   UNL     1      -0.227   1.243   1.807  0.00  0.00    +0.066 S 
ATOM     26  O   UNL     1       0.896   0.796   2.554  0.00  0.00    -0.151 OA
ATOM     27  O   UNL     1      -1.563   1.043   2.247  0.00  0.00    -0.151 OA
BRANCH  25  28
ATOM     28  C   UNL     1      -0.103   0.497   0.216  0.00  0.00    +0.157 C 
ATOM     29  C   UNL     1       0.899  -0.329  -0.053  0.00  0.00    +0.028 C 
BRANCH  29  30
ATOM     30  C   UNL     1       1.003  -0.955  -1.388  0.00  0.00    -0.024 A 
ATOM     31  C   UNL     1       0.046  -0.683  -2.366  0.00  0.00    +0.008 A 
ATOM     32  C   UNL     1       0.152  -1.266  -3.612  0.00  0.00    +0.001 A 
ATOM     33  C   UNL     1       1.198  -2.127  -3.889  0.00  0.00    +0.000 A 
ATOM     34  C   UNL     1       2.147  -2.405  -2.922  0.00  0.00    +0.001 A 
ATOM     35  C   UNL     1       2.056  -1.824  -1.673  0.00  0.00    +0.008 A 
ENDBRANCH  29  30
ENDBRANCH  25  28
ENDBRANCH  23  25
ENDBRANCH   4  23
TORSDOF 8
