REMARK  Name = ZINC13389678
REMARK  7 active torsions:
REMARK  status: ('A' for Active; 'I' for Inactive)
REMARK    1  A    between atoms: C_3  and  C_6
REMARK    2  A    between atoms: C_6  and  C_8
REMARK    3  A    between atoms: C_6  and  N_11
REMARK    4  A    between atoms: C_8  and  C_9
REMARK    5  A    between atoms: C_12  and  C_14
REMARK    6  A    between atoms: N_17  and  S_20
REMARK    7  A    between atoms: S_20  and  C_23
REMARK                            x       y       z     vdW  Elec       q    Type
REMARK                         _______ _______ _______ _____ _____    ______ ____
ROOT
ATOM      1  C   UNL     1      -2.447   1.351   2.951  0.00  0.00    +0.077 C 
ATOM      2  C   UNL     1      -1.452   1.411   4.113  0.00  0.00    +0.030 C 
ATOM      3  C   UNL     1      -2.164   1.938   5.362  0.00  0.00    +0.110 C 
ATOM      4  N   UNL     1      -3.345   1.103   5.621  0.00  0.00    -0.177 NA
ATOM      5  C   UNL     1      -4.321   0.904   4.541  0.00  0.00    +0.110 C 
ATOM      6  C   UNL     1      -3.584   0.389   3.300  0.00  0.00    +0.030 C 
ENDROOT
BRANCH   1   8
ATOM      7  N   UNL     1      -0.698   1.558   1.213  0.00  0.00    -0.307 N 
ATOM      8  C   UNL     1      -1.741   0.865   1.711  0.00  0.00    +0.217 C 
ATOM      9  O   UNL     1      -2.112  -0.151   1.161  0.00  0.00    -0.275 OA
ATOM     10  H   UNL     1      -0.402   2.370   1.653  0.00  0.00    +0.149 HD
BRANCH   7  11
ATOM     11  C   UNL     1      -0.013   1.086   0.008  0.00  0.00    +0.121 C 
BRANCH  11  14
ATOM     12  C   UNL     1      -1.694   1.602  -3.371  0.00  0.00    +0.008 A 
ATOM     13  C   UNL     1      -0.999   0.940  -2.377  0.00  0.00    +0.013 A 
ATOM     14  C   UNL     1      -0.742   1.585  -1.213  0.00  0.00    +0.010 A 
ATOM     15  S   UNL     1      -1.496   3.177  -1.499  0.00  0.00    -0.100 S 
ATOM     16  C   UNL     1      -2.096   2.878  -3.153  0.00  0.00    +0.045 A 
ENDBRANCH  11  14
BRANCH  11  17
ATOM     17  C   UNL     1       1.423   1.615  -0.003  0.00  0.00    +0.152 C 
BRANCH  17  18
ATOM     18  C   UNL     1       2.187   1.018   1.151  0.00  0.00    +0.358 C 
ATOM     19  O   UNL     1       1.640   0.248   1.904  0.00  0.00    -0.246 OA
ATOM     20  O   UNL     1       3.476   1.342   1.341  0.00  0.00    -0.246 OA
ENDBRANCH  17  18
ENDBRANCH  11  17
ENDBRANCH   7  11
ENDBRANCH   1   8
BRANCH   4  21
ATOM     21  S   UNL     1      -3.572   0.398   7.103  0.00  0.00    +0.061 S 
ATOM     22  O   UNL     1      -2.844   1.180   8.040  0.00  0.00    -0.153 OA
ATOM     23  O   UNL     1      -4.967   0.161   7.230  0.00  0.00    -0.153 OA
BRANCH  21  24
ATOM     24  C   UNL     1      -2.795  -1.182   7.053  0.00  0.00    +0.107 A 
ATOM     25  C   UNL     1      -3.514  -2.292   6.649  0.00  0.00    +0.031 A 
ATOM     26  C   UNL     1      -2.904  -3.532   6.604  0.00  0.00    +0.042 A 
ATOM     27  C   UNL     1      -1.577  -3.664   6.974  0.00  0.00    +0.142 A 
ATOM     28  C   UNL     1      -0.859  -2.552   7.384  0.00  0.00    +0.078 A 
ATOM     29  C   UNL     1      -1.470  -1.312   7.422  0.00  0.00    +0.051 A 
ATOM     30 CL   UNL     1       0.806  -2.716   7.848  0.00  0.00    -0.081 Cl
ATOM     31  F   UNL     1      -0.981  -4.877   6.935  0.00  0.00    -0.204 F 
ENDBRANCH  21  24
ENDBRANCH   4  21
TORSDOF 7
