REMARK  Name = ZINC37328652
REMARK  3 active torsions:
REMARK  status: ('A' for Active; 'I' for Inactive)
REMARK    1  A    between atoms: C_7  and  C_12
REMARK    2  A    between atoms: C_12  and  N_13
REMARK    3  A    between atoms: N_13  and  C_14
REMARK                            x       y       z     vdW  Elec       q    Type
REMARK                         _______ _______ _______ _____ _____    ______ ____
ROOT
ATOM      1  C   UNL     1      -2.117  -3.039   0.005  0.00  0.00    -0.007 C 
ENDROOT
BRANCH   1   8
ATOM      2  C   UNL     1      -0.017   1.397   0.010  0.00  0.00    +0.036 A 
ATOM      3  C   UNL     1       1.141   2.092   0.002  0.00  0.00    +0.048 A 
ATOM      4  S   UNL     1       2.374   0.802  -0.016  0.00  0.00    -0.090 S 
ATOM      5  C   UNL     1       1.279  -0.592  -0.013  0.00  0.00    +0.102 A 
ATOM      6  C   UNL     1       0.002  -0.004   0.002  0.00  0.00    +0.085 A 
ATOM      7  N   UNL     1      -1.060  -0.875   0.007  0.00  0.00    -0.235 NA
ATOM      8  C   UNL     1      -0.894  -2.158  -0.002  0.00  0.00    +0.093 A 
ATOM      9  N   UNL     1       0.329  -2.751  -0.017  0.00  0.00    -0.311 N 
ATOM     10  H   UNL     1       0.404  -3.718  -0.023  0.00  0.00    +0.170 HD
ATOM     11  C   UNL     1       1.441  -1.978  -0.023  0.00  0.00    +0.266 A 
ATOM     12  O   UNL     1       2.553  -2.479  -0.036  0.00  0.00    -0.267 OA
ENDBRANCH   1   8
BRANCH   1  13
ATOM     13  N   UNL     1      -3.324  -2.201   0.022  0.00  0.00    +0.386 N 
ATOM     14  H   UNL     1      -3.321  -1.623   0.849  0.00  0.00    -0.085 HD
ATOM     15  H   UNL     1      -3.337  -1.614  -0.799  0.00  0.00    -0.085 HD
BRANCH  13  16
ATOM     16  C   UNL     1      -4.516  -3.060   0.029  0.00  0.00    -0.071 C 
ATOM     17  C   UNL     1      -4.586  -3.845  -1.283  0.00  0.00    -0.016 C 
ATOM     18  C   UNL     1      -5.570  -5.007  -1.129  0.00  0.00    -0.002 C 
ATOM     19  C   UNL     1      -5.336  -5.699   0.216  0.00  0.00    -0.000 C 
ATOM     20  C   UNL     1      -6.548  -5.475   1.122  0.00  0.00    -0.000 C 
ATOM     21  C   UNL     1      -6.517  -4.046   1.670  0.00  0.00    -0.000 C 
ATOM     22  C   UNL     1      -6.954  -3.071   0.575  0.00  0.00    -0.002 C 
ATOM     23  C   UNL     1      -5.768  -2.192   0.172  0.00  0.00    -0.016 C 
ENDBRANCH  13  16
ENDBRANCH   1  13
TORSDOF 3
