REMARK  Name = ZINC01276206
REMARK  4 active torsions:
REMARK  status: ('A' for Active; 'I' for Inactive)
REMARK    1  A    between atoms: C_5  and  C_7
REMARK    2  A    between atoms: N_13  and  N_14
REMARK    3  A    between atoms: C_15  and  C_16
REMARK    4  A    between atoms: C_21  and  O_22
REMARK                            x       y       z     vdW  Elec       q    Type
REMARK                         _______ _______ _______ _____ _____    ______ ____
ROOT
ATOM      1  C   UNL     1       2.542  -4.998   1.067  0.00  0.00    +0.186 A 
ATOM      2  N   UNL     1       2.643  -6.233   0.659  0.00  0.00    -0.151 NA
ATOM      3  N   UNL     1       2.459  -6.248  -0.730  0.00  0.00    -0.253 N 
ATOM      4  H   UNL     1       2.484  -7.030  -1.304  0.00  0.00    +0.191 HD
ATOM      5  C   UNL     1       2.241  -4.976  -1.124  0.00  0.00    +0.197 A 
ATOM      6  S   UNL     1       1.959  -4.451  -2.729  0.00  0.00    -0.010 S 
ATOM      7  N   UNL     1       2.286  -4.195  -0.027  0.00  0.00    -0.188 N 
ENDROOT
BRANCH   1  12
ATOM      8  C   UNL     1       3.588  -2.999   4.070  0.00  0.00    +0.001 A 
ATOM      9  C   UNL     1       2.929  -3.670   5.085  0.00  0.00    +0.003 A 
ATOM     10  C   UNL     1       2.145  -4.772   4.799  0.00  0.00    +0.039 A 
ATOM     11  C   UNL     1       2.010  -5.207   3.494  0.00  0.00    +0.134 A 
ATOM     12  C   UNL     1       2.677  -4.537   2.466  0.00  0.00    +0.056 A 
ATOM     13  C   UNL     1       3.466  -3.425   2.764  0.00  0.00    +0.014 A 
ATOM     14  F   UNL     1       1.240  -6.281   3.214  0.00  0.00    -0.205 F 
ENDBRANCH   1  12
BRANCH   7  15
ATOM     15  N   UNL     1       2.108  -2.805  -0.002  0.00  0.00    -0.170 NA
ATOM     16  C   UNL     1       0.920  -2.305   0.155  0.00  0.00    +0.145 C 
BRANCH  16  17
ATOM     17  C   UNL     1       0.734  -0.844   0.182  0.00  0.00    +0.037 A 
ATOM     18  C   UNL     1      -0.543  -0.302   0.350  0.00  0.00    +0.028 A 
ATOM     19  C   UNL     1      -0.710   1.067   0.374  0.00  0.00    +0.019 A 
ATOM     20  C   UNL     1       0.383   1.907   0.233  0.00  0.00    +0.019 A 
ATOM     21  C   UNL     1       1.650   1.383   0.066  0.00  0.00    +0.047 A 
ATOM     22  C   UNL     1       1.836   0.010   0.039  0.00  0.00    +0.126 A 
ATOM     23 BR   UNL     1      -2.439   1.801   0.594  0.00  0.00    -0.050 Br
BRANCH  22  24
ATOM     24  O   UNL     1       3.082  -0.506  -0.125  0.00  0.00    -0.506 OA
ATOM     25  H   UNL     1       3.328  -0.653  -1.048  0.00  0.00    +0.292 HD
ENDBRANCH  22  24
ENDBRANCH  16  17
ENDBRANCH   7  15
TORSDOF 4
