REMARK  Name = ZINC05194491
REMARK  5 active torsions:
REMARK  status: ('A' for Active; 'I' for Inactive)
REMARK    1  A    between atoms: C_1  and  C_2
REMARK    2  A    between atoms: C_2  and  C_3
REMARK    3  A    between atoms: C_2  and  N_51
REMARK    4  A    between atoms: C_13  and  C_18
REMARK    5  A    between atoms: C_27  and  O_28
REMARK                            x       y       z     vdW  Elec       q    Type
REMARK                         _______ _______ _______ _____ _____    ______ ____
ROOT
ATOM      1  C   UNL     1       6.351  10.396  -0.456  0.00  0.00    -0.073 C 
ATOM      2  C   UNL     1       5.003   9.829  -0.001  0.00  0.00    +0.018 C 
ATOM      3  C   UNL     1       3.988  10.970   0.016  0.00  0.00    -0.028 A 
ATOM      4  C   UNL     1       4.417  12.253   0.017  0.00  0.00    -0.021 A 
ATOM      5  S   UNL     1       2.940  13.228   0.036  0.00  0.00    -0.075 S 
ATOM      6  C   UNL     1       1.751  11.910   0.043  0.00  0.00    +0.114 A 
ATOM      7  C   UNL     1       2.547  10.752   0.029  0.00  0.00    +0.055 A 
ATOM      8  C   UNL     1       1.798   9.480   0.031  0.00  0.00    +0.168 A 
ATOM      9  N   UNL     1       2.166   8.215   0.023  0.00  0.00    -0.206 NA
ATOM     10  C   UNL     1       1.080   7.435   0.030  0.00  0.00    +0.186 A 
ATOM     11  N   UNL     1      -0.000   8.192   0.038  0.00  0.00    -0.143 NA
ATOM     12  N   UNL     1       0.433   9.526   0.044  0.00  0.00    -0.201 N 
ATOM     13  C   UNL     1      -0.221  10.719   0.056  0.00  0.00    +0.226 A 
ATOM     14  N   UNL     1       0.424  11.852   0.055  0.00  0.00    -0.228 NA
ATOM     15  C   UNL     1       5.840  12.718   0.007  0.00  0.00    -0.035 C 
ATOM     16  N   UNL     1       6.697  11.566   0.377  0.00  0.00    +0.384 N 
ATOM     17  H   UNL     1       6.536  11.333   1.364  0.00  0.00    -0.081 HD
ENDROOT
BRANCH  10  18
ATOM     18  C   UNL     1       1.089   5.952   0.023  0.00  0.00    +0.063 A 
ATOM     19  C   UNL     1       2.311   5.263   0.007  0.00  0.00    +0.016 A 
ATOM     20  C   UNL     1       2.347   3.905   0.000  0.00  0.00    +0.009 A 
ATOM     21  C   UNL     1       1.149   3.167   0.008  0.00  0.00    -0.014 A 
ATOM     22  C   UNL     1       1.163   1.762   0.000  0.00  0.00    +0.008 A 
ATOM     23  C   UNL     1      -0.013   1.076   0.008  0.00  0.00    +0.001 A 
ATOM     24  C   UNL     1      -1.234   1.746   0.017  0.00  0.00    +0.001 A 
ATOM     25  C   UNL     1      -1.287   3.106   0.031  0.00  0.00    +0.012 A 
ATOM     26  C   UNL     1      -0.094   3.848   0.024  0.00  0.00    +0.024 A 
ATOM     27  C   UNL     1      -0.112   5.257   0.031  0.00  0.00    +0.135 A 
BRANCH  27  28
ATOM     28  O   UNL     1      -1.292   5.927   0.045  0.00  0.00    -0.505 OA
ATOM     29  H   UNL     1      -1.626   6.116   0.933  0.00  0.00    +0.292 HD
ENDBRANCH  27  28
ENDBRANCH  10  18
BRANCH  16  31
ATOM     30  C   UNL     1       8.422  13.212   0.946  0.00  0.00    -0.014 C 
ATOM     31  C   UNL     1       8.122  11.915   0.192  0.00  0.00    -0.074 C 
ATOM     32  C   UNL     1       8.986  10.785   0.756  0.00  0.00    -0.014 C 
ENDBRANCH  16  31
TORSDOF 3
