REMARK  Name = ZINC04598887
REMARK  4 active torsions:
REMARK  status: ('A' for Active; 'I' for Inactive)
REMARK    1  A    between atoms: C_4  and  C_7
REMARK    2  A    between atoms: C_7  and  N_8
REMARK    3  A    between atoms: C_9  and  N_65
REMARK    4  A    between atoms: C_19  and  N_65
REMARK                            x       y       z     vdW  Elec       q    Type
REMARK                         _______ _______ _______ _____ _____    ______ ____
ROOT
ATOM      1  N   UNL     1       0.187   2.488  -0.336  0.00  0.00    -0.303 N 
ATOM      2  C   UNL     1      -0.709   3.630  -0.120  0.00  0.00    +0.052 C 
ATOM      3  C   UNL     1       0.117   4.691   0.564  0.00  0.00    -0.032 A 
ATOM      4  C   UNL     1      -0.163   5.962   1.008  0.00  0.00    +0.004 A 
ATOM      5  C   UNL     1       0.827   6.717   1.614  0.00  0.00    +0.000 A 
ATOM      6  C   UNL     1       2.099   6.196   1.774  0.00  0.00    +0.001 A 
ATOM      7  C   UNL     1       2.391   4.923   1.331  0.00  0.00    +0.013 A 
ATOM      8  C   UNL     1       1.397   4.155   0.720  0.00  0.00    +0.040 A 
ATOM      9  C   UNL     1       1.401   2.792   0.155  0.00  0.00    +0.246 C 
ATOM     10  O   UNL     1       2.365   2.052   0.132  0.00  0.00    -0.270 OA
ENDROOT
BRANCH   2  11
ATOM     11  N   UNL     1      -1.198   4.127  -1.420  0.00  0.00    +0.396 N 
ATOM     12  H   UNL     1      -1.401   3.329  -2.033  0.00  0.00    -0.082 HD
ATOM     13  H   UNL     1      -0.476   4.715  -1.851  0.00  0.00    -0.082 HD
BRANCH  11  14
ATOM     14  C   UNL     1      -2.427   4.923  -1.234  0.00  0.00    -0.069 C 
ATOM     15  C   UNL     1      -3.643   3.994  -1.245  0.00  0.00    -0.016 C 
ATOM     16  C   UNL     1      -4.295   3.991   0.139  0.00  0.00    -0.002 C 
ATOM     17  C   UNL     1      -5.782   4.321   0.003  0.00  0.00    -0.000 C 
ATOM     18  C   UNL     1      -6.132   5.489   0.927  0.00  0.00    -0.000 C 
ATOM     19  C   UNL     1      -6.826   6.588   0.121  0.00  0.00    -0.000 C 
ATOM     20  C   UNL     1      -6.102   7.918   0.343  0.00  0.00    -0.000 C 
ATOM     21  C   UNL     1      -5.730   8.528  -1.010  0.00  0.00    -0.000 C 
ATOM     22  C   UNL     1      -4.234   8.849  -1.030  0.00  0.00    -0.000 C 
ATOM     23  C   UNL     1      -3.591   8.201  -2.258  0.00  0.00    -0.000 C 
ATOM     24  C   UNL     1      -2.397   7.351  -1.819  0.00  0.00    -0.002 C 
ATOM     25  C   UNL     1      -2.547   5.934  -2.376  0.00  0.00    -0.016 C 
ENDBRANCH  11  14
ENDBRANCH   2  11
BRANCH   1  26
ATOM     26  C   UNL     1      -0.182   1.223  -0.976  0.00  0.00    +0.141 C 
BRANCH  26  30
ATOM     27  C   UNL     1      -1.807  -1.434   1.947  0.00  0.00    +0.000 A 
ATOM     28  C   UNL     1      -2.627  -0.519   1.313  0.00  0.00    +0.000 A 
ATOM     29  C   UNL     1      -2.101   0.341   0.367  0.00  0.00    +0.005 A 
ATOM     30  C   UNL     1      -0.755   0.286   0.055  0.00  0.00    -0.030 A 
ATOM     31  C   UNL     1       0.063  -0.633   0.685  0.00  0.00    +0.005 A 
ATOM     32  C   UNL     1      -0.462  -1.490   1.634  0.00  0.00    +0.000 A 
ENDBRANCH  26  30
ENDBRANCH   1  26
TORSDOF 4
