REMARK  Name = ZINC33568188
REMARK  7 active torsions:
REMARK  status: ('A' for Active; 'I' for Inactive)
REMARK    1  A    between atoms: C_1  and  O_2
REMARK    2  A    between atoms: O_2  and  C_3
REMARK    3  A    between atoms: C_6  and  N_9
REMARK    4  A    between atoms: C_12  and  C_13
REMARK    5  A    between atoms: C_16  and  C_18
REMARK    6  A    between atoms: C_21  and  S_24
REMARK    7  A    between atoms: S_24  and  N_27
REMARK                            x       y       z     vdW  Elec       q    Type
REMARK                         _______ _______ _______ _____ _____    ______ ____
ROOT
ATOM      1  C   UNL     1       3.627  -4.122  -0.321  0.00  0.00    +0.130 A 
ATOM      2  C   UNL     1       3.180  -3.860   0.962  0.00  0.00    +0.050 A 
ATOM      3  C   UNL     1       3.968  -4.625   1.826  0.00  0.00    +0.050 A 
ATOM      4  C   UNL     1       4.856  -5.319   1.055  0.00  0.00    +0.136 A 
ATOM      5  O   UNL     1       4.638  -5.012  -0.238  0.00  0.00    -0.455 OA
ENDROOT
BRANCH   1   9
ATOM      6  N   UNL     1       2.174  -2.750  -4.304  0.00  0.00    -0.227 NA
ATOM      7  C   UNL     1       3.217  -3.540  -4.084  0.00  0.00    +0.172 C 
ATOM      8  C   UNL     1       3.642  -3.912  -2.717  0.00  0.00    +0.065 C 
ATOM      9  C   UNL     1       3.111  -3.561  -1.510  0.00  0.00    +0.065 C 
ATOM     10  S   UNL     1       5.048  -4.952  -3.090  0.00  0.00    -0.023 S 
ATOM     11  C   UNL     1       4.973  -4.826  -4.870  0.00  0.00    +0.312 C 
ATOM     12  O   UNL     1       5.785  -5.399  -5.785  0.00  0.00    -0.258 OA
ATOM     13  N   UNL     1       3.934  -4.045  -5.076  0.00  0.00    -0.183 NA
BRANCH   6  17
ATOM     14  C   UNL     1       0.290  -0.884  -1.130  0.00  0.00    +0.120 A 
ATOM     15  C   UNL     1      -0.344  -1.925  -1.796  0.00  0.00    +0.048 A 
ATOM     16  C   UNL     1       0.280  -2.550  -2.854  0.00  0.00    +0.031 A 
ATOM     17  C   UNL     1       1.553  -2.134  -3.258  0.00  0.00    +0.067 A 
ATOM     18  C   UNL     1       2.186  -1.085  -2.584  0.00  0.00    +0.031 A 
ATOM     19  C   UNL     1       1.552  -0.463  -1.530  0.00  0.00    +0.048 A 
BRANCH  14  21
ATOM     20  C   UNL     1      -1.626  -0.753   0.272  0.00  0.00    +0.277 C 
ATOM     21  O   UNL     1      -0.329  -0.271  -0.087  0.00  0.00    -0.495 OA
ENDBRANCH  14  21
ENDBRANCH   6  17
ENDBRANCH   1   9
BRANCH   4  22
ATOM     22  C   UNL     1       5.882  -6.254   1.554  0.00  0.00    +0.017 A 
ATOM     23  C   UNL     1       6.001  -6.498   2.925  0.00  0.00    +0.013 A 
ATOM     24  C   UNL     1       6.962  -7.375   3.385  0.00  0.00    +0.029 A 
ATOM     25  C   UNL     1       7.806  -8.012   2.493  0.00  0.00    +0.105 A 
ATOM     26  C   UNL     1       7.694  -7.775   1.134  0.00  0.00    +0.029 A 
ATOM     27  C   UNL     1       6.734  -6.905   0.659  0.00  0.00    +0.013 A 
BRANCH  25  28
ATOM     28  S   UNL     1       9.030  -9.130   3.089  0.00  0.00    +0.056 S 
ATOM     29  O   UNL     1      10.051  -9.179   2.102  0.00  0.00    -0.153 OA
ATOM     30  O   UNL     1       9.292  -8.764   4.437  0.00  0.00    -0.153 OA
BRANCH  28  31
ATOM     31  N   UNL     1       8.340 -10.634   3.133  0.00  0.00    -0.204 NA
ATOM     32  H   UNL     1       7.418 -10.753   2.854  0.00  0.00    +0.144 HD
ATOM     33  H   UNL     1       8.857 -11.396   3.436  0.00  0.00    +0.144 HD
ENDBRANCH  28  31
ENDBRANCH  25  28
ENDBRANCH   4  22
TORSDOF 6
