REMARK  Name = ZINC13638439
REMARK  6 active torsions:
REMARK  status: ('A' for Active; 'I' for Inactive)
REMARK    1  A    between atoms: C_1  and  C_2
REMARK    2  A    between atoms: C_2  and  N_3
REMARK    3  A    between atoms: N_3  and  C_4
REMARK    4  A    between atoms: N_3  and  C_6
REMARK    5  A    between atoms: C_4  and  C_5
REMARK    6  A    between atoms: C_19  and  C_22
REMARK                            x       y       z     vdW  Elec       q    Type
REMARK                         _______ _______ _______ _____ _____    ______ ____
ROOT
ATOM      1  C   UNL     1       1.219  -0.674  -0.013  0.00  0.00    +0.030 A 
ATOM      2  C   UNL     1       0.002  -0.004   0.002  0.00  0.00    +0.025 A 
ATOM      3  C   UNL     1      -0.017   1.376   0.010  0.00  0.00    +0.025 A 
ATOM      4  C   UNL     1       1.175   2.090   0.002  0.00  0.00    +0.031 A 
ATOM      5  C   UNL     1       2.393   1.429  -0.011  0.00  0.00    -0.018 A 
ATOM      6  C   UNL     1       2.406   0.041  -0.018  0.00  0.00    +0.029 A 
ATOM      7  C   UNL     1       3.700   2.157  -0.016  0.00  0.00    +0.049 C 
ATOM      8  C   UNL     1       4.349   2.116  -1.379  0.00  0.00    -0.023 C 
ATOM      9  C   UNL     1       4.976   3.227  -1.627  0.00  0.00    -0.030 C 
ATOM     10  C   UNL     1       4.817   4.192  -0.468  0.00  0.00    +0.033 C 
ATOM     11  C   UNL     1       3.550   3.665   0.268  0.00  0.00    +0.029 C 
ATOM     12  C   UNL     1       2.329   4.217  -0.474  0.00  0.00    +0.105 C 
ATOM     13  N   UNL     1       1.135   3.492  -0.030  0.00  0.00    -0.336 N 
ATOM     14  H   UNL     1       0.337   3.969   0.247  0.00  0.00    +0.147 HD
ENDROOT
BRANCH  12  15
ATOM     15  C   UNL     1       2.173   5.684  -0.166  0.00  0.00    -0.027 A 
ATOM     16  C   UNL     1       1.581   6.082   1.019  0.00  0.00    +0.006 A 
ATOM     17  C   UNL     1       1.442   7.427   1.304  0.00  0.00    +0.015 A 
ATOM     18  C   UNL     1       1.885   8.375   0.399  0.00  0.00    +0.018 A 
ATOM     19  C   UNL     1       2.471   7.977  -0.788  0.00  0.00    +0.015 A 
ATOM     20  C   UNL     1       2.615   6.631  -1.070  0.00  0.00    +0.006 A 
ATOM     21 BR   UNL     1       1.688  10.216   0.786  0.00  0.00    -0.050 Br
ENDBRANCH  12  15
BRANCH   1  22
ATOM     22  N   UNL     1       1.246  -2.073  -0.021  0.00  0.00    -0.330 N 
BRANCH  22  24
ATOM     23  C   UNL     1      -0.458  -3.085  -1.454  0.00  0.00    +0.024 C 
ATOM     24  C   UNL     1      -0.009  -2.830  -0.014  0.00  0.00    +0.102 C 
ENDBRANCH  22  24
BRANCH  22  25
ATOM     25  C   UNL     1       2.528  -2.781  -0.036  0.00  0.00    +0.102 C 
ATOM     26  C   UNL     1       2.987  -3.036   1.401  0.00  0.00    +0.024 C 
ENDBRANCH  22  25
ENDBRANCH   1  22
TORSDOF 4
