REMARK  Name = ZINC52550564
REMARK  6 active torsions:
REMARK  status: ('A' for Active; 'I' for Inactive)
REMARK    1  A    between atoms: C_4  and  C_10
REMARK    2  A    between atoms: N_13  and  C_16
REMARK    3  A    between atoms: C_16  and  C_18
REMARK    4  A    between atoms: C_16  and  C_37
REMARK    5  A    between atoms: C_24  and  C_26
REMARK    6  A    between atoms: C_27  and  C_28
REMARK                            x       y       z     vdW  Elec       q    Type
REMARK                         _______ _______ _______ _____ _____    ______ ____
ROOT
ATOM      1  C   UNL     1       7.221   6.224  -0.081  0.00  0.00    +0.022 C 
ENDROOT
BRANCH   1   2
ATOM      2  C   UNL     1       8.198   6.121   1.092  0.00  0.00    -0.013 C 
ATOM      3  C   UNL     1       8.905   7.464   1.286  0.00  0.00    +0.021 C 
ATOM      4  C   UNL     1       9.857   7.368   2.482  0.00  0.00    +0.108 C 
ATOM      5  N   UNL     1      10.765   6.232   2.274  0.00  0.00    -0.298 N 
ATOM      6  C   UNL     1      10.191   4.911   1.989  0.00  0.00    +0.108 C 
ATOM      7  C   UNL     1       9.235   5.035   0.798  0.00  0.00    +0.021 C 
ATOM      8  C   UNL     1      12.101   6.400   2.341  0.00  0.00    +0.239 C 
ATOM      9  O   UNL     1      12.568   7.515   2.483  0.00  0.00    -0.271 OA
BRANCH   8  10
ATOM     10  C   UNL     1      12.990   5.242   2.245  0.00  0.00    +0.068 C 
ATOM     11  C   UNL     1      14.320   5.396   2.411  0.00  0.00    +0.013 C 
BRANCH  11  12
ATOM     12  C   UNL     1      15.213   4.232   2.314  0.00  0.00    -0.019 A 
ATOM     13  C   UNL     1      14.687   2.964   2.044  0.00  0.00    +0.049 A 
ATOM     14  C   UNL     1      15.530   1.875   1.954  0.00  0.00    +0.162 A 
ATOM     15  C   UNL     1      16.898   2.036   2.131  0.00  0.00    +0.193 A 
ATOM     16  C   UNL     1      17.425   3.292   2.399  0.00  0.00    +0.162 A 
ATOM     17  C   UNL     1      16.592   4.389   2.485  0.00  0.00    +0.049 A 
ATOM     18  F   UNL     1      18.757   3.441   2.570  0.00  0.00    -0.202 F 
ATOM     19  F   UNL     1      17.718   0.966   2.042  0.00  0.00    -0.199 F 
ATOM     20  F   UNL     1      15.024   0.649   1.694  0.00  0.00    -0.202 F 
ENDBRANCH  11  12
ENDBRANCH   8  10
ENDBRANCH   1   2
BRANCH   1  24
ATOM     21  C   UNL     1       4.157   3.266  -0.232  0.00  0.00    +0.014 C 
ATOM     22  C   UNL     1       5.211   3.202   0.877  0.00  0.00    -0.011 C 
ATOM     23  C   UNL     1       5.877   4.573   1.020  0.00  0.00    -0.077 C 
ATOM     24  N   UNL     1       6.518   4.944  -0.246  0.00  0.00    +0.388 N 
ATOM     25  C   UNL     1       5.503   5.078  -1.298  0.00  0.00    -0.077 C 
ATOM     26  C   UNL     1       4.824   3.726  -1.531  0.00  0.00    -0.011 C 
ATOM     27  H   UNL     1       7.181   4.230  -0.508  0.00  0.00    -0.081 HD
BRANCH  21  31
ATOM     28  C   UNL     1      -0.134   1.656   0.096  0.00  0.00    +0.020 A 
ATOM     29  C   UNL     1       1.049   2.325   0.054  0.00  0.00    +0.013 A 
ATOM     30  C   UNL     1       2.251   1.559  -0.300  0.00  0.00    +0.018 A 
ATOM     31  C   UNL     1       3.553   1.900  -0.432  0.00  0.00    -0.037 C 
ATOM     32  C   UNL     1       4.279   0.632  -0.821  0.00  0.00    +0.146 C 
ATOM     33  N   UNL     1       3.253  -0.415  -0.886  0.00  0.00    -0.365 N 
ATOM     34  C   UNL     1       2.092   0.116  -0.588  0.00  0.00    +0.134 A 
ATOM     35  N   UNL     1       0.856  -0.423  -0.510  0.00  0.00    -0.238 NA
ATOM     36  C   UNL     1      -0.190   0.289  -0.192  0.00  0.00    +0.113 A 
ATOM     37  H   UNL     1       3.408  -1.345  -1.113  0.00  0.00    +0.161 HD
ENDBRANCH  21  31
ENDBRANCH   1  24
BRANCH   1  38
ATOM     38  C   UNL     1       7.981   6.546  -1.341  0.00  0.00    +0.197 C 
ATOM     39  O   UNL     1       8.154   5.688  -2.182  0.00  0.00    -0.278 OA
ATOM     40  N   UNL     1       8.470   7.787  -1.535  0.00  0.00    -0.331 N 
ATOM     41  H   UNL     1       8.394   8.453  -0.834  0.00  0.00    +0.145 HD
ATOM     42  H   UNL     1       8.898   8.014  -2.375  0.00  0.00    +0.145 HD
ENDBRANCH   1  38
TORSDOF 6
