REMARK  Name = ZINC66908440
REMARK  7 active torsions:
REMARK  status: ('A' for Active; 'I' for Inactive)
REMARK    1  A    between atoms: C_1  and  C_2
REMARK    2  A    between atoms: C_2  and  C_4
REMARK    3  A    between atoms: C_2  and  N_20
REMARK    4  A    between atoms: C_4  and  N_5
REMARK    5  A    between atoms: N_8  and  N_9
REMARK    6  A    between atoms: C_10  and  C_12
REMARK    7  A    between atoms: C_12  and  C_13
REMARK                            x       y       z     vdW  Elec       q    Type
REMARK                         _______ _______ _______ _____ _____    ______ ____
ROOT
ATOM      1  N   UNL     1      -1.054  -2.204   0.162  0.00  0.00    -0.300 N 
ATOM      2  C   UNL     1      -2.074  -3.069   0.329  0.00  0.00    +0.316 C 
ATOM      3  O   UNL     1      -3.216  -2.658   0.395  0.00  0.00    -0.251 OA
ATOM      4  N   UNL     1      -1.827  -4.391   0.423  0.00  0.00    -0.218 N 
ATOM      5  H   UNL     1      -0.143  -2.532   0.110  0.00  0.00    +0.150 HD
ATOM      6  H   UNL     1      -2.561  -5.014   0.543  0.00  0.00    +0.174 HD
ENDROOT
BRANCH   4   7
ATOM      7  N   UNL     1      -0.511  -4.865   0.347  0.00  0.00    -0.233 N 
ATOM      8  C   UNL     1      -0.264  -6.186   0.441  0.00  0.00    +0.234 C 
ATOM      9  O   UNL     1      -1.181  -6.965   0.592  0.00  0.00    -0.274 OA
ATOM     10  H   UNL     1       0.223  -4.242   0.227  0.00  0.00    +0.173 HD
BRANCH   8  11
ATOM     11  C   UNL     1       1.152  -6.696   0.359  0.00  0.00    +0.135 C 
BRANCH  11  12
ATOM     12  C   UNL     1       1.153  -8.198   0.491  0.00  0.00    -0.003 A 
ATOM     13  C   UNL     1       1.358  -8.783   1.726  0.00  0.00    +0.007 A 
ATOM     14  C   UNL     1       1.359 -10.160   1.847  0.00  0.00    +0.000 A 
ATOM     15  C   UNL     1       1.156 -10.953   0.733  0.00  0.00    +0.003 A 
ATOM     16  C   UNL     1       0.951 -10.370  -0.503  0.00  0.00    +0.038 A 
ATOM     17  C   UNL     1       0.944  -8.991  -0.624  0.00  0.00    +0.127 A 
ATOM     18  F   UNL     1       0.739  -8.419  -1.831  0.00  0.00    -0.205 F 
ENDBRANCH  11  12
ENDBRANCH   8  11
ENDBRANCH   4   7
BRANCH   1  19
ATOM     19  C   UNL     1      -1.322  -0.767   0.060  0.00  0.00    +0.090 C 
BRANCH  19  21
ATOM     20  C   UNL     1      -0.277   1.501  -0.014  0.00  0.00    -0.012 C 
ATOM     21  C   UNL     1       0.002  -0.003   0.015  0.00  0.00    -0.054 C 
BRANCH  21  22
ATOM     22  N   UNL     1       0.798  -0.330   1.206  0.00  0.00    +0.385 N 
ATOM     23  C   UNL     1       0.125   0.190   2.406  0.00  0.00    -0.073 C 
ATOM     24  C   UNL     1       0.792  -0.416   3.641  0.00  0.00    +0.017 C 
ATOM     25  C   UNL     1       2.285  -0.229   3.558  0.00  0.00    -0.048 A 
ATOM     26  C   UNL     1       3.041  -0.388   4.709  0.00  0.00    +0.004 A 
ATOM     27  C   UNL     1       4.412  -0.228   4.670  0.00  0.00    +0.000 A 
ATOM     28  C   UNL     1       5.033   0.094   3.478  0.00  0.00    +0.000 A 
ATOM     29  C   UNL     1       4.282   0.254   2.331  0.00  0.00    +0.002 A 
ATOM     30  C   UNL     1       2.904   0.095   2.369  0.00  0.00    -0.061 A 
ATOM     31  C   UNL     1       2.123   0.287   1.096  0.00  0.00    -0.042 C 
ATOM     32  H   UNL     1       0.897  -1.332   1.280  0.00  0.00    -0.081 HD
ENDBRANCH  21  22
ENDBRANCH  19  21
ENDBRANCH   1  19
TORSDOF 6
