REMARK  Name = ZINC67140476
REMARK  4 active torsions:
REMARK  status: ('A' for Active; 'I' for Inactive)
REMARK    1  A    between atoms: C_3  and  C_21
REMARK    2  A    between atoms: C_5  and  N_7
REMARK    3  A    between atoms: C_21  and  O_23
REMARK    4  A    between atoms: O_23  and  C_24
REMARK                            x       y       z     vdW  Elec       q    Type
REMARK                         _______ _______ _______ _____ _____    ______ ____
ROOT
ATOM      1  C   UNL     1      -0.346   1.412  -0.347  0.00  0.00    +0.003 A 
ATOM      2  C   UNL     1       0.823   2.089  -0.067  0.00  0.00    +0.015 A 
ATOM      3  C   UNL     1       1.986   1.379   0.237  0.00  0.00    +0.061 A 
ATOM      4  C   UNL     1       1.960  -0.016   0.257  0.00  0.00    +0.040 A 
ATOM      5  C   UNL     1       0.781  -0.687  -0.025  0.00  0.00    +0.057 A 
ATOM      6  C   UNL     1      -0.371   0.030  -0.327  0.00  0.00    +0.025 A 
ENDROOT
BRANCH   5   7
ATOM      7  N   UNL     1       0.750  -2.086  -0.007  0.00  0.00    -0.188 N 
ATOM      8  C   UNL     1       1.700  -2.796  -0.658  0.00  0.00    +0.240 C 
ATOM      9  O   UNL     1       2.551  -2.235  -1.315  0.00  0.00    -0.273 OA
ATOM     10  C   UNL     1       1.677  -4.295  -0.548  0.00  0.00    +0.093 C 
ATOM     11  C   UNL     1       3.026  -4.909  -0.882  0.00  0.00    +0.040 C 
ATOM     12  C   UNL     1       4.002  -4.721   0.241  0.00  0.00    -0.030 C 
ATOM     13  C   UNL     1       3.659  -4.377   1.440  0.00  0.00    -0.030 C 
ATOM     14  C   UNL     1       2.252  -4.102   1.870  0.00  0.00    +0.040 C 
ATOM     15  C   UNL     1       1.267  -4.684   0.879  0.00  0.00    +0.092 C 
ATOM     16  C   UNL     1      -0.061  -4.006   1.161  0.00  0.00    +0.234 C 
ATOM     17  O   UNL     1      -0.921  -4.573   1.802  0.00  0.00    -0.274 OA
ATOM     18  N   UNL     1      -0.263  -2.760   0.691  0.00  0.00    -0.227 N 
ATOM     19  H   UNL     1      -1.119  -2.327   0.834  0.00  0.00    +0.173 HD
ENDBRANCH   5   7
BRANCH   3  20
ATOM     20  C   UNL     1       3.239   2.101   0.537  0.00  0.00    +0.344 C 
ATOM     21  O   UNL     1       4.249   1.481   0.801  0.00  0.00    -0.245 OA
BRANCH  20  22
ATOM     22  O   UNL     1       3.261   3.448   0.517  0.00  0.00    -0.422 OA
BRANCH  22  23
ATOM     23  C   UNL     1       4.457   4.069   0.691  0.00  0.00    +0.132 A 
ATOM     24  C   UNL     1       4.766   4.653   1.911  0.00  0.00    +0.048 A 
ATOM     25  C   UNL     1       5.982   5.284   2.086  0.00  0.00    +0.023 A 
ATOM     26  C   UNL     1       6.893   5.334   1.045  0.00  0.00    +0.041 A 
ATOM     27  C   UNL     1       6.587   4.753  -0.173  0.00  0.00    +0.023 A 
ATOM     28  C   UNL     1       5.374   4.116  -0.350  0.00  0.00    +0.048 A 
ATOM     29 CL   UNL     1       8.421   6.127   1.268  0.00  0.00    -0.084 Cl
ENDBRANCH  22  23
ENDBRANCH  20  22
ENDBRANCH   3  20
TORSDOF 4
