REMARK  Name = ZINC39354386
REMARK  12 active torsions:
REMARK  status: ('A' for Active; 'I' for Inactive)
REMARK    1  A    between atoms: C_1  and  C_2
REMARK    2  A    between atoms: C_5  and  C_38
REMARK    3  A    between atoms: N_8  and  C_10
REMARK    4  A    between atoms: C_10  and  C_11
REMARK    5  A    between atoms: C_11  and  C_12
REMARK    6  A    between atoms: C_12  and  N_13
REMARK    7  A    between atoms: C_14  and  C_16
REMARK    8  A    between atoms: C_16  and  C_18
REMARK    9  A    between atoms: C_16  and  N_28
REMARK   10  A    between atoms: C_18  and  C_19
REMARK   11  A    between atoms: C_29  and  C_31
REMARK   12  A    between atoms: C_34  and  C_37
REMARK                            x       y       z     vdW  Elec       q    Type
REMARK                         _______ _______ _______ _____ _____    ______ ____
ROOT
ATOM      1  C   UNL     1       1.893   1.053   8.534  0.00  0.00    +0.163 C 
ENDROOT
BRANCH   1   3
ATOM      2  N   UNL     1       1.770   0.503   6.126  0.00  0.00    -0.314 N 
ATOM      3  C   UNL     1       2.417   0.366   7.300  0.00  0.00    +0.234 C 
ATOM      4  O   UNL     1       3.422  -0.310   7.363  0.00  0.00    -0.274 OA
ATOM      5  H   UNL     1       0.966   1.044   6.076  0.00  0.00    +0.149 HD
BRANCH   2   6
ATOM      6  C   UNL     1       2.280  -0.165   4.926  0.00  0.00    +0.102 C 
BRANCH   6   7
ATOM      7  C   UNL     1       1.367   0.152   3.740  0.00  0.00    +0.000 C 
BRANCH   7   8
ATOM      8  C   UNL     1       1.899  -0.546   2.486  0.00  0.00    -0.077 C 
BRANCH   8  14
ATOM      9  C   UNL     1      -1.359   1.089   0.360  0.00  0.00    +0.005 C 
ATOM     10  C   UNL     1      -1.246  -0.435   0.442  0.00  0.00    -0.031 C 
ATOM     11  C   UNL     1      -0.684  -0.977  -0.876  0.00  0.00    +0.003 C 
ATOM     12  C   UNL     1       0.732  -0.429  -1.079  0.00  0.00    -0.031 C 
ATOM     13  C   UNL     1       1.598  -0.811   0.123  0.00  0.00    -0.076 C 
ATOM     14  N   UNL     1       1.022  -0.242   1.347  0.00  0.00    +0.380 N 
ATOM     15  C   UNL     1      -0.307  -0.817   1.588  0.00  0.00    -0.076 C 
ATOM     16  C   UNL     1       1.332  -1.025  -2.353  0.00  0.00    +0.005 C 
ATOM     17  H   UNL     1       0.941   0.759   1.245  0.00  0.00    -0.082 HD
ENDBRANCH   8  14
ENDBRANCH   7   8
ENDBRANCH   6   7
ENDBRANCH   2   6
ENDBRANCH   1   3
BRANCH   1  18
ATOM     18  N   UNL     1       2.767   0.750   9.671  0.00  0.00    -0.303 N 
ATOM     19  C   UNL     1       2.904   1.641  10.672  0.00  0.00    +0.217 C 
ATOM     20  O   UNL     1       2.309   2.697  10.629  0.00  0.00    -0.275 OA
ATOM     21  H   UNL     1       3.248  -0.092   9.702  0.00  0.00    +0.149 HD
BRANCH  19  22
ATOM     22  C   UNL     1       3.795   1.325  11.845  0.00  0.00    +0.075 C 
ATOM     23  C   UNL     1       3.652  -0.154  12.211  0.00  0.00    +0.013 C 
ATOM     24  C   UNL     1       2.197  -0.449  12.582  0.00  0.00    +0.004 C 
ATOM     25  C   UNL     1       1.790   0.414  13.778  0.00  0.00    -0.014 C 
ATOM     26  C   UNL     1       1.934   1.893  13.412  0.00  0.00    +0.004 C 
ATOM     27  C   UNL     1       3.388   2.188  13.042  0.00  0.00    +0.013 C 
ATOM     28  C   UNL     1       0.336   0.118  14.149  0.00  0.00    +0.007 C 
ENDBRANCH  19  22
ENDBRANCH   1  18
BRANCH   1  29
ATOM     29  C   UNL     1       0.478   0.555   8.833  0.00  0.00    +0.069 C 
BRANCH  29  30
ATOM     30  C   UNL     1      -0.131   1.396   9.925  0.00  0.00    -0.020 A 
ATOM     31  C   UNL     1      -0.615   2.773   9.797  0.00  0.00    +0.003 A 
ATOM     32  C   UNL     1      -0.676   3.686   8.743  0.00  0.00    +0.010 A 
ATOM     33  C   UNL     1      -1.200   4.931   8.953  0.00  0.00    +0.001 A 
ATOM     34  C   UNL     1      -1.672   5.295  10.206  0.00  0.00    +0.002 A 
ATOM     35  C   UNL     1      -1.621   4.409  11.260  0.00  0.00    +0.026 A 
ATOM     36  C   UNL     1      -1.092   3.137  11.069  0.00  0.00    +0.047 A 
ATOM     37  N   UNL     1      -0.907   2.053  11.898  0.00  0.00    -0.360 N 
ATOM     38  C   UNL     1      -0.339   1.024  11.198  0.00  0.00    +0.087 A 
ATOM     39  H   UNL     1      -1.147   2.022  12.838  0.00  0.00    +0.165 HD
ENDBRANCH  29  30
ENDBRANCH   1  29
TORSDOF 9
