REMARK  Name = ZINC19839187
REMARK  13 active torsions:
REMARK  status: ('A' for Active; 'I' for Inactive)
REMARK    1  A    between atoms: C_1  and  C_2
REMARK    2  A    between atoms: C_2  and  C_3
REMARK    3  A    between atoms: C_2  and  N_4
REMARK    4  A    between atoms: C_6  and  N_25
REMARK    5  A    between atoms: C_9  and  C_11
REMARK    6  A    between atoms: N_13  and  C_14
REMARK    7  A    between atoms: C_14  and  C_15
REMARK    8  A    between atoms: C_15  and  C_16
REMARK    9  A    between atoms: N_25  and  C_26
REMARK   10  A    between atoms: C_26  and  C_27
REMARK   11  A    between atoms: C_31  and  O_33
REMARK   12  A    between atoms: O_33  and  C_34
REMARK   13  A    between atoms: C_34  and  C_35
REMARK                            x       y       z     vdW  Elec       q    Type
REMARK                         _______ _______ _______ _____ _____    ______ ____
ROOT
ATOM      1  N   UNL     1      -3.366   1.731   0.104  0.00  0.00    -0.291 NA
ATOM      2  C   UNL     1      -4.308   0.787  -0.554  0.00  0.00    +0.070 C 
ATOM      3  C   UNL     1      -3.416  -0.089  -1.458  0.00  0.00    -0.055 C 
ATOM      4  C   UNL     1      -2.010  -0.015  -0.827  0.00  0.00    +0.014 C 
ATOM      5  C   UNL     1      -2.172   0.901   0.406  0.00  0.00    +0.142 C 
ENDROOT
BRANCH   5   6
ATOM      6  C   UNL     1      -0.955   1.773   0.576  0.00  0.00    +0.230 C 
ATOM      7  O   UNL     1      -1.056   2.979   0.490  0.00  0.00    -0.274 OA
ATOM      8  N   UNL     1       0.246   1.214   0.822  0.00  0.00    -0.314 N 
ATOM      9  H   UNL     1       0.338   0.121   0.904  0.00  0.00    +0.149 HD
BRANCH   8  10
ATOM     10  C   UNL     1       1.431   2.062   0.981  0.00  0.00    +0.109 C 
BRANCH  10  11
ATOM     11  C   UNL     1       2.655   1.184   1.244  0.00  0.00    +0.054 C 
BRANCH  11  12
ATOM     12  C   UNL     1       3.873   2.056   1.408  0.00  0.00    -0.042 A 
ATOM     13  C   UNL     1       4.640   2.384   0.305  0.00  0.00    +0.007 A 
ATOM     14  C   UNL     1       5.755   3.188   0.449  0.00  0.00    +0.050 A 
ATOM     15  C   UNL     1       6.114   3.658   1.702  0.00  0.00    +0.166 A 
ATOM     16  C   UNL     1       5.345   3.323   2.814  0.00  0.00    +0.166 A 
ATOM     17  C   UNL     1       4.225   2.521   2.661  0.00  0.00    +0.053 A 
ATOM     18  O   UNL     1       5.899   3.901   3.919  0.00  0.00    -0.453 OA
ATOM     19  C   UNL     1       6.777   4.926   3.416  0.00  0.00    +0.466 C 
ATOM     20  O   UNL     1       7.150   4.447   2.111  0.00  0.00    -0.453 OA
ENDBRANCH  11  12
ENDBRANCH  10  11
ENDBRANCH   8  10
ENDBRANCH   5   6
BRANCH   1  22
ATOM     21  C   UNL     1      -5.060   3.270   0.975  0.00  0.00    +0.024 C 
ATOM     22  C   UNL     1      -3.946   2.285   1.335  0.00  0.00    +0.051 C 
ATOM     23  C   UNL     1      -4.524   1.150   2.183  0.00  0.00    +0.024 C 
ENDBRANCH   1  22
BRANCH   3  24
ATOM     24  N   UNL     1      -3.900  -1.476  -1.462  0.00  0.00    +0.384 N 
ATOM     25  H   UNL     1      -3.054  -2.159  -1.629  0.00  0.00    -0.085 HD
ATOM     26  H   UNL     1      -4.369  -1.704  -0.494  0.00  0.00    -0.085 HD
BRANCH  24  27
ATOM     27  C   UNL     1      -4.891  -1.685  -2.527  0.00  0.00    -0.046 C 
BRANCH  27  28
ATOM     28  C   UNL     1      -5.363  -3.115  -2.500  0.00  0.00    -0.061 A 
ATOM     29  C   UNL     1      -6.457  -3.467  -1.731  0.00  0.00    +0.002 A 
ATOM     30  C   UNL     1      -6.893  -4.779  -1.704  0.00  0.00    +0.004 A 
ATOM     31  C   UNL     1      -6.237  -5.742  -2.447  0.00  0.00    +0.045 A 
ATOM     32  C   UNL     1      -5.139  -5.391  -3.220  0.00  0.00    +0.121 A 
ATOM     33  C   UNL     1      -4.707  -4.073  -3.249  0.00  0.00    +0.047 A 
BRANCH  32  34
ATOM     34  O   UNL     1      -4.492  -6.336  -3.951  0.00  0.00    -0.487 OA
BRANCH  34  35
ATOM     35  C   UNL     1      -4.996  -7.671  -3.877  0.00  0.00    +0.264 C 
BRANCH  35  36
ATOM     36  C   UNL     1      -4.159  -8.573  -4.747  0.00  0.00    -0.010 A 
ATOM     37  C   UNL     1      -4.502  -8.769  -6.072  0.00  0.00    +0.007 A 
ATOM     38  C   UNL     1      -3.732  -9.592  -6.871  0.00  0.00    +0.000 A 
ATOM     39  C   UNL     1      -2.623 -10.227  -6.343  0.00  0.00    +0.000 A 
ATOM     40  C   UNL     1      -2.283 -10.035  -5.017  0.00  0.00    +0.000 A 
ATOM     41  C   UNL     1      -3.051  -9.208  -4.219  0.00  0.00    +0.007 A 
ENDBRANCH  35  36
ENDBRANCH  34  35
ENDBRANCH  32  34
ENDBRANCH  27  28
ENDBRANCH  24  27
ENDBRANCH   3  24
TORSDOF 11
