REMARK  Name = ZINC63980714
REMARK  13 active torsions:
REMARK  status: ('A' for Active; 'I' for Inactive)
REMARK    1  A    between atoms: C_1  and  C_2
REMARK    2  A    between atoms: C_2  and  N_3
REMARK    3  A    between atoms: N_3  and  C_4
REMARK    4  A    between atoms: C_4  and  C_5
REMARK    5  A    between atoms: C_6  and  C_8
REMARK    6  A    between atoms: C_8  and  O_9
REMARK    7  A    between atoms: O_9  and  C_10
REMARK    8  A    between atoms: N_17  and  C_19
REMARK    9  A    between atoms: C_19  and  C_20
REMARK   10  A    between atoms: C_20  and  C_21
REMARK   11  A    between atoms: C_27  and  C_29
REMARK   12  A    between atoms: C_29  and  C_30
REMARK   13  A    between atoms: C_30  and  C_31
REMARK                            x       y       z     vdW  Elec       q    Type
REMARK                         _______ _______ _______ _____ _____    ______ ____
ROOT
ATOM      1  C   UNL     1       0.311  -1.817  -5.854  0.00  0.00    +0.153 C 
ATOM      2  C   UNL     1       0.736  -0.618  -6.694  0.00  0.00    +0.141 C 
ATOM      3  N   UNL     1       1.386  -1.037  -7.934  0.00  0.00    -0.290 N 
ATOM      4  C   UNL     1       0.645  -1.812  -8.935  0.00  0.00    +0.203 C 
ATOM      5  C   UNL     1       0.654  -3.268  -8.525  0.00  0.00    +0.233 C 
ATOM      6  O   UNL     1       1.272  -4.085  -9.175  0.00  0.00    -0.274 OA
ATOM      7  N   UNL     1      -0.029  -3.648  -7.433  0.00  0.00    -0.297 N 
ATOM      8  C   UNL     1      -0.726  -2.649  -6.612  0.00  0.00    +0.141 C 
ATOM      9  C   UNL     1       2.674  -0.709  -8.159  0.00  0.00    +0.216 C 
ATOM     10  O   UNL     1       3.289  -0.068  -7.333  0.00  0.00    -0.276 OA
ENDROOT
BRANCH   1  11
ATOM     11  O   UNL     1      -0.258  -1.356  -4.626  0.00  0.00    -0.364 OA
BRANCH  11  12
ATOM     12  C   UNL     1       0.692  -1.190  -3.572  0.00  0.00    +0.256 C 
BRANCH  12  14
ATOM     13  N   UNL     1       0.688  -0.476  -1.203  0.00  0.00    -0.300 N 
ATOM     14  C   UNL     1      -0.013  -0.705  -2.332  0.00  0.00    +0.241 C 
ATOM     15  O   UNL     1      -1.211  -0.518  -2.349  0.00  0.00    -0.273 OA
BRANCH  13  17
ATOM     16  C   UNL     1      -0.019   1.526   0.010  0.00  0.00    +0.024 C 
ATOM     17  C   UNL     1       0.002  -0.004   0.002  0.00  0.00    +0.104 C 
ENDBRANCH  13  17
BRANCH  13  18
ATOM     18  C   UNL     1       2.135  -0.701  -1.182  0.00  0.00    +0.104 C 
ATOM     19  C   UNL     1       2.421  -2.145  -0.763  0.00  0.00    +0.024 C 
ENDBRANCH  13  18
ENDBRANCH  12  14
ENDBRANCH  11  12
ENDBRANCH   1  11
BRANCH   7  20
ATOM     20  C   UNL     1      -0.080  -5.064  -7.061  0.00  0.00    +0.112 C 
BRANCH  20  21
ATOM     21  C   UNL     1       1.090  -5.389  -6.130  0.00  0.00    +0.054 C 
BRANCH  21  22
ATOM     22  C   UNL     1       1.037  -6.846  -5.747  0.00  0.00    -0.046 A 
ATOM     23  C   UNL     1       0.330  -7.241  -4.627  0.00  0.00    +0.004 A 
ATOM     24  C   UNL     1       0.282  -8.577  -4.276  0.00  0.00    +0.000 A 
ATOM     25  C   UNL     1       0.941  -9.518  -5.046  0.00  0.00    +0.000 A 
ATOM     26  C   UNL     1       1.647  -9.123  -6.167  0.00  0.00    +0.000 A 
ATOM     27  C   UNL     1       1.692  -7.787  -6.520  0.00  0.00    +0.004 A 
ENDBRANCH  21  22
ENDBRANCH  20  21
ENDBRANCH   7  20
BRANCH   9  28
ATOM     28  C   UNL     1       3.349  -1.138  -9.435  0.00  0.00    +0.100 C 
BRANCH  28  29
ATOM     29  C   UNL     1       4.796  -0.641  -9.440  0.00  0.00    +0.056 C 
BRANCH  29  30
ATOM     30  C   UNL     1       5.481  -1.077 -10.736  0.00  0.00    +0.174 C 
ATOM     31  N   UNL     1       4.896  -0.365 -11.880  0.00  0.00    -0.363 N 
ATOM     32  C   UNL     1       5.849   0.325 -12.438  0.00  0.00    +0.060 A 
ATOM     33  C   UNL     1       5.882   1.222 -13.602  0.00  0.00    +0.027 A 
ATOM     34  C   UNL     1       7.042   1.812 -13.954  0.00  0.00    +0.002 A 
ATOM     35  C   UNL     1       8.242   1.605 -13.251  0.00  0.00    +0.002 A 
ATOM     36  C   UNL     1       8.322   0.802 -12.170  0.00  0.00    +0.027 A 
ATOM     37  C   UNL     1       7.119   0.106 -11.694  0.00  0.00    +0.060 A 
ATOM     38  N   UNL     1       6.902  -0.710 -10.703  0.00  0.00    -0.363 N 
ATOM     39  H   UNL     1       3.970  -0.402 -12.166  0.00  0.00    +0.162 HD
ATOM     40  H   UNL     1       7.560  -1.019 -10.060  0.00  0.00    +0.162 HD
ENDBRANCH  29  30
ENDBRANCH  28  29
ENDBRANCH   9  28
TORSDOF 11
