REMARK  Name = ZINC14196793
REMARK  12 active torsions:
REMARK  status: ('A' for Active; 'I' for Inactive)
REMARK    1  A    between atoms: C_1  and  C_2
REMARK    2  A    between atoms: C_5  and  O_27
REMARK    3  A    between atoms: C_6  and  N_8
REMARK    4  A    between atoms: C_9  and  C_11
REMARK    5  A    between atoms: C_11  and  N_12
REMARK    6  A    between atoms: C_13  and  C_15
REMARK    7  A    between atoms: C_15  and  N_54
REMARK    8  A    between atoms: C_16  and  N_54
REMARK    9  A    between atoms: C_17  and  C_19
REMARK   10  A    between atoms: C_17  and  C_20
REMARK   11  A    between atoms: C_17  and  N_54
REMARK   12  A    between atoms: O_27  and  C_28
REMARK                            x       y       z     vdW  Elec       q    Type
REMARK                         _______ _______ _______ _____ _____    ______ ____
ROOT
ATOM      1  N   UNL     1       3.351   7.390  -0.405  0.00  0.00    -0.308 N 
ATOM      2  C   UNL     1       4.351   8.290  -0.489  0.00  0.00    +0.197 C 
ATOM      3  O   UNL     1       5.504   7.913  -0.525  0.00  0.00    -0.278 OA
ATOM      4  H   UNL     1       2.429   7.691  -0.376  0.00  0.00    +0.149 HD
ENDROOT
BRANCH   1   5
ATOM      5  C   UNL     1       3.655   5.958  -0.358  0.00  0.00    +0.200 C 
BRANCH   5   7
ATOM      6  N   UNL     1       2.406   3.828  -0.210  0.00  0.00    -0.281 N 
ATOM      7  C   UNL     1       2.371   5.175  -0.266  0.00  0.00    +0.234 C 
ATOM      8  O   UNL     1       1.307   5.755  -0.242  0.00  0.00    -0.274 OA
ATOM      9  H   UNL     1       3.258   3.366  -0.167  0.00  0.00    +0.155 HD
BRANCH   6  15
ATOM     10  C   UNL     1      -2.319   3.431   1.091  0.00  0.00    +0.044 C 
ATOM     11  C   UNL     1      -1.094   2.879   0.409  0.00  0.00    -0.048 A 
ATOM     12  C   UNL     1      -1.152   1.651  -0.226  0.00  0.00    +0.007 A 
ATOM     13  C   UNL     1      -0.030   1.138  -0.849  0.00  0.00    +0.048 A 
ATOM     14  C   UNL     1       1.154   1.857  -0.848  0.00  0.00    +0.141 A 
ATOM     15  C   UNL     1       1.212   3.096  -0.214  0.00  0.00    +0.076 A 
ATOM     16  C   UNL     1       0.083   3.603   0.414  0.00  0.00    +0.030 A 
BRANCH  14  17
ATOM     17  O   UNL     1       2.256   1.356  -1.466  0.00  0.00    -0.493 OA
ATOM     18  C   UNL     1       2.123   0.080  -2.096  0.00  0.00    +0.277 C 
ENDBRANCH  14  17
ENDBRANCH   6  15
ENDBRANCH   5   7
ENDBRANCH   1   5
BRANCH   2  19
ATOM     19  C   UNL     1       4.038   9.763  -0.537  0.00  0.00    +0.019 C 
BRANCH  19  21
ATOM     20  C   UNL     1       5.972  10.272  -1.903  0.00  0.00    -0.095 C 
ATOM     21  N   UNL     1       5.307  10.518  -0.606  0.00  0.00    +0.388 N 
ATOM     22  H   UNL     1       5.925  10.201   0.151  0.00  0.00    -0.081 HD
BRANCH  21  23
ATOM     23  C   UNL     1       5.045  11.963  -0.438  0.00  0.00    -0.041 C 
ATOM     24  C   UNL     1       6.379  12.711  -0.427  0.00  0.00    -0.008 C 
BRANCH  23  25
ATOM     25  C   UNL     1       4.334  12.183   0.872  0.00  0.00    -0.061 A 
ATOM     26  C   UNL     1       4.765  11.527   2.010  0.00  0.00    +0.005 A 
ATOM     27  C   UNL     1       4.117  11.733   3.214  0.00  0.00    +0.038 A 
ATOM     28  C   UNL     1       3.030  12.588   3.277  0.00  0.00    +0.123 A 
ATOM     29  C   UNL     1       2.596  13.240   2.135  0.00  0.00    +0.038 A 
ATOM     30  C   UNL     1       3.248  13.037   0.934  0.00  0.00    +0.005 A 
ATOM     31  F   UNL     1       2.392  12.785   4.452  0.00  0.00    -0.205 F 
ENDBRANCH  23  25
ENDBRANCH  21  23
ENDBRANCH  19  21
ENDBRANCH   2  19
TORSDOF 8
