REMARK  Name = ZINC39912244
REMARK  12 active torsions:
REMARK  status: ('A' for Active; 'I' for Inactive)
REMARK    1  A    between atoms: C_1  and  C_2
REMARK    2  A    between atoms: C_4  and  C_38
REMARK    3  A    between atoms: C_5  and  O_37
REMARK    4  A    between atoms: C_6  and  C_8
REMARK    5  A    between atoms: N_16  and  C_31
REMARK    6  A    between atoms: C_17  and  C_19
REMARK    7  A    between atoms: C_22  and  O_27
REMARK    8  A    between atoms: C_23  and  O_25
REMARK    9  A    between atoms: O_25  and  C_26
REMARK   10  A    between atoms: O_27  and  C_28
REMARK   11  A    between atoms: C_28  and  C_29
REMARK   12  A    between atoms: C_31  and  C_32
REMARK                            x       y       z     vdW  Elec       q    Type
REMARK                         _______ _______ _______ _____ _____    ______ ____
ROOT
ATOM      1  C   UNL     1       0.019  -2.606   2.198  0.00  0.00    +0.102 A 
ATOM      2  C   UNL     1       0.156  -2.212   3.534  0.00  0.00    +0.035 A 
ATOM      3  C   UNL     1       0.330  -3.378   4.254  0.00  0.00    +0.126 A 
ATOM      4  N   UNL     1       0.293  -4.396   3.344  0.00  0.00    -0.272 N 
ATOM      5  H   UNL     1       0.388  -5.337   3.557  0.00  0.00    +0.189 HD
ATOM      6  N   UNL     1       0.107  -3.921   2.164  0.00  0.00    -0.173 NA
ATOM      7  C   UNL     1       0.480  -3.032   5.672  0.00  0.00    +0.266 C 
ATOM      8  O   UNL     1       0.651  -3.836   6.569  0.00  0.00    -0.268 OA
ATOM      9  N   UNL     1       0.403  -1.700   5.840  0.00  0.00    -0.278 N 
ATOM     10  C   UNL     1       0.195  -1.081   4.524  0.00  0.00    +0.142 C 
ENDROOT
BRANCH   1  16
ATOM     11  C   UNL     1      -0.799   1.963   0.359  0.00  0.00    +0.044 C 
ATOM     12  C   UNL     1      -0.585   0.486   0.145  0.00  0.00    -0.049 A 
ATOM     13  C   UNL     1      -0.586  -0.032  -1.137  0.00  0.00    +0.010 A 
ATOM     14  C   UNL     1      -0.390  -1.385  -1.343  0.00  0.00    -0.008 A 
ATOM     15  C   UNL     1      -0.192  -2.229  -0.262  0.00  0.00    +0.129 A 
ATOM     16  C   UNL     1      -0.191  -1.708   1.035  0.00  0.00    +0.044 A 
ATOM     17  C   UNL     1      -0.383  -0.343   1.230  0.00  0.00    +0.017 A 
ATOM     18  C   UNL     1      -0.392  -1.942  -2.743  0.00  0.00    +0.047 C 
BRANCH  15  19
ATOM     19  O   UNL     1      -0.001  -3.559  -0.463  0.00  0.00    -0.506 OA
ATOM     20  H   UNL     1       0.926  -3.811  -0.576  0.00  0.00    +0.292 HD
ENDBRANCH  15  19
ENDBRANCH   1  16
BRANCH  10  21
ATOM     21  C   UNL     1       1.335  -0.149   4.204  0.00  0.00    -0.019 A 
ATOM     22  C   UNL     1       1.074   1.154   3.822  0.00  0.00    +0.009 A 
ATOM     23  C   UNL     1       2.117   2.013   3.526  0.00  0.00    +0.050 A 
ATOM     24  C   UNL     1       3.426   1.568   3.613  0.00  0.00    +0.162 A 
ATOM     25  C   UNL     1       3.689   0.256   3.997  0.00  0.00    +0.162 A 
ATOM     26  C   UNL     1       2.639  -0.598   4.297  0.00  0.00    +0.055 A 
BRANCH  25  27
ATOM     27  O   UNL     1       4.972  -0.185   4.084  0.00  0.00    -0.491 OA
ATOM     28  C   UNL     1       5.170  -1.514   4.570  0.00  0.00    +0.277 C 
ENDBRANCH  25  27
BRANCH  24  29
ATOM     29  O   UNL     1       4.453   2.411   3.322  0.00  0.00    -0.484 OA
BRANCH  29  30
ATOM     30  C   UNL     1       4.109   3.742   2.934  0.00  0.00    +0.256 C 
BRANCH  30  31
ATOM     31  C   UNL     1       5.366   4.525   2.653  0.00  0.00    +0.006 C 
ATOM     32  C   UNL     1       5.443   5.279   1.585  0.00  0.00    +0.007 C 
ENDBRANCH  30  31
ENDBRANCH  29  30
ENDBRANCH  24  29
ENDBRANCH  10  21
BRANCH   9  33
ATOM     33  C   UNL     1       0.509  -0.988   7.116  0.00  0.00    +0.183 C 
BRANCH  33  34
ATOM     34  C   UNL     1       1.952  -0.640   7.379  0.00  0.00    +0.122 A 
ATOM     35  C   UNL     1       2.568   0.494   7.002  0.00  0.00    +0.046 A 
ATOM     36  C   UNL     1       3.906   0.402   7.452  0.00  0.00    +0.041 A 
ATOM     37  C   UNL     1       4.026  -0.783   8.077  0.00  0.00    +0.195 A 
ATOM     38  O   UNL     1       2.838  -1.407   8.035  0.00  0.00    -0.466 OA
ENDBRANCH  33  34
ENDBRANCH   9  33
TORSDOF 9
