REMARK  Name = ZINC67400836
REMARK  6 active torsions:
REMARK  status: ('A' for Active; 'I' for Inactive)
REMARK    1  A    between atoms: C_6  and  C_7
REMARK    2  A    between atoms: C_7  and  C_9
REMARK    3  A    between atoms: C_7  and  N_12
REMARK    4  A    between atoms: C_15  and  C_18
REMARK    5  A    between atoms: C_18  and  C_20
REMARK    6  A    between atoms: C_18  and  O_27
REMARK                            x       y       z     vdW  Elec       q    Type
REMARK                         _______ _______ _______ _____ _____    ______ ____
ROOT
ATOM      1  N   UNL     1      -1.737  -1.817   0.945  0.00  0.00    +0.390 N 
ATOM      2  C   UNL     1      -1.556  -1.346   2.323  0.00  0.00    -0.077 C 
ATOM      3  C   UNL     1      -1.941  -2.458   3.301  0.00  0.00    -0.012 C 
ATOM      4  C   UNL     1      -3.408  -2.840   3.080  0.00  0.00    +0.019 C 
ATOM      5  C   UNL     1      -3.600  -3.259   1.620  0.00  0.00    -0.012 C 
ATOM      6  C   UNL     1      -3.154  -2.117   0.704  0.00  0.00    -0.077 C 
ATOM      7  H   UNL     1      -1.189  -2.652   0.802  0.00  0.00    -0.080 HD
ENDROOT
BRANCH   1   8
ATOM      8  C   UNL     1      -1.293  -0.775   0.010  0.00  0.00    +0.050 C 
BRANCH   8  14
ATOM      9  C   UNL     1       0.612   0.837   0.203  0.00  0.00    +0.005 A 
ATOM     10  C   UNL     1       1.947   1.118   0.425  0.00  0.00    +0.038 A 
ATOM     11  C   UNL     1       2.834   0.091   0.699  0.00  0.00    +0.123 A 
ATOM     12  C   UNL     1       2.382  -1.217   0.750  0.00  0.00    +0.038 A 
ATOM     13  C   UNL     1       1.047  -1.496   0.527  0.00  0.00    +0.005 A 
ATOM     14  C   UNL     1       0.163  -0.469   0.253  0.00  0.00    -0.052 A 
ATOM     15  F   UNL     1       4.139   0.365   0.917  0.00  0.00    -0.205 F 
ENDBRANCH   8  14
BRANCH   8  16
ATOM     16  C   UNL     1      -1.475  -1.259  -1.405  0.00  0.00    +0.201 C 
ATOM     17  O   UNL     1      -1.419  -2.445  -1.653  0.00  0.00    -0.277 OA
ATOM     18  N   UNL     1      -1.701  -0.373  -2.396  0.00  0.00    -0.330 N 
ATOM     19  H   UNL     1      -1.746   0.575  -2.198  0.00  0.00    +0.145 HD
ATOM     20  H   UNL     1      -1.818  -0.685  -3.307  0.00  0.00    +0.145 HD
ENDBRANCH   8  16
ENDBRANCH   1   8
BRANCH   4  21
ATOM     21  C   UNL     1      -3.777  -4.005   4.000  0.00  0.00    +0.147 C 
BRANCH  21  22
ATOM     22  C   UNL     1      -5.220  -4.380   3.780  0.00  0.00    -0.019 A 
ATOM     23  C   UNL     1      -5.561  -5.254   2.765  0.00  0.00    +0.007 A 
ATOM     24  C   UNL     1      -6.884  -5.598   2.563  0.00  0.00    +0.020 A 
ATOM     25  C   UNL     1      -7.868  -5.067   3.378  0.00  0.00    +0.041 A 
ATOM     26  C   UNL     1      -7.527  -4.192   4.394  0.00  0.00    +0.020 A 
ATOM     27  C   UNL     1      -6.203  -3.854   4.598  0.00  0.00    +0.007 A 
ATOM     28 CL   UNL     1      -9.531  -5.498   3.125  0.00  0.00    -0.084 Cl
ENDBRANCH  21  22
BRANCH  21  29
ATOM     29  O   UNL     1      -2.944  -5.128   3.705  0.00  0.00    -0.387 OA
ATOM     30  H   UNL     1      -3.021  -5.447   2.795  0.00  0.00    +0.210 HD
ENDBRANCH  21  29
ENDBRANCH   4  21
TORSDOF 6
