REMARK  Name = ZINC39466833
REMARK  5 active torsions:
REMARK  status: ('A' for Active; 'I' for Inactive)
REMARK    1  A    between atoms: C_1  and  C_2
REMARK    2  A    between atoms: C_2  and  O_3
REMARK    3  A    between atoms: O_3  and  C_4
REMARK    4  A    between atoms: P_20  and  C_23
REMARK    5  A    between atoms: C_23  and  C_24
REMARK                            x       y       z     vdW  Elec       q    Type
REMARK                         _______ _______ _______ _____ _____    ______ ____
ROOT
ATOM      1  C   UNL     1       0.802  -1.824   1.306  0.00  0.00    +0.130 C 
ATOM      2  C   UNL     1       0.280  -2.645   0.386  0.00  0.00    +0.022 C 
ATOM      3  C   UNL     1       0.430  -4.130   0.575  0.00  0.00    +0.008 C 
ATOM      4  C   UNL     1       0.306  -4.881  -0.745  0.00  0.00    -0.046 C 
ATOM      5  N   UNL     1       0.417  -6.330  -0.506  0.00  0.00    +0.397 N 
ATOM      6  C   UNL     1       1.704  -6.676   0.097  0.00  0.00    -0.020 C 
ATOM      7  C   UNL     1       1.921  -5.917   1.413  0.00  0.00    -0.003 C 
ATOM      8  C   UNL     1       1.822  -4.417   1.153  0.00  0.00    +0.017 C 
ATOM      9  C   UNL     1       1.995  -3.626   2.420  0.00  0.00    -0.004 C 
ATOM     10  C   UNL     1       1.502  -2.390   2.476  0.00  0.00    +0.056 C 
ATOM     11 BR   UNL     1       1.693  -1.367   4.055  0.00  0.00    -0.047 Br
ATOM     12  C   UNL     1       1.781  -8.170   0.437  0.00  0.00    +0.156 C 
ATOM     13  O   UNL     1       1.661  -8.941  -0.772  0.00  0.00    -0.319 OA
ATOM     14  P   UNL     1       0.423  -8.597  -1.771  0.00  0.00    +0.262 P 
ATOM     15  O   UNL     1      -0.820  -9.237  -1.286  0.00  0.00    -0.274 OA
ATOM     16  N   UNL     1       0.284  -6.936  -1.738  0.00  0.00    -0.291 NA
ATOM     17  H   UNL     1       0.103  -6.417  -2.537  0.00  0.00    +0.111 HD
ATOM     18  H   UNL     1      -0.332  -6.631   0.099  0.00  0.00    -0.055 HD
ENDROOT
BRANCH   1  19
ATOM     19  O   UNL     1       0.693  -0.477   1.160  0.00  0.00    -0.491 OA
BRANCH  19  21
ATOM     20  C   UNL     1      -0.019   1.526   0.010  0.00  0.00    +0.048 C 
ATOM     21  C   UNL     1       0.002  -0.004   0.002  0.00  0.00    +0.226 C 
ENDBRANCH  19  21
ENDBRANCH   1  19
BRANCH  14  22
ATOM     22  C   UNL     1       0.802  -9.158  -3.463  0.00  0.00    +0.147 C 
BRANCH  22  23
ATOM     23  C   UNL     1       1.032 -10.647  -3.460  0.00  0.00    -0.037 A 
ATOM     24  C   UNL     1       2.303 -11.150  -3.251  0.00  0.00    +0.004 A 
ATOM     25  C   UNL     1       2.514 -12.516  -3.248  0.00  0.00    +0.000 A 
ATOM     26  C   UNL     1       1.454 -13.379  -3.453  0.00  0.00    +0.000 A 
ATOM     27  C   UNL     1       0.183 -12.877  -3.660  0.00  0.00    +0.000 A 
ATOM     28  C   UNL     1      -0.029 -11.511  -3.660  0.00  0.00    +0.004 A 
ENDBRANCH  22  23
ENDBRANCH  14  22
TORSDOF 4
