REMARK  Name = ZINC20764285
REMARK  12 active torsions:
REMARK  status: ('A' for Active; 'I' for Inactive)
REMARK    1  A    between atoms: C_1  and  C_2
REMARK    2  A    between atoms: C_2  and  O_3
REMARK    3  A    between atoms: O_3  and  C_4
REMARK    4  A    between atoms: C_7  and  C_10
REMARK    5  A    between atoms: C_12  and  C_28
REMARK    6  A    between atoms: C_15  and  C_18
REMARK    7  A    between atoms: C_22  and  O_25
REMARK    8  A    between atoms: C_23  and  O_24
REMARK    9  A    between atoms: O_25  and  C_26
REMARK   10  A    between atoms: C_26  and  C_27
REMARK   11  A    between atoms: C_32  and  O_34
REMARK   12  A    between atoms: O_34  and  C_35
REMARK                            x       y       z     vdW  Elec       q    Type
REMARK                         _______ _______ _______ _____ _____    ______ ____
ROOT
ATOM      1  C   UNL     1      -2.500   1.008   0.019  0.00  0.00    +0.040 C 
ATOM      2  N   UNL     1      -2.451  -0.272   0.007  0.00  0.00    -0.299 NA
ATOM      3  C   UNL     1      -3.626  -1.135   0.002  0.00  0.00    +0.081 C 
ATOM      4  N   UNL     1      -4.820  -0.391   0.420  0.00  0.00    +0.401 N 
ATOM      5  C   UNL     1      -4.944   0.852  -0.361  0.00  0.00    -0.028 C 
ATOM      6  C   UNL     1      -3.790   1.780   0.030  0.00  0.00    +0.044 C 
ATOM      7  H   UNL     1      -5.714  -1.010   0.257  0.00  0.00    -0.081 HD
ATOM      8  H   UNL     1      -4.739  -0.138   1.488  0.00  0.00    -0.081 HD
ENDROOT
BRANCH   1  12
ATOM      9  C   UNL     1       1.152   3.171   0.008  0.00  0.00    +0.121 A 
ATOM     10  C   UNL     1       1.170   1.782   0.001  0.00  0.00    +0.046 A 
ATOM     11  C   UNL     1      -0.013   1.076   0.008  0.00  0.00    +0.013 A 
ATOM     12  C   UNL     1      -1.232   1.759   0.017  0.00  0.00    -0.004 A 
ATOM     13  C   UNL     1      -1.245   3.156   0.030  0.00  0.00    +0.013 A 
ATOM     14  C   UNL     1      -0.058   3.854   0.023  0.00  0.00    +0.046 A 
BRANCH   9  15
ATOM     15  O   UNL     1       2.321   3.863   0.001  0.00  0.00    -0.492 OA
BRANCH  15  17
ATOM     16  C   UNL     1       3.637   5.890  -0.001  0.00  0.00    +0.048 C 
ATOM     17  C   UNL     1       2.230   5.289   0.009  0.00  0.00    +0.225 C 
ENDBRANCH  15  17
ENDBRANCH   9  15
ENDBRANCH   1  12
BRANCH   5  18
ATOM     18  C   UNL     1      -6.260   1.518  -0.051  0.00  0.00    -0.016 A 
ATOM     19  C   UNL     1      -6.902   1.258   1.145  0.00  0.00    +0.006 A 
ATOM     20  C   UNL     1      -8.106   1.872   1.435  0.00  0.00    +0.004 A 
ATOM     21  C   UNL     1      -8.679   2.741   0.524  0.00  0.00    +0.049 A 
ATOM     22  C   UNL     1      -8.044   3.002  -0.679  0.00  0.00    +0.162 A 
ATOM     23  C   UNL     1      -6.829   2.388  -0.968  0.00  0.00    +0.160 A 
BRANCH  23  24
ATOM     24  O   UNL     1      -6.201   2.641  -2.147  0.00  0.00    -0.503 OA
ATOM     25  H   UNL     1      -6.653   3.332  -2.874  0.00  0.00    +0.292 HD
ENDBRANCH  23  24
BRANCH  22  26
ATOM     26  O   UNL     1      -8.606   3.856  -1.575  0.00  0.00    -0.489 OA
BRANCH  26  27
ATOM     27  C   UNL     1      -9.854   4.449  -1.211  0.00  0.00    +0.226 C 
ATOM     28  C   UNL     1     -10.327   5.372  -2.336  0.00  0.00    +0.048 C 
ENDBRANCH  26  27
ENDBRANCH  22  26
ENDBRANCH   5  18
BRANCH   3  29
ATOM     29  C   UNL     1      -3.837  -1.670  -1.391  0.00  0.00    -0.037 A 
ATOM     30  C   UNL     1      -5.112  -1.989  -1.823  0.00  0.00    +0.004 A 
ATOM     31  C   UNL     1      -5.309  -2.479  -3.100  0.00  0.00    +0.004 A 
ATOM     32  C   UNL     1      -4.233  -2.651  -3.949  0.00  0.00    +0.045 A 
ATOM     33  C   UNL     1      -2.953  -2.333  -3.518  0.00  0.00    +0.120 A 
ATOM     34  C   UNL     1      -2.758  -1.836  -2.237  0.00  0.00    +0.049 A 
BRANCH  33  35
ATOM     35  O   UNL     1      -1.893  -2.502  -4.351  0.00  0.00    -0.495 OA
ATOM     36  C   UNL     1      -2.168  -3.012  -5.657  0.00  0.00    +0.277 C 
ENDBRANCH  33  35
ENDBRANCH   3  29
TORSDOF 9
