REMARK  Name = ZINC20716746
REMARK  8 active torsions:
REMARK  status: ('A' for Active; 'I' for Inactive)
REMARK    1  A    between atoms: C_1  and  C_2
REMARK    2  A    between atoms: C_2  and  C_3
REMARK    3  A    between atoms: C_2  and  C_4
REMARK    4  A    between atoms: C_4  and  C_6
REMARK    5  A    between atoms: C_4  and  N_10
REMARK    6  A    between atoms: C_6  and  O_8
REMARK    7  A    between atoms: O_8  and  C_9
REMARK    8  A    between atoms: C_22  and  C_24
REMARK                            x       y       z     vdW  Elec       q    Type
REMARK                         _______ _______ _______ _____ _____    ______ ____
ROOT
ATOM      1  N   UNL     1      -1.355  -1.811  -2.180  0.00  0.00    -0.286 N 
ATOM      2  C   UNL     1      -2.079  -0.690  -2.366  0.00  0.00    +0.304 C 
ATOM      3  O   UNL     1      -2.311   0.047  -1.427  0.00  0.00    -0.253 OA
ATOM      4  N   UNL     1      -2.546  -0.384  -3.593  0.00  0.00    -0.273 N 
ATOM      5  C   UNL     1      -3.237   0.890  -3.841  0.00  0.00    +0.116 C 
ATOM      6  C   UNL     1      -2.411   1.728  -4.824  0.00  0.00    +0.076 C 
ATOM      7  C   UNL     1      -1.959   0.844  -5.959  0.00  0.00    +0.066 A 
ATOM      8  C   UNL     1      -1.939  -0.505  -5.913  0.00  0.00    +0.064 A 
ATOM      9  N   UNL     1      -1.470  -0.943  -7.113  0.00  0.00    -0.346 N 
ATOM     10  H   UNL     1      -1.341  -1.866  -7.380  0.00  0.00    +0.167 HD
ATOM     11  C   UNL     1      -1.219   0.155  -7.862  0.00  0.00    +0.197 A 
ATOM     12  N   UNL     1      -1.515   1.219  -7.163  0.00  0.00    -0.240 NA
ATOM     13  C   UNL     1      -2.371  -1.316  -4.722  0.00  0.00    +0.159 C 
ATOM     14  H   UNL     1      -1.231  -2.435  -2.913  0.00  0.00    +0.151 HD
ENDROOT
BRANCH  13  15
ATOM     15  C   UNL     1      -3.676  -2.008  -5.023  0.00  0.00    +0.014 A 
ATOM     16  C   UNL     1      -4.119  -2.110  -6.329  0.00  0.00    +0.010 A 
ATOM     17  C   UNL     1      -5.315  -2.744  -6.606  0.00  0.00    +0.020 A 
ATOM     18  C   UNL     1      -6.071  -3.277  -5.577  0.00  0.00    +0.044 A 
ATOM     19  C   UNL     1      -5.630  -3.176  -4.270  0.00  0.00    +0.058 A 
ATOM     20  C   UNL     1      -4.429  -2.545  -3.993  0.00  0.00    +0.130 A 
ATOM     21  F   UNL     1      -3.994  -2.450  -2.717  0.00  0.00    -0.205 F 
ATOM     22 CL   UNL     1      -7.574  -4.073  -5.926  0.00  0.00    -0.083 Cl
ENDBRANCH  13  15
BRANCH   1  23
ATOM     23  C   UNL     1      -0.756  -2.088  -0.872  0.00  0.00    +0.186 C 
BRANCH  23  25
ATOM     24  C   UNL     1      -2.132  -4.150  -0.561  0.00  0.00    +0.009 C 
ATOM     25  C   UNL     1      -1.785  -2.780   0.024  0.00  0.00    +0.014 C 
ATOM     26  C   UNL     1      -1.202  -2.957   1.427  0.00  0.00    +0.009 C 
ENDBRANCH  23  25
BRANCH  23  27
ATOM     27  C   UNL     1       0.441  -2.986  -1.048  0.00  0.00    +0.328 C 
ATOM     28  O   UNL     1       0.761  -3.357  -2.153  0.00  0.00    -0.249 OA
BRANCH  27  29
ATOM     29  O   UNL     1       1.152  -3.375   0.022  0.00  0.00    -0.467 OA
ATOM     30  C   UNL     1       2.274  -4.226  -0.219  0.00  0.00    +0.280 C 
ENDBRANCH  27  29
ENDBRANCH  23  27
ENDBRANCH   1  23
TORSDOF 5
