REMARK  Name = ZINC15731266
REMARK  10 active torsions:
REMARK  status: ('A' for Active; 'I' for Inactive)
REMARK    1  A    between atoms: C_1  and  C_2
REMARK    2  A    between atoms: C_6  and  N_8
REMARK    3  A    between atoms: C_9  and  N_27
REMARK    4  A    between atoms: C_10  and  C_14
REMARK    5  A    between atoms: C_11  and  C_13
REMARK    6  A    between atoms: N_16  and  C_17
REMARK    7  A    between atoms: C_17  and  C_18
REMARK    8  A    between atoms: C_18  and  C_19
REMARK    9  A    between atoms: C_19  and  N_64
REMARK   10  A    between atoms: C_24  and  C_26
REMARK                            x       y       z     vdW  Elec       q    Type
REMARK                         _______ _______ _______ _____ _____    ______ ____
ROOT
ATOM      1  N   UNL     1      -2.458   3.804  -0.575  0.00  0.00    -0.215 N 
ATOM      2  C   UNL     1      -3.605   3.791   0.137  0.00  0.00    +0.154 A 
ATOM      3  C   UNL     1      -4.267   2.608  -0.174  0.00  0.00    +0.102 A 
ATOM      4  C   UNL     1      -3.456   1.911  -1.099  0.00  0.00    +0.075 A 
ATOM      5  N   UNL     1      -2.391   2.627  -1.328  0.00  0.00    -0.169 NA
ATOM      6  C   UNL     1      -3.770   0.571  -1.713  0.00  0.00    +0.068 C 
ENDROOT
BRANCH   1  12
ATOM      7  C   UNL     1       2.261   5.172  -0.796  0.00  0.00    +0.044 C 
ATOM      8  C   UNL     1       0.799   5.513  -0.664  0.00  0.00    -0.048 A 
ATOM      9  C   UNL     1       0.406   6.832  -0.533  0.00  0.00    +0.003 A 
ATOM     10  C   UNL     1      -0.934   7.149  -0.412  0.00  0.00    +0.002 A 
ATOM     11  C   UNL     1      -1.886   6.147  -0.421  0.00  0.00    +0.028 A 
ATOM     12  C   UNL     1      -1.495   4.822  -0.559  0.00  0.00    +0.068 A 
ATOM     13  C   UNL     1      -0.147   4.507  -0.675  0.00  0.00    +0.031 A 
ENDBRANCH   1  12
BRANCH   2  14
ATOM     14  N   UNL     1      -4.043   4.776   1.014  0.00  0.00    -0.307 N 
ATOM     15  C   UNL     1      -5.310   5.286   1.073  0.00  0.00    +0.092 A 
ATOM     16  C   UNL     1      -5.345   6.214   2.049  0.00  0.00    +0.019 A 
ATOM     17  C   UNL     1      -4.053   6.290   2.610  0.00  0.00    +0.019 A 
ATOM     18  C   UNL     1      -3.277   5.401   1.959  0.00  0.00    +0.092 A 
ENDBRANCH   2  14
BRANCH   3  19
ATOM     19  C   UNL     1      -5.561   2.164   0.363  0.00  0.00    +0.249 C 
ATOM     20  O   UNL     1      -5.602   1.500   1.381  0.00  0.00    -0.270 OA
ATOM     21  N   UNL     1      -6.703   2.493  -0.273  0.00  0.00    -0.311 N 
ATOM     22  H   UNL     1      -6.671   3.023  -1.084  0.00  0.00    +0.149 HD
BRANCH  21  23
ATOM     23  C   UNL     1      -7.993   2.051   0.263  0.00  0.00    +0.102 C 
BRANCH  23  24
ATOM     24  C   UNL     1      -9.120   2.555  -0.641  0.00  0.00    +0.000 C 
BRANCH  24  25
ATOM     25  C   UNL     1     -10.467   2.092  -0.082  0.00  0.00    -0.077 C 
BRANCH  25  32
ATOM     26  C   UNL     1     -11.512   1.912  -2.259  0.00  0.00    -0.078 C 
ATOM     27  C   UNL     1     -12.557   2.542  -3.183  0.00  0.00    -0.019 C 
ATOM     28  C   UNL     1     -13.944   2.392  -2.553  0.00  0.00    -0.003 C 
ATOM     29  C   UNL     1     -13.943   3.050  -1.170  0.00  0.00    -0.016 C 
ATOM     30  C   UNL     1     -12.857   2.405  -0.305  0.00  0.00    -0.072 C 
ATOM     31  C   UNL     1     -12.839   3.074   1.071  0.00  0.00    -0.013 C 
ATOM     32  N   UNL     1     -11.544   2.606  -0.954  0.00  0.00    +0.381 N 
ATOM     33  H   UNL     1     -11.399   3.611  -1.107  0.00  0.00    -0.081 HD
ENDBRANCH  25  32
ENDBRANCH  24  25
ENDBRANCH  23  24
ENDBRANCH  21  23
ENDBRANCH   3  19
TORSDOF 7
