REMARK  Name = ZINC63552609
REMARK  11 active torsions:
REMARK  status: ('A' for Active; 'I' for Inactive)
REMARK    1  A    between atoms: C_1  and  C_2
REMARK    2  A    between atoms: C_2  and  O_3
REMARK    3  A    between atoms: O_3  and  C_4
REMARK    4  A    between atoms: C_7  and  C_9
REMARK    5  A    between atoms: C_9  and  S_10
REMARK    6  A    between atoms: S_10  and  C_11
REMARK    7  A    between atoms: C_17  and  C_19
REMARK    8  A    between atoms: C_19  and  S_20
REMARK    9  A    between atoms: S_20  and  C_21
REMARK   10  A    between atoms: C_27  and  O_31
REMARK   11  A    between atoms: O_31  and  C_32
REMARK                            x       y       z     vdW  Elec       q    Type
REMARK                         _______ _______ _______ _____ _____    ______ ____
ROOT
ATOM      1  C   UNL     1       3.104  -6.555   5.072  0.00  0.00    +0.160 A 
ATOM      2  N   UNL     1       3.654  -5.832   6.036  0.00  0.00    -0.133 NA
ATOM      3  N   UNL     1       4.242  -6.364   7.016  0.00  0.00    -0.125 NA
ATOM      4  C   UNL     1       4.347  -7.677   7.142  0.00  0.00    +0.189 A 
ATOM      5  S   UNL     1       3.482  -8.201   5.665  0.00  0.00    -0.024 S 
ATOM      6  N   UNL     1       4.953  -8.434   8.142  0.00  0.00    -0.263 N 
ATOM      7  C   UNL     1       5.551  -7.821   9.183  0.00  0.00    +0.229 C 
ATOM      8  O   UNL     1       5.561  -6.610   9.249  0.00  0.00    -0.275 OA
ATOM      9  H   UNL     1       4.944  -9.403   8.089  0.00  0.00    +0.157 HD
ENDROOT
BRANCH   1  10
ATOM     10  S   UNL     1       2.240  -6.044   3.623  0.00  0.00    -0.088 S 
BRANCH  10  11
ATOM     11  C   UNL     1       2.264  -4.232   3.715  0.00  0.00    +0.172 C 
BRANCH  11  15
ATOM     12  C   UNL     1       0.801  -1.811   1.304  0.00  0.00    +0.407 C 
ATOM     13  O   UNL     1       0.322  -2.553   0.471  0.00  0.00    -0.226 OA
ATOM     14  N   UNL     1       1.441  -2.324   2.374  0.00  0.00    -0.221 N 
ATOM     15  C   UNL     1       1.549  -3.659   2.519  0.00  0.00    +0.232 C 
ATOM     16  O   UNL     1       1.070  -4.400   1.687  0.00  0.00    -0.274 OA
ATOM     17  H   UNL     1       1.824  -1.731   3.040  0.00  0.00    +0.161 HD
BRANCH  12  18
ATOM     18  O   UNL     1       0.693  -0.477   1.160  0.00  0.00    -0.450 OA
BRANCH  18  20
ATOM     19  C   UNL     1      -0.019   1.526   0.010  0.00  0.00    +0.048 C 
ATOM     20  C   UNL     1       0.002  -0.004   0.002  0.00  0.00    +0.230 C 
ENDBRANCH  18  20
ENDBRANCH  12  18
ENDBRANCH  11  15
ENDBRANCH  10  11
ENDBRANCH   1  10
BRANCH   7  21
ATOM     21  C   UNL     1       6.206  -8.641  10.265  0.00  0.00    +0.169 C 
BRANCH  21  22
ATOM     22  S   UNL     1       6.915  -7.535  11.515  0.00  0.00    -0.106 S 
BRANCH  22  23
ATOM     23  C   UNL     1       7.655  -8.662  12.729  0.00  0.00    +0.236 C 
ATOM     24  N   UNL     1       8.645  -9.527  12.075  0.00  0.00    -0.355 N 
ATOM     25  C   UNL     1       8.250 -10.758  12.225  0.00  0.00    +0.061 A 
ATOM     26  C   UNL     1       8.824 -12.041  11.790  0.00  0.00    +0.031 A 
ATOM     27  C   UNL     1       8.191 -13.191  12.087  0.00  0.00    +0.048 A 
ATOM     28  C   UNL     1       6.940 -13.211  12.834  0.00  0.00    +0.122 A 
ATOM     29  C   UNL     1       6.349 -12.072  13.269  0.00  0.00    +0.073 A 
ATOM     30  C   UNL     1       6.973 -10.777  12.988  0.00  0.00    +0.064 A 
ATOM     31  N   UNL     1       6.627  -9.552  13.282  0.00  0.00    -0.355 N 
ATOM     32  H   UNL     1       9.447  -9.234  11.615  0.00  0.00    +0.162 HD
ATOM     33  H   UNL     1       5.838  -9.280  13.775  0.00  0.00    +0.162 HD
BRANCH  28  34
ATOM     34  O   UNL     1       6.351 -14.403  13.101  0.00  0.00    -0.495 OA
ATOM     35  C   UNL     1       7.012 -15.576  12.621  0.00  0.00    +0.277 C 
ENDBRANCH  28  34
ENDBRANCH  22  23
ENDBRANCH  21  22
ENDBRANCH   7  21
TORSDOF 9
