REMARK  Name = ZINC39662428
REMARK  7 active torsions:
REMARK  status: ('A' for Active; 'I' for Inactive)
REMARK    1  A    between atoms: C_4  and  C_7
REMARK    2  A    between atoms: C_7  and  C_9
REMARK    3  A    between atoms: C_7  and  N_11
REMARK    4  A    between atoms: C_12  and  C_14
REMARK    5  A    between atoms: C_25  and  C_27
REMARK    6  A    between atoms: C_27  and  O_28
REMARK    7  A    between atoms: O_28  and  C_29
REMARK                            x       y       z     vdW  Elec       q    Type
REMARK                         _______ _______ _______ _____ _____    ______ ____
ROOT
ATOM      1  C   UNL     1       4.619  -3.561  -2.422  0.00  0.00    +0.100 C 
ATOM      2  C   UNL     1       3.669  -3.251  -3.601  0.00  0.00    +0.121 C 
ATOM      3  N   UNL     1       4.563  -2.800  -4.693  0.00  0.00    -0.297 N 
ATOM      4  C   UNL     1       5.745  -3.688  -4.592  0.00  0.00    +0.115 C 
ATOM      5  C   UNL     1       5.979  -3.851  -3.077  0.00  0.00    -0.004 C 
ATOM      6  C   UNL     1       6.425  -5.275  -2.762  0.00  0.00    -0.010 C 
ATOM      7  C   UNL     1       7.807  -5.521  -3.374  0.00  0.00    -0.082 C 
ATOM      8  N   UNL     1       8.766  -4.554  -2.826  0.00  0.00    +0.379 N 
ATOM      9  C   UNL     1       8.380  -3.192  -3.214  0.00  0.00    -0.082 C 
ATOM     10  C   UNL     1       7.023  -2.848  -2.594  0.00  0.00    -0.010 C 
ATOM     11  C   UNL     1       4.348  -1.807  -5.579  0.00  0.00    +0.253 C 
ATOM     12  O   UNL     1       5.183  -1.556  -6.422  0.00  0.00    -0.272 OA
ATOM     13  H   UNL     1       8.776  -4.626  -1.820  0.00  0.00    -0.086 HD
ATOM     14  H   UNL     1       9.687  -4.756  -3.185  0.00  0.00    -0.086 HD
ENDROOT
BRANCH   1  16
ATOM     15  N   UNL     1       4.984  -2.550  -0.195  0.00  0.00    -0.296 N 
ATOM     16  C   UNL     1       4.721  -2.370  -1.504  0.00  0.00    +0.219 C 
ATOM     17  O   UNL     1       4.567  -1.251  -1.943  0.00  0.00    -0.275 OA
ATOM     18  H   UNL     1       5.108  -3.446   0.157  0.00  0.00    +0.150 HD
BRANCH  15  19
ATOM     19  C   UNL     1       5.084  -1.393   0.698  0.00  0.00    +0.207 C 
BRANCH  19  23
ATOM     20  C   UNL     1       4.191  -2.599   4.697  0.00  0.00    +0.000 A 
ATOM     21  C   UNL     1       3.726  -1.388   4.221  0.00  0.00    +0.000 A 
ATOM     22  C   UNL     1       4.015  -0.998   2.927  0.00  0.00    +0.006 A 
ATOM     23  C   UNL     1       4.769  -1.818   2.109  0.00  0.00    -0.013 A 
ATOM     24  C   UNL     1       5.235  -3.029   2.586  0.00  0.00    +0.006 A 
ATOM     25  C   UNL     1       4.945  -3.420   3.880  0.00  0.00    +0.000 A 
ENDBRANCH  19  23
BRANCH  19  26
ATOM     26  C   UNL     1       6.450  -0.847   0.643  0.00  0.00    +0.090 C 
ATOM     27  N   UNL     1       7.504  -0.426   0.601  0.00  0.00    -0.194 NA
ENDBRANCH  19  26
ENDBRANCH  15  19
ENDBRANCH   1  16
BRANCH  11  28
ATOM     28  C   UNL     1       3.072  -1.008  -5.521  0.00  0.00    +0.324 C 
BRANCH  28  29
ATOM     29  O   UNL     1       3.080  -0.022  -6.555  0.00  0.00    -0.483 OA
BRANCH  29  30
ATOM     30  C   UNL     1       1.993   0.789  -6.643  0.00  0.00    +0.123 A 
ATOM     31  C   UNL     1       0.942   0.642  -5.748  0.00  0.00    +0.046 A 
ATOM     32  C   UNL     1      -0.161   1.468  -5.838  0.00  0.00    +0.005 A 
ATOM     33  C   UNL     1      -0.221   2.440  -6.819  0.00  0.00    +0.020 A 
ATOM     34  C   UNL     1       0.825   2.589  -7.713  0.00  0.00    +0.044 A 
ATOM     35  C   UNL     1       1.934   1.769  -7.623  0.00  0.00    +0.065 A 
ATOM     36 CL   UNL     1       0.747   3.811  -8.944  0.00  0.00    -0.083 Cl
ENDBRANCH  29  30
ENDBRANCH  28  29
ENDBRANCH  11  28
TORSDOF 7
