REMARK  Name = ZINC43257666
REMARK  5 active torsions:
REMARK  status: ('A' for Active; 'I' for Inactive)
REMARK    1  A    between atoms: C_5  and  C_6
REMARK    2  A    between atoms: C_6  and  C_8
REMARK    3  A    between atoms: C_6  and  S_10
REMARK    4  A    between atoms: C_8  and  N_9
REMARK    5  A    between atoms: S_10  and  C_11
REMARK                            x       y       z     vdW  Elec       q    Type
REMARK                         _______ _______ _______ _____ _____    ______ ____
ROOT
ATOM      1  C   UNL     1      -1.106  -0.995   0.008  0.00  0.00    +0.104 C 
ENDROOT
BRANCH   1   6
ATOM      2  C   UNL     1       0.297   1.166   0.215  0.00  0.00    +0.014 A 
ATOM      3  C   UNL     1       1.565   1.700   0.353  0.00  0.00    +0.028 A 
ATOM      4  C   UNL     1       2.628   0.859   0.423  0.00  0.00    +0.078 A 
ATOM      5  S   UNL     1       1.843  -0.739   0.293  0.00  0.00    -0.081 S 
ATOM      6  C   UNL     1       0.154  -0.180   0.155  0.00  0.00    +0.006 A 
ATOM      7 CL   UNL     1       4.313   1.239   0.594  0.00  0.00    -0.076 Cl
ENDBRANCH   1   6
BRANCH   1   8
ATOM      8  C   UNL     1      -1.258  -1.920   1.217  0.00  0.00    +0.097 C 
BRANCH   8   9
ATOM      9  N   UNL     1      -2.548  -2.620   1.138  0.00  0.00    -0.329 NA
ATOM     10  H   UNL     1      -2.600  -3.189   0.307  0.00  0.00    +0.118 HD
ATOM     11  H   UNL     1      -2.710  -3.173   1.966  0.00  0.00    +0.118 HD
ENDBRANCH   8   9
ENDBRANCH   1   8
BRANCH   1  12
ATOM     12  S   UNL     1      -1.011  -1.988  -1.506  0.00  0.00    -0.076 S 
BRANCH  12  13
ATOM     13  C   UNL     1      -1.072  -0.797  -2.803  0.00  0.00    +0.192 A 
ATOM     14  N   UNL     1      -0.918  -1.197  -4.057  0.00  0.00    -0.230 NA
ATOM     15  C   UNL     1      -0.959  -0.330  -5.057  0.00  0.00    +0.119 A 
ATOM     16  C   UNL     1      -1.165   1.009  -4.783  0.00  0.00    +0.092 A 
ATOM     17  C   UNL     1      -1.324   1.400  -3.454  0.00  0.00    +0.274 A 
ATOM     18  N   UNL     1      -1.277   0.477  -2.501  0.00  0.00    -0.183 NA
ATOM     19  O   UNL     1      -1.528   2.702  -3.140  0.00  0.00    -0.266 OA
ENDBRANCH  12  13
ENDBRANCH   1  12
TORSDOF 5
