REMARK  Name = ZINC09846482
REMARK  10 active torsions:
REMARK  status: ('A' for Active; 'I' for Inactive)
REMARK    1  A    between atoms: C_1  and  C_2
REMARK    2  A    between atoms: C_2  and  O_3
REMARK    3  A    between atoms: O_3  and  C_4
REMARK    4  A    between atoms: C_4  and  C_6
REMARK    5  A    between atoms: C_9  and  N_12
REMARK    6  A    between atoms: N_14  and  C_30
REMARK    7  A    between atoms: C_17  and  C_20
REMARK    8  A    between atoms: C_20  and  C_21
REMARK    9  A    between atoms: N_23  and  C_24
REMARK   10  A    between atoms: C_30  and  C_31
REMARK                            x       y       z     vdW  Elec       q    Type
REMARK                         _______ _______ _______ _____ _____    ______ ____
ROOT
ATOM      1  N   UNL     1       3.361  -3.907  -5.887  0.00  0.00    -0.226 NA
ATOM      2  C   UNL     1       3.102  -3.403  -7.073  0.00  0.00    +0.164 C 
ATOM      3  N   UNL     1       3.634  -3.773  -8.289  0.00  0.00    -0.245 N 
ATOM      4  C   UNL     1       3.289  -3.185  -9.422  0.00  0.00    +0.235 C 
ATOM      5  O   UNL     1       3.761  -3.515 -10.489  0.00  0.00    -0.274 OA
ATOM      6  C   UNL     1       2.265  -2.068  -9.302  0.00  0.00    +0.149 C 
ATOM      7  S   UNL     1       1.972  -2.083  -7.489  0.00  0.00    -0.077 S 
ENDROOT
BRANCH   1  11
ATOM      8  C   UNL     1       1.460  -2.401  -2.547  0.00  0.00    +0.059 A 
ATOM      9  C   UNL     1       1.987  -1.528  -3.505  0.00  0.00    +0.017 A 
ATOM     10  C   UNL     1       2.621  -2.025  -4.606  0.00  0.00    +0.028 A 
ATOM     11  C   UNL     1       2.733  -3.410  -4.783  0.00  0.00    +0.067 A 
ATOM     12  C   UNL     1       2.201  -4.283  -3.827  0.00  0.00    +0.028 A 
ATOM     13  C   UNL     1       1.573  -3.786  -2.723  0.00  0.00    +0.017 A 
BRANCH   8  14
ATOM     14  C   UNL     1       0.781  -1.864  -1.356  0.00  0.00    +0.339 C 
ATOM     15  O   UNL     1       0.318  -2.623  -0.526  0.00  0.00    -0.245 OA
BRANCH  14  16
ATOM     16  O   UNL     1       0.672  -0.532  -1.186  0.00  0.00    -0.461 OA
BRANCH  16  18
ATOM     17  C   UNL     1      -0.035   1.456   0.030  0.00  0.00    +0.048 C 
ATOM     18  C   UNL     1      -0.010  -0.073   0.011  0.00  0.00    +0.229 C 
ENDBRANCH  16  18
ENDBRANCH  14  16
ENDBRANCH   8  14
ENDBRANCH   1  11
BRANCH   6  19
ATOM     19  C   UNL     1       0.984  -2.406 -10.067  0.00  0.00    +0.120 C 
BRANCH  19  20
ATOM     20  C   UNL     1       0.048  -1.226 -10.025  0.00  0.00    +0.219 C 
ATOM     21  O   UNL     1       0.373  -0.214  -9.440  0.00  0.00    -0.275 OA
ATOM     22  N   UNL     1      -1.151  -1.295 -10.637  0.00  0.00    -0.285 N 
ATOM     23  H   UNL     1      -1.384  -2.077 -11.161  0.00  0.00    +0.155 HD
BRANCH  22  24
ATOM     24  C   UNL     1      -2.060  -0.237 -10.517  0.00  0.00    +0.033 A 
ATOM     25  C   UNL     1      -3.423  -0.494 -10.465  0.00  0.00    +0.023 A 
ATOM     26  C   UNL     1      -4.317   0.551 -10.340  0.00  0.00    +0.002 A 
ATOM     27  C   UNL     1      -3.856   1.853 -10.279  0.00  0.00    +0.000 A 
ATOM     28  C   UNL     1      -2.499   2.113 -10.337  0.00  0.00    +0.002 A 
ATOM     29  C   UNL     1      -1.600   1.072 -10.455  0.00  0.00    +0.023 A 
ENDBRANCH  22  24
ENDBRANCH  19  20
ENDBRANCH   6  19
BRANCH   3  30
ATOM     30  C   UNL     1       4.617  -4.859  -8.328  0.00  0.00    +0.150 C 
BRANCH  30  31
ATOM     31  C   UNL     1       3.905  -6.175  -8.512  0.00  0.00    -0.030 A 
ATOM     32  C   UNL     1       3.498  -6.901  -7.409  0.00  0.00    +0.006 A 
ATOM     33  C   UNL     1       2.840  -8.105  -7.577  0.00  0.00    +0.020 A 
ATOM     34  C   UNL     1       2.599  -8.588  -8.851  0.00  0.00    +0.041 A 
ATOM     35  C   UNL     1       3.011  -7.864  -9.955  0.00  0.00    +0.020 A 
ATOM     36  C   UNL     1       3.664  -6.658  -9.785  0.00  0.00    +0.006 A 
ATOM     37 CL   UNL     1       1.779 -10.104  -9.063  0.00  0.00    -0.084 Cl
ENDBRANCH  30  31
ENDBRANCH   3  30
TORSDOF 9
