REMARK  Name = ZINC41001892
REMARK  16 active torsions:
REMARK  status: ('A' for Active; 'I' for Inactive)
REMARK    1  A    between atoms: C_1  and  C_2
REMARK    2  A    between atoms: C_2  and  S_3
REMARK    3  A    between atoms: S_3  and  C_4
REMARK    4  A    between atoms: C_9  and  C_21
REMARK    5  A    between atoms: C_11  and  C_15
REMARK    6  A    between atoms: C_12  and  C_14
REMARK    7  A    between atoms: C_15  and  O_17
REMARK    8  A    between atoms: O_17  and  C_18
REMARK    9  A    between atoms: C_18  and  C_19
REMARK   10  A    between atoms: C_18  and  C_20
REMARK   11  A    between atoms: C_24  and  O_29
REMARK   12  A    between atoms: C_25  and  O_27
REMARK   13  A    between atoms: O_27  and  C_28
REMARK   14  A    between atoms: O_29  and  C_30
REMARK   15  A    between atoms: C_30  and  C_31
REMARK   16  A    between atoms: C_36  and  C_37
REMARK                            x       y       z     vdW  Elec       q    Type
REMARK                         _______ _______ _______ _____ _____    ______ ____
ROOT
ATOM      1  C   UNL     1      -1.295  -2.391   0.430  0.00  0.00    +0.210 A 
ATOM      2  N   UNL     1      -0.171  -3.119   0.348  0.00  0.00    -0.187 NA
ATOM      3  C   UNL     1      -0.477  -4.374   0.165  0.00  0.00    +0.219 A 
ATOM      4  N   UNL     1      -1.828  -4.478   0.129  0.00  0.00    -0.220 N 
ATOM      5  N   UNL     1      -2.333  -3.191   0.304  0.00  0.00    -0.141 NA
ATOM      6  C   UNL     1      -2.537  -5.742  -0.052  0.00  0.00    +0.179 C 
ATOM      7  C   UNL     1      -1.562  -6.806  -0.481  0.00  0.00    +0.082 C 
ATOM      8  C   UNL     1      -0.231  -6.645  -0.427  0.00  0.00    +0.020 C 
ATOM      9  N   UNL     1       0.347  -5.482   0.017  0.00  0.00    -0.287 N 
ATOM     10  C   UNL     1       0.659  -7.778  -0.869  0.00  0.00    +0.061 C 
ATOM     11  H   UNL     1       1.294  -5.435   0.220  0.00  0.00    +0.155 HD
ENDROOT
BRANCH   6  12
ATOM     12  C   UNL     1      -3.182  -6.147   1.248  0.00  0.00    -0.015 A 
ATOM     13  C   UNL     1      -2.402  -6.353   2.371  0.00  0.00    +0.010 A 
ATOM     14  C   UNL     1      -2.990  -6.724   3.566  0.00  0.00    +0.050 A 
ATOM     15  C   UNL     1      -4.363  -6.891   3.641  0.00  0.00    +0.162 A 
ATOM     16  C   UNL     1      -5.149  -6.683   2.511  0.00  0.00    +0.162 A 
ATOM     17  C   UNL     1      -4.554  -6.306   1.317  0.00  0.00    +0.055 A 
BRANCH  16  18
ATOM     18  O   UNL     1      -6.497  -6.845   2.579  0.00  0.00    -0.491 OA
ATOM     19  C   UNL     1      -7.240  -6.615   1.380  0.00  0.00    +0.277 C 
ENDBRANCH  16  18
BRANCH  15  20
ATOM     20  O   UNL     1      -4.943  -7.257   4.816  0.00  0.00    -0.484 OA
BRANCH  20  21
ATOM     21  C   UNL     1      -4.075  -7.453   5.934  0.00  0.00    +0.265 C 
BRANCH  21  22
ATOM     22  C   UNL     1      -4.889  -7.851   7.138  0.00  0.00    -0.007 A 
ATOM     23  C   UNL     1      -6.261  -7.977   7.033  0.00  0.00    +0.007 A 
ATOM     24  C   UNL     1      -7.008  -8.342   8.137  0.00  0.00    +0.000 A 
ATOM     25  C   UNL     1      -6.382  -8.583   9.347  0.00  0.00    +0.000 A 
ATOM     26  C   UNL     1      -5.009  -8.458   9.451  0.00  0.00    +0.004 A 
ATOM     27  C   UNL     1      -4.262  -8.096   8.345  0.00  0.00    -0.044 A 
ATOM     28  C   UNL     1      -2.765  -7.965   8.457  0.00  0.00    +0.044 C 
ENDBRANCH  21  22
ENDBRANCH  20  21
ENDBRANCH  15  20
ENDBRANCH   6  12
BRANCH   7  29
ATOM     29  C   UNL     1      -2.072  -8.033  -0.962  0.00  0.00    +0.339 C 
ATOM     30  O   UNL     1      -2.455  -8.122  -2.114  0.00  0.00    -0.245 OA
BRANCH  29  31
ATOM     31  O   UNL     1      -2.136  -9.105  -0.144  0.00  0.00    -0.459 OA
BRANCH  31  32
ATOM     32  C   UNL     1      -2.663 -10.312  -0.698  0.00  0.00    +0.171 C 
ATOM     33  C   UNL     1      -2.019 -11.514  -0.004  0.00  0.00    +0.052 C 
ATOM     34  C   UNL     1      -4.178 -10.352  -0.485  0.00  0.00    +0.052 C 
ENDBRANCH  31  32
ENDBRANCH  29  31
ENDBRANCH   7  29
BRANCH   1  35
ATOM     35  S   UNL     1      -1.371  -0.648   0.674  0.00  0.00    -0.085 S 
BRANCH  35  37
ATOM     36  C   UNL     1       0.450   1.370   0.982  0.00  0.00    +0.016 C 
ATOM     37  C   UNL     1       0.369  -0.143   0.768  0.00  0.00    +0.074 C 
ENDBRANCH  35  37
ENDBRANCH   1  35
TORSDOF 10
