REMARK  Name = ZINC01226872
REMARK  4 active torsions:
REMARK  status: ('A' for Active; 'I' for Inactive)
REMARK    1  A    between atoms: C_4  and  C_11
REMARK    2  A    between atoms: N_12  and  C_13
REMARK    3  A    between atoms: C_16  and  N_20
REMARK    4  A    between atoms: C_21  and  C_22
REMARK                            x       y       z     vdW  Elec       q    Type
REMARK                         _______ _______ _______ _____ _____    ______ ____
ROOT
ATOM      1  C   UNL     1       3.313   5.441  -0.072  0.00  0.00    +0.072 A 
ATOM      2  C   UNL     1       2.464   6.631  -0.035  0.00  0.00    +0.010 A 
ATOM      3  C   UNL     1       3.067   7.889   0.202  0.00  0.00    +0.010 A 
ATOM      4  C   UNL     1       2.218   9.079   0.238  0.00  0.00    +0.072 A 
ATOM      5  C   UNL     1       0.851   8.927   0.038  0.00  0.00    +0.028 A 
ATOM      6  C   UNL     1       0.307   7.672  -0.191  0.00  0.00    +0.003 A 
ATOM      7  C   UNL     1       1.080   6.550  -0.229  0.00  0.00    +0.011 A 
ATOM      8  C   UNL     1       4.450   7.971   0.395  0.00  0.00    +0.011 A 
ATOM      9  C   UNL     1       5.224   6.849   0.356  0.00  0.00    +0.003 A 
ATOM     10  C   UNL     1       4.679   5.593   0.134  0.00  0.00    +0.028 A 
ENDROOT
BRANCH   1  12
ATOM     11  C   UNL     1       3.093   3.204   0.478  0.00  0.00    +0.121 C 
ATOM     12  N   UNL     1       2.775   4.208  -0.297  0.00  0.00    -0.254 NA
BRANCH  11  16
ATOM     13  C   UNL     1       0.413   1.484  -2.954  0.00  0.00    +0.001 A 
ATOM     14  C   UNL     1       1.179   2.161  -2.030  0.00  0.00    +0.010 A 
ATOM     15  C   UNL     1       1.755   1.466  -0.970  0.00  0.00    +0.008 A 
ATOM     16  C   UNL     1       2.607   1.857   0.169  0.00  0.00    +0.018 A 
ATOM     17  C   UNL     1       2.853   0.716   0.878  0.00  0.00    +0.093 A 
ATOM     18  N   UNL     1       2.234  -0.335   0.283  0.00  0.00    -0.360 N 
ATOM     19  H   UNL     1       2.264  -1.249   0.605  0.00  0.00    +0.165 HD
ATOM     20  C   UNL     1       1.556   0.081  -0.844  0.00  0.00    +0.047 A 
ATOM     21  C   UNL     1       0.780  -0.584  -1.787  0.00  0.00    +0.026 A 
ATOM     22  C   UNL     1       0.215   0.116  -2.831  0.00  0.00    +0.002 A 
ENDBRANCH  11  16
ENDBRANCH   1  12
BRANCH   4  23
ATOM     23  N   UNL     1       2.756  10.312   0.464  0.00  0.00    -0.254 NA
ATOM     24  C   UNL     1       2.214  11.111   1.347  0.00  0.00    +0.121 C 
BRANCH  24  25
ATOM     25  C   UNL     1       2.720  12.475   1.508  0.00  0.00    +0.018 A 
ATOM     26  C   UNL     1       3.823  13.103   0.756  0.00  0.00    +0.008 A 
ATOM     27  C   UNL     1       3.939  14.409   1.259  0.00  0.00    +0.047 A 
ATOM     28  N   UNL     1       2.982  14.561   2.241  0.00  0.00    -0.360 N 
ATOM     29  H   UNL     1       2.841  15.372   2.756  0.00  0.00    +0.165 HD
ATOM     30  C   UNL     1       2.261  13.420   2.381  0.00  0.00    +0.093 A 
ATOM     31  C   UNL     1       4.909  15.258   0.736  0.00  0.00    +0.026 A 
ATOM     32  C   UNL     1       5.743  14.813  -0.267  0.00  0.00    +0.002 A 
ATOM     33  C   UNL     1       5.627  13.523  -0.763  0.00  0.00    +0.001 A 
ATOM     34  C   UNL     1       4.673  12.667  -0.257  0.00  0.00    +0.010 A 
ENDBRANCH  24  25
ENDBRANCH   4  23
TORSDOF 4
