REMARK  Name = ZINC09446719
REMARK  3 active torsions:
REMARK  status: ('A' for Active; 'I' for Inactive)
REMARK    1  A    between atoms: C_10  and  C_32
REMARK    2  A    between atoms: C_11  and  C_27
REMARK    3  A    between atoms: C_17  and  C_22
REMARK                            x       y       z     vdW  Elec       q    Type
REMARK                         _______ _______ _______ _____ _____    ______ ____
ROOT
ATOM      1  C   UNL     1      -4.767   0.162   0.936  0.00  0.00    +0.001 A 
ATOM      2  C   UNL     1      -3.551  -0.389   1.310  0.00  0.00    +0.002 A 
ATOM      3  C   UNL     1      -2.372   0.297   1.093  0.00  0.00    +0.024 A 
ATOM      4  C   UNL     1      -2.378   1.522   0.447  0.00  0.00    +0.050 A 
ATOM      5  C   UNL     1      -3.622   2.124   0.171  0.00  0.00    +0.036 A 
ATOM      6  C   UNL     1      -4.808   1.422   0.379  0.00  0.00    +0.013 A 
ATOM      7  C   UNL     1      -3.634   3.503  -0.341  0.00  0.00    +0.127 C 
ATOM      8  N   UNL     1      -2.484   4.123  -0.495  0.00  0.00    -0.215 NA
ATOM      9  C   UNL     1      -1.307   3.522  -0.257  0.00  0.00    +0.146 C 
ATOM     10  C   UNL     1      -0.174   4.321  -0.351  0.00  0.00    +0.082 C 
ATOM     11  C   UNL     1       1.175   3.663  -0.162  0.00  0.00    +0.104 C 
ATOM     12  C   UNL     1       1.172   2.157   0.003  0.00  0.00    +0.026 C 
ATOM     13  C   UNL     1      -0.018   1.507   0.010  0.00  0.00    +0.025 C 
ATOM     14  N   UNL     1      -1.213   2.176   0.047  0.00  0.00    -0.256 N 
ATOM     15  C   UNL     1       0.002  -0.004   0.002  0.00  0.00    +0.063 C 
ATOM     16  C   UNL     1       1.210  -0.489  -0.809  0.00  0.00    +0.068 C 
ATOM     17  C   UNL     1       2.478  -0.015  -0.093  0.00  0.00    +0.091 C 
ATOM     18  C   UNL     1       2.394   1.479   0.092  0.00  0.00    +0.162 C 
ATOM     19  O   UNL     1       3.415   2.091   0.347  0.00  0.00    -0.292 OA
ATOM     20  N   UNL     1      -4.813   4.133  -0.647  0.00  0.00    -0.343 N 
ATOM     21  H   UNL     1      -4.804   5.044  -0.981  0.00  0.00    +0.144 HD
ATOM     22  H   UNL     1      -5.656   3.668  -0.530  0.00  0.00    +0.144 HD
ENDROOT
BRANCH  16  23
ATOM     23  C   UNL     1       1.198  -1.995  -0.880  0.00  0.00    +0.109 A 
ATOM     24  C   UNL     1       1.133  -2.729  -2.005  0.00  0.00    +0.045 A 
ATOM     25  C   UNL     1       1.147  -4.086  -1.610  0.00  0.00    +0.041 A 
ATOM     26  C   UNL     1       1.218  -4.100  -0.266  0.00  0.00    +0.195 A 
ATOM     27  O   UNL     1       1.255  -2.830   0.170  0.00  0.00    -0.468 OA
ENDBRANCH  16  23
BRANCH  11  28
ATOM     28  C   UNL     1       2.002   3.998  -1.377  0.00  0.00    +0.002 A 
ATOM     29  C   UNL     1       3.122   4.756  -1.464  0.00  0.00    +0.012 A 
ATOM     30  C   UNL     1       3.720   4.929  -2.699  0.00  0.00    +0.008 A 
ATOM     31  C   UNL     1       3.168   4.335  -3.785  0.00  0.00    +0.045 A 
ATOM     32  S   UNL     1       1.764   3.494  -3.073  0.00  0.00    -0.101 S 
ENDBRANCH  11  28
BRANCH  10  33
ATOM     33  C   UNL     1      -0.277   5.725  -0.617  0.00  0.00    +0.099 C 
ATOM     34  N   UNL     1      -0.359   6.838  -0.828  0.00  0.00    -0.191 NA
ENDBRANCH  10  33
TORSDOF 3
