REMARK  Name = ZINC38701395
REMARK  11 active torsions:
REMARK  status: ('A' for Active; 'I' for Inactive)
REMARK    1  A    between atoms: C_1  and  C_2
REMARK    2  A    between atoms: C_2  and  O_3
REMARK    3  A    between atoms: O_3  and  C_4
REMARK    4  A    between atoms: C_7  and  C_10
REMARK    5  A    between atoms: C_15  and  O_24
REMARK    6  A    between atoms: C_19  and  N_23
REMARK    7  A    between atoms: C_20  and  C_21
REMARK    8  A    between atoms: O_24  and  C_25
REMARK    9  A    between atoms: C_25  and  C_27
REMARK   10  A    between atoms: C_28  and  C_38
REMARK   11  A    between atoms: C_32  and  C_36
REMARK                            x       y       z     vdW  Elec       q    Type
REMARK                         _______ _______ _______ _____ _____    ______ ____
ROOT
ATOM      1  C   UNL     1       1.198  -6.090   1.783  0.00  0.00    +0.098 C 
ATOM      2  C   UNL     1       0.508  -6.502   3.057  0.00  0.00    +0.008 A 
ATOM      3  C   UNL     1      -0.874  -6.468   3.124  0.00  0.00    +0.012 A 
ATOM      4  C   UNL     1      -1.523  -6.842   4.284  0.00  0.00    +0.047 A 
ATOM      5  C   UNL     1      -0.790  -7.255   5.387  0.00  0.00    +0.136 A 
ATOM      6  C   UNL     1       0.594  -7.290   5.323  0.00  0.00    +0.093 A 
ATOM      7  C   UNL     1       1.245  -6.913   4.156  0.00  0.00    +0.138 A 
ATOM      8  O   UNL     1       2.600  -6.952   4.110  0.00  0.00    -0.441 OA
ATOM      9  C   UNL     1       3.229  -6.974   2.923  0.00  0.00    +0.199 C 
ATOM     10  C   UNL     1       2.619  -6.578   1.785  0.00  0.00    +0.098 C 
ENDROOT
BRANCH   1  14
ATOM     11  C   UNL     1       1.164  -1.828   1.471  0.00  0.00    +0.121 A 
ATOM     12  C   UNL     1       0.549  -2.601   0.496  0.00  0.00    +0.046 A 
ATOM     13  C   UNL     1       0.562  -3.979   0.600  0.00  0.00    +0.008 A 
ATOM     14  C   UNL     1       1.186  -4.587   1.673  0.00  0.00    -0.034 A 
ATOM     15  C   UNL     1       1.799  -3.819   2.646  0.00  0.00    +0.008 A 
ATOM     16  C   UNL     1       1.794  -2.441   2.544  0.00  0.00    +0.046 A 
BRANCH  11  17
ATOM     17  O   UNL     1       1.153  -0.473   1.371  0.00  0.00    -0.492 OA
BRANCH  17  19
ATOM     18  C   UNL     1       0.578   1.615   0.300  0.00  0.00    +0.048 C 
ATOM     19  C   UNL     1       0.486   0.089   0.240  0.00  0.00    +0.225 C 
ENDBRANCH  17  19
ENDBRANCH  11  17
ENDBRANCH   1  14
BRANCH   9  20
ATOM     20  N   UNL     1       4.529  -7.411   2.867  0.00  0.00    -0.328 N 
ATOM     21  H   UNL     1       4.980  -7.698   3.676  0.00  0.00    +0.145 HD
ATOM     22  H   UNL     1       4.997  -7.433   2.017  0.00  0.00    +0.145 HD
ENDBRANCH   9  20
BRANCH  10  23
ATOM     23  C   UNL     1       3.346  -6.625   0.552  0.00  0.00    +0.101 C 
ATOM     24  N   UNL     1       3.922  -6.662  -0.426  0.00  0.00    -0.191 NA
ENDBRANCH  10  23
BRANCH   5  25
ATOM     25  O   UNL     1      -1.428  -7.623   6.529  0.00  0.00    -0.420 OA
BRANCH  25  26
ATOM     26  C   UNL     1      -1.310  -6.821   7.607  0.00  0.00    +0.380 C 
ATOM     27  O   UNL     1      -0.737  -5.753   7.511  0.00  0.00    -0.241 OA
BRANCH  26  28
ATOM     28  C   UNL     1      -1.874  -7.238   8.897  0.00  0.00    +0.216 A 
ATOM     29  C   UNL     1      -1.820  -6.512  10.045  0.00  0.00    +0.010 A 
ATOM     30  C   UNL     1      -2.503  -7.312  11.062  0.00  0.00    +0.025 A 
ATOM     31  C   UNL     1      -2.781  -7.129  12.419  0.00  0.00    +0.032 A 
ATOM     32  C   UNL     1      -3.459  -8.097  13.107  0.00  0.00    +0.045 A 
ATOM     33  C   UNL     1      -3.872  -9.258  12.466  0.00  0.00    -0.029 A 
ATOM     34  C   UNL     1      -3.607  -9.456  11.128  0.00  0.00    +0.051 A 
ATOM     35  C   UNL     1      -2.919  -8.486  10.407  0.00  0.00    +0.137 A 
ATOM     36  O   UNL     1      -2.529  -8.396   9.121  0.00  0.00    -0.448 OA
ATOM     37  C   UNL     1      -4.617 -10.313  13.242  0.00  0.00    +0.045 C 
ATOM     38 CL   UNL     1      -3.806  -7.872  14.793  0.00  0.00    -0.083 Cl
ATOM     39  C   UNL     1      -1.185  -5.159  10.233  0.00  0.00    +0.048 C 
ENDBRANCH  26  28
ENDBRANCH  25  26
ENDBRANCH   5  25
TORSDOF 8
