REMARK  Name = ZINC27829591
REMARK  7 active torsions:
REMARK  status: ('A' for Active; 'I' for Inactive)
REMARK    1  A    between atoms: C_3  and  O_13
REMARK    2  A    between atoms: C_6  and  C_7
REMARK    3  A    between atoms: O_13  and  C_14
REMARK    4  A    between atoms: C_14  and  C_15
REMARK    5  A    between atoms: N_17  and  C_18
REMARK    6  A    between atoms: C_18  and  N_20
REMARK    7  A    between atoms: N_20  and  C_21
REMARK                            x       y       z     vdW  Elec       q    Type
REMARK                         _______ _______ _______ _____ _____    ______ ____
ROOT
ATOM      1  C   UNL     1      -1.044  -2.161   0.000  0.00  0.00    +0.256 C 
ATOM      2  O   UNL     1       0.082  -2.609  -0.013  0.00  0.00    -0.272 OA
ATOM      3  N   UNL     1      -2.102  -2.997   0.006  0.00  0.00    -0.265 N 
ATOM      4  H   UNL     1      -3.124  -2.590   0.018  0.00  0.00    +0.157 HD
ENDROOT
BRANCH   3   5
ATOM      5  C   UNL     1      -1.907  -4.330  -0.003  0.00  0.00    +0.137 C 
ATOM      6  S   UNL     1      -0.317  -4.963  -0.022  0.00  0.00    -0.018 S 
BRANCH   5   7
ATOM      7  N   UNL     1      -2.965  -5.166   0.003  0.00  0.00    -0.323 N 
ATOM      8  H   UNL     1      -3.987  -4.759   0.015  0.00  0.00    +0.148 HD
BRANCH   7   9
ATOM      9  C   UNL     1      -2.753  -6.615  -0.007  0.00  0.00    +0.078 C 
ATOM     10  C   UNL     1      -2.569  -7.094  -1.449  0.00  0.00    +0.010 C 
ATOM     11  C   UNL     1      -2.348  -8.608  -1.459  0.00  0.00    +0.009 C 
ATOM     12  C   UNL     1      -3.562  -9.305  -0.841  0.00  0.00    -0.010 C 
ATOM     13  C   UNL     1      -4.813  -8.966  -1.655  0.00  0.00    +0.007 C 
ATOM     14  C   UNL     1      -5.034  -7.453  -1.645  0.00  0.00    -0.010 C 
ATOM     15  C   UNL     1      -3.820  -6.756  -2.262  0.00  0.00    +0.009 C 
ATOM     16  C   UNL     1      -5.218  -6.974  -0.203  0.00  0.00    +0.009 C 
ATOM     17  C   UNL     1      -3.967  -7.312   0.610  0.00  0.00    +0.010 C 
ATOM     18  C   UNL     1      -3.746  -8.826   0.600  0.00  0.00    +0.009 C 
ENDBRANCH   7   9
ENDBRANCH   5   7
ENDBRANCH   3   5
BRANCH   1  19
ATOM     19  C   UNL     1      -1.262  -0.670   0.011  0.00  0.00    +0.324 C 
BRANCH  19  20
ATOM     20  O   UNL     1       0.002  -0.004   0.002  0.00  0.00    -0.483 OA
BRANCH  20  23
ATOM     21  C   UNL     1       1.153   3.447   0.009  0.00  0.00    +0.007 A 
ATOM     22  C   UNL     1       1.175   2.066   0.002  0.00  0.00    +0.046 A 
ATOM     23  C   UNL     1      -0.016   1.355   0.009  0.00  0.00    +0.121 A 
ATOM     24  C   UNL     1      -1.226   2.033   0.019  0.00  0.00    +0.046 A 
ATOM     25  C   UNL     1      -1.242   3.414   0.031  0.00  0.00    +0.007 A 
ATOM     26  C   UNL     1      -0.054   4.121   0.024  0.00  0.00    -0.044 A 
BRANCH  26  27
ATOM     27  C   UNL     1      -0.074   5.628   0.032  0.00  0.00    +0.019 C 
ATOM     28  C   UNL     1      -0.791   6.121   1.290  0.00  0.00    +0.008 C 
ATOM     29  C   UNL     1      -0.812   7.651   1.299  0.00  0.00    +0.001 C 
ATOM     30  C   UNL     1      -1.551   8.158   0.059  0.00  0.00    +0.000 C 
ATOM     31  C   UNL     1      -0.835   7.664  -1.199  0.00  0.00    +0.001 C 
ATOM     32  C   UNL     1      -0.814   6.135  -1.208  0.00  0.00    +0.008 C 
ENDBRANCH  26  27
ENDBRANCH  20  23
ENDBRANCH  19  20
ENDBRANCH   1  19
TORSDOF 7
