REMARK  Name = ZINC38700450
REMARK  9 active torsions:
REMARK  status: ('A' for Active; 'I' for Inactive)
REMARK    1  A    between atoms: C_1  and  C_2
REMARK    2  A    between atoms: C_2  and  C_3
REMARK    3  A    between atoms: C_6  and  C_9
REMARK    4  A    between atoms: C_14  and  O_23
REMARK    5  A    between atoms: C_18  and  N_22
REMARK    6  A    between atoms: C_19  and  C_20
REMARK    7  A    between atoms: O_23  and  C_24
REMARK    8  A    between atoms: C_24  and  C_26
REMARK    9  A    between atoms: C_27  and  C_36
REMARK                            x       y       z     vdW  Elec       q    Type
REMARK                         _______ _______ _______ _____ _____    ______ ____
ROOT
ATOM      1  C   UNL     1      -5.400  -2.027  -0.015  0.00  0.00    +0.098 C 
ATOM      2  C   UNL     1      -6.306  -1.034  -0.694  0.00  0.00    +0.008 A 
ATOM      3  C   UNL     1      -6.759   0.067   0.010  0.00  0.00    +0.012 A 
ATOM      4  C   UNL     1      -7.590   0.988  -0.597  0.00  0.00    +0.047 A 
ATOM      5  C   UNL     1      -7.974   0.809  -1.919  0.00  0.00    +0.136 A 
ATOM      6  C   UNL     1      -7.523  -0.293  -2.627  0.00  0.00    +0.093 A 
ATOM      7  C   UNL     1      -6.686  -1.217  -2.015  0.00  0.00    +0.138 A 
ATOM      8  O   UNL     1      -6.253  -2.290  -2.721  0.00  0.00    -0.441 OA
ATOM      9  C   UNL     1      -5.784  -3.372  -2.077  0.00  0.00    +0.199 C 
ATOM     10  C   UNL     1      -5.364  -3.311  -0.794  0.00  0.00    +0.098 C 
ENDROOT
BRANCH   1  14
ATOM     11  C   UNL     1      -1.454  -0.409   0.228  0.00  0.00    -0.048 A 
ATOM     12  C   UNL     1      -2.137  -0.741   1.383  0.00  0.00    +0.004 A 
ATOM     13  C   UNL     1      -3.414  -1.264   1.304  0.00  0.00    +0.005 A 
ATOM     14  C   UNL     1      -4.008  -1.455   0.071  0.00  0.00    -0.035 A 
ATOM     15  C   UNL     1      -3.326  -1.122  -1.084  0.00  0.00    +0.005 A 
ATOM     16  C   UNL     1      -2.050  -0.595  -1.005  0.00  0.00    +0.004 A 
BRANCH  11  18
ATOM     17  C   UNL     1      -0.141   1.687   0.407  0.00  0.00    +0.009 C 
ATOM     18  C   UNL     1      -0.062   0.162   0.314  0.00  0.00    +0.032 C 
ENDBRANCH  11  18
ENDBRANCH   1  14
BRANCH   9  19
ATOM     19  N   UNL     1      -5.728  -4.571  -2.742  0.00  0.00    -0.328 N 
ATOM     20  H   UNL     1      -6.026  -4.629  -3.663  0.00  0.00    +0.145 HD
ATOM     21  H   UNL     1      -5.392  -5.361  -2.290  0.00  0.00    +0.145 HD
ENDBRANCH   9  19
BRANCH  10  22
ATOM     22  C   UNL     1      -4.873  -4.500  -0.164  0.00  0.00    +0.101 C 
ATOM     23  N   UNL     1      -4.484  -5.444   0.335  0.00  0.00    -0.191 NA
ENDBRANCH  10  22
BRANCH   5  24
ATOM     24  O   UNL     1      -8.793   1.714  -2.518  0.00  0.00    -0.420 OA
BRANCH  24  25
ATOM     25  C   UNL     1     -10.051   1.330  -2.815  0.00  0.00    +0.380 C 
ATOM     26  O   UNL     1     -10.456   0.242  -2.455  0.00  0.00    -0.241 OA
BRANCH  25  27
ATOM     27  C   UNL     1     -10.932   2.226  -3.574  0.00  0.00    +0.216 A 
ATOM     28  C   UNL     1     -12.215   1.949  -3.926  0.00  0.00    +0.010 A 
ATOM     29  C   UNL     1     -12.694   3.117  -4.663  0.00  0.00    +0.025 A 
ATOM     30  C   UNL     1     -13.904   3.451  -5.278  0.00  0.00    +0.032 A 
ATOM     31  C   UNL     1     -14.034   4.659  -5.904  0.00  0.00    +0.042 A 
ATOM     32  C   UNL     1     -12.973   5.555  -5.932  0.00  0.00    +0.023 A 
ATOM     33  C   UNL     1     -11.773   5.244  -5.331  0.00  0.00    +0.048 A 
ATOM     34  C   UNL     1     -11.617   4.021  -4.688  0.00  0.00    +0.136 A 
ATOM     35  O   UNL     1     -10.591   3.452  -4.024  0.00  0.00    -0.448 OA
ATOM     36 CL   UNL     1     -15.536   5.076  -6.669  0.00  0.00    -0.084 Cl
ATOM     37  C   UNL     1     -12.987   0.692  -3.618  0.00  0.00    +0.048 C 
ENDBRANCH  25  27
ENDBRANCH  24  25
ENDBRANCH   5  24
TORSDOF 7
