REMARK  Name = ZINC13003725
REMARK  8 active torsions:
REMARK  status: ('A' for Active; 'I' for Inactive)
REMARK    1  A    between atoms: C_1  and  C_2
REMARK    2  A    between atoms: C_7  and  C_8
REMARK    3  A    between atoms: C_13  and  C_16
REMARK    4  A    between atoms: C_16  and  N_62
REMARK    5  A    between atoms: C_18  and  C_25
REMARK    6  A    between atoms: C_21  and  C_24
REMARK    7  A    between atoms: C_27  and  C_31
REMARK    8  A    between atoms: C_27  and  C_32
REMARK                            x       y       z     vdW  Elec       q    Type
REMARK                         _______ _______ _______ _____ _____    ______ ____
ROOT
ATOM      1  C   UNL     1      -1.224   2.511  -4.690  0.00  0.00    +0.266 C 
ATOM      2  O   UNL     1      -2.189   2.953  -5.287  0.00  0.00    -0.268 OA
ATOM      3  N   UNL     1      -0.069   2.288  -5.348  0.00  0.00    -0.259 N 
ATOM      4  C   UNL     1       0.020   2.562  -6.707  0.00  0.00    +0.165 A 
ATOM      5  N   UNL     1       1.050   2.412  -7.516  0.00  0.00    -0.231 NA
ATOM      6  C   UNL     1       0.966   2.724  -8.795  0.00  0.00    +0.034 A 
ATOM      7  C   UNL     1      -0.210   3.205  -9.266  0.00  0.00    +0.070 A 
ATOM      8  S   UNL     1      -1.199   3.182  -7.777  0.00  0.00    -0.060 S 
ATOM      9  H   UNL     1       0.699   1.936  -4.873  0.00  0.00    +0.157 HD
ENDROOT
BRANCH   1  16
ATOM     10  C   UNL     1      -3.766   2.931  -2.920  0.00  0.00    +0.047 C 
ATOM     11  C   UNL     1      -2.427   2.403  -2.474  0.00  0.00    -0.010 A 
ATOM     12  C   UNL     1      -2.075   2.002  -1.179  0.00  0.00    +0.042 A 
ATOM     13  C   UNL     1      -0.744   1.586  -1.212  0.00  0.00    +0.028 A 
ATOM     14  N   UNL     1      -0.302   1.721  -2.463  0.00  0.00    -0.354 N 
ATOM     15  H   UNL     1       0.592   1.502  -2.769  0.00  0.00    +0.166 HD
ATOM     16  C   UNL     1      -1.319   2.222  -3.254  0.00  0.00    +0.106 A 
ATOM     17  C   UNL     1      -0.013   1.086   0.008  0.00  0.00    +0.060 C 
ATOM     18  C   UNL     1      -0.731   1.581   1.266  0.00  0.00    -0.023 C 
ATOM     19  C   UNL     1      -2.220   1.218   1.217  0.00  0.00    +0.086 C 
ATOM     20  C   UNL     1      -2.861   1.974   0.063  0.00  0.00    +0.166 C 
ATOM     21  O   UNL     1      -3.943   2.515   0.161  0.00  0.00    -0.292 OA
ATOM     22  C   UNL     1      -0.094   0.934   2.498  0.00  0.00    +0.011 C 
ATOM     23  C   UNL     1      -0.586   3.101   1.365  0.00  0.00    +0.011 C 
ENDBRANCH   1  16
BRANCH   6  24
ATOM     24  C   UNL     1       2.150   2.550  -9.711  0.00  0.00    -0.022 C 
BRANCH  24  32
ATOM     25  C   UNL     1       2.325   4.922 -10.159  0.00  0.00    -0.075 C 
ATOM     26  C   UNL     1       3.191   6.162  -9.925  0.00  0.00    -0.031 C 
ATOM     27  C   UNL     1       4.540   5.975 -10.626  0.00  0.00    +0.003 C 
ATOM     28  C   UNL     1       5.212   4.707 -10.091  0.00  0.00    -0.031 C 
ATOM     29  C   UNL     1       4.287   3.510 -10.320  0.00  0.00    -0.075 C 
ATOM     30  C   UNL     1       5.483   4.865  -8.594  0.00  0.00    +0.005 C 
ATOM     31  C   UNL     1       2.486   7.393 -10.496  0.00  0.00    +0.005 C 
ATOM     32  N   UNL     1       3.016   3.741  -9.600  0.00  0.00    +0.384 N 
ATOM     33  H   UNL     1       3.221   3.913  -8.609  0.00  0.00    -0.081 HD
ENDBRANCH  24  32
ENDBRANCH   6  24
TORSDOF 3
