REMARK  Name = ZINC04362712
REMARK  8 active torsions:
REMARK  status: ('A' for Active; 'I' for Inactive)
REMARK    1  A    between atoms: C_1  and  C_2
REMARK    2  A    between atoms: C_2  and  C_3
REMARK    3  A    between atoms: C_2  and  C_4
REMARK    4  A    between atoms: C_2  and  O_24
REMARK    5  A    between atoms: C_5  and  C_6
REMARK    6  A    between atoms: C_9  and  C_12
REMARK    7  A    between atoms: N_13  and  N_14
REMARK    8  A    between atoms: N_14  and  C_15
REMARK                            x       y       z     vdW  Elec       q    Type
REMARK                         _______ _______ _______ _____ _____    ______ ____
ROOT
ATOM      1  C   UNL     1       1.146   3.175   0.008  0.00  0.00    +0.025 A 
ATOM      2  C   UNL     1       1.165   1.778   0.001  0.00  0.00    +0.017 A 
ATOM      3  C   UNL     1      -0.013   1.076   0.008  0.00  0.00    +0.010 A 
ATOM      4  C   UNL     1      -1.233   1.759   0.018  0.00  0.00    -0.005 A 
ATOM      5  C   UNL     1      -1.251   3.157   0.031  0.00  0.00    +0.010 A 
ATOM      6  C   UNL     1      -0.073   3.858   0.023  0.00  0.00    +0.017 A 
ENDROOT
BRANCH   1   8
ATOM      7  C   UNL     1       3.386   4.507  -0.007  0.00  0.00    -0.063 C 
ATOM      8  C   UNL     1       2.377   3.907  -0.001  0.00  0.00    -0.063 C 
BRANCH   7  10
ATOM      9  C   UNL     1       4.351   6.760  -0.005  0.00  0.00    +0.055 C 
ATOM     10  C   UNL     1       4.651   5.260  -0.016  0.00  0.00    +0.121 C 
ATOM     11  C   UNL     1       5.470   4.895   1.224  0.00  0.00    +0.055 C 
BRANCH  10  12
ATOM     12  O   UNL     1       5.393   4.931  -1.192  0.00  0.00    -0.377 OA
ATOM     13  H   UNL     1       4.934   5.136  -2.017  0.00  0.00    +0.211 HD
ENDBRANCH  10  12
ENDBRANCH   7  10
ENDBRANCH   1   8
BRANCH   4  14
ATOM     14  C   UNL     1      -2.499   1.006   0.019  0.00  0.00    +0.138 C 
ATOM     15  N   UNL     1      -3.632   1.641   0.028  0.00  0.00    -0.190 NA
BRANCH  15  16
ATOM     16  N   UNL     1      -4.836   0.924   0.029  0.00  0.00    -0.235 N 
ATOM     17  H   UNL     1      -4.824  -0.046   0.023  0.00  0.00    +0.174 HD
BRANCH  16  18
ATOM     18  C   UNL     1      -6.055   1.607   0.038  0.00  0.00    +0.085 A 
ATOM     19  C   UNL     1      -6.095   2.958   0.363  0.00  0.00    +0.066 A 
ATOM     20  C   UNL     1      -7.301   3.631   0.367  0.00  0.00    +0.042 A 
ATOM     21  C   UNL     1      -8.471   2.959   0.058  0.00  0.00    +0.044 A 
ATOM     22  C   UNL     1      -8.437   1.613  -0.261  0.00  0.00    +0.042 A 
ATOM     23  C   UNL     1      -7.232   0.935  -0.272  0.00  0.00    +0.066 A 
ATOM     24 CL   UNL     1      -7.190  -0.754  -0.672  0.00  0.00    -0.081 Cl
ATOM     25 CL   UNL     1      -9.986   3.807   0.071  0.00  0.00    -0.083 Cl
ATOM     26 CL   UNL     1      -4.629   3.800   0.758  0.00  0.00    -0.081 Cl
ENDBRANCH  16  18
ENDBRANCH  15  16
ENDBRANCH   4  14
TORSDOF 6
