REMARK  Name = ZINC39791626
REMARK  11 active torsions:
REMARK  status: ('A' for Active; 'I' for Inactive)
REMARK    1  A    between atoms: C_1  and  C_2
REMARK    2  A    between atoms: C_4  and  C_29
REMARK    3  A    between atoms: C_8  and  S_12
REMARK    4  A    between atoms: S_12  and  C_13
REMARK    5  A    between atoms: C_13  and  C_14
REMARK    6  A    between atoms: C_14  and  O_15
REMARK    7  A    between atoms: O_15  and  C_16
REMARK    8  A    between atoms: C_19  and  S_22
REMARK    9  A    between atoms: S_22  and  N_25
REMARK   10  A    between atoms: N_25  and  C_26
REMARK   11  A    between atoms: N_25  and  C_27
REMARK                            x       y       z     vdW  Elec       q    Type
REMARK                         _______ _______ _______ _____ _____    ______ ____
ROOT
ATOM      1  C   UNL     1      -0.019   1.526   0.010  0.00  0.00    +0.024 C 
ATOM      2  C   UNL     1       0.002  -0.004   0.002  0.00  0.00    +0.081 C 
ATOM      3  C   UNL     1       0.767  -0.527  -1.192  0.00  0.00    -0.012 C 
ATOM      4  C   UNL     1       1.887  -1.274  -0.939  0.00  0.00    +0.075 C 
ATOM      5  C   UNL     1       2.246  -1.501   0.471  0.00  0.00    +0.113 C 
ATOM      6  N   UNL     1       3.305  -2.207   0.786  0.00  0.00    -0.217 NA
ATOM      7  C   UNL     1       4.086  -2.738  -0.153  0.00  0.00    +0.182 C 
ATOM      8  N   UNL     1       3.857  -2.596  -1.447  0.00  0.00    -0.151 NA
ATOM      9  C   UNL     1       2.819  -1.907  -1.921  0.00  0.00    +0.272 C 
ATOM     10  O   UNL     1       2.635  -1.796  -3.122  0.00  0.00    -0.268 OA
ATOM     11  S   UNL     1       0.995  -0.655   1.405  0.00  0.00    -0.097 S 
ENDROOT
BRANCH   3  12
ATOM     12  C   UNL     1       0.329  -0.248  -2.561  0.00  0.00    -0.020 A 
ATOM     13  C   UNL     1       0.337   1.066  -3.050  0.00  0.00    +0.008 A 
ATOM     14  C   UNL     1      -0.077   1.319  -4.339  0.00  0.00    +0.001 A 
ATOM     15  C   UNL     1      -0.499   0.281  -5.152  0.00  0.00    +0.000 A 
ATOM     16  C   UNL     1      -0.510  -1.020  -4.678  0.00  0.00    +0.001 A 
ATOM     17  C   UNL     1      -0.095  -1.294  -3.393  0.00  0.00    +0.008 A 
ENDBRANCH   3  12
BRANCH   7  18
ATOM     18  S   UNL     1       5.491  -3.673   0.353  0.00  0.00    -0.085 S 
BRANCH  18  19
ATOM     19  C   UNL     1       6.254  -4.199  -1.206  0.00  0.00    +0.118 C 
BRANCH  19  20
ATOM     20  C   UNL     1       7.503  -5.031  -0.908  0.00  0.00    +0.240 C 
BRANCH  20  21
ATOM     21  O   UNL     1       8.104  -5.445  -2.137  0.00  0.00    -0.491 OA
BRANCH  21  22
ATOM     22  C   UNL     1       9.231  -6.198  -2.049  0.00  0.00    +0.121 A 
ATOM     23  C   UNL     1       9.745  -6.537  -0.806  0.00  0.00    +0.047 A 
ATOM     24  C   UNL     1      10.892  -7.304  -0.720  0.00  0.00    +0.032 A 
ATOM     25  C   UNL     1      11.526  -7.733  -1.871  0.00  0.00    +0.106 A 
ATOM     26  C   UNL     1      11.016  -7.396  -3.111  0.00  0.00    +0.032 A 
ATOM     27  C   UNL     1       9.867  -6.635  -3.203  0.00  0.00    +0.047 A 
BRANCH  25  28
ATOM     28  S   UNL     1      12.988  -8.710  -1.757  0.00  0.00    +0.060 S 
ATOM     29  O   UNL     1      13.696  -8.525  -2.975  0.00  0.00    -0.153 OA
ATOM     30  O   UNL     1      13.567  -8.429  -0.489  0.00  0.00    -0.153 OA
BRANCH  28  31
ATOM     31  N   UNL     1      12.515 -10.296  -1.720  0.00  0.00    -0.183 NA
ATOM     32  C   UNL     1      12.372 -11.047  -2.970  0.00  0.00    +0.131 C 
ATOM     33  C   UNL     1      12.240 -10.949  -0.438  0.00  0.00    +0.131 C 
ENDBRANCH  28  31
ENDBRANCH  25  28
ENDBRANCH  21  22
ENDBRANCH  20  21
ENDBRANCH  19  20
ENDBRANCH  18  19
ENDBRANCH   7  18
TORSDOF 8
