REMARK  Name = ZINC44135833
REMARK  11 active torsions:
REMARK  status: ('A' for Active; 'I' for Inactive)
REMARK    1  A    between atoms: C_1  and  C_2
REMARK    2  A    between atoms: C_4  and  C_7
REMARK    3  A    between atoms: C_8  and  C_9
REMARK    4  A    between atoms: C_8  and  C_10
REMARK    5  A    between atoms: C_15  and  C_41
REMARK    6  A    between atoms: C_20  and  C_40
REMARK    7  A    between atoms: C_22  and  O_39
REMARK    8  A    between atoms: C_24  and  C_38
REMARK    9  A    between atoms: C_28  and  C_36
REMARK   10  A    between atoms: C_28  and  C_37
REMARK   11  A    between atoms: C_29  and  O_35
REMARK                            x       y       z     vdW  Elec       q    Type
REMARK                         _______ _______ _______ _____ _____    ______ ____
ROOT
ATOM      1  C   UNL     1      -4.240  -3.757  -0.094  0.00  0.00    +0.205 C 
ATOM      2  C   UNL     1      -4.840  -3.809   1.300  0.00  0.00    +0.083 C 
ATOM      3  C   UNL     1      -5.652  -2.530   1.572  0.00  0.00    +0.154 C 
ATOM      4  C   UNL     1      -6.463  -2.470   2.900  0.00  0.00    +0.093 C 
ATOM      5  O   UNL     1      -5.234  -1.704   2.665  0.00  0.00    -0.365 OA
ATOM      6  C   UNL     1      -7.762  -1.624   2.899  0.00  0.00    +0.037 C 
ATOM      7  C   UNL     1      -8.975  -2.493   2.462  0.00  0.00    +0.003 C 
ATOM      8  C   UNL     1      -9.032  -2.575   0.900  0.00  0.00    +0.006 C 
ATOM      9  C   UNL     1     -10.478  -2.394   0.497  0.00  0.00    +0.015 C 
ATOM     10  C   UNL     1     -10.653  -2.319  -0.979  0.00  0.00    +0.127 C 
ATOM     11  C   UNL     1     -10.415  -3.699  -1.738  0.00  0.00    +0.081 C 
ATOM     12  C   UNL     1      -9.650  -3.488  -2.959  0.00  0.00    +0.147 C 
ATOM     13  O   UNL     1      -9.630  -2.337  -3.474  0.00  0.00    -0.296 OA
ATOM     14  C   UNL     1      -8.850  -4.564  -3.640  0.00  0.00    +0.050 C 
ATOM     15  C   UNL     1      -7.314  -4.234  -3.524  0.00  0.00    +0.138 C 
ATOM     16  C   UNL     1      -6.810  -4.859  -2.275  0.00  0.00    +0.152 C 
ATOM     17  C   UNL     1      -5.387  -4.294  -2.065  0.00  0.00    +0.310 C 
ATOM     18  O   UNL     1      -4.474  -4.759  -2.709  0.00  0.00    -0.251 OA
ATOM     19  O   UNL     1      -5.161  -3.347  -1.081  0.00  0.00    -0.457 OA
ATOM     20  C   UNL     1      -9.264  -4.540  -5.133  0.00  0.00    +0.021 C 
ATOM     21  C   UNL     1      -9.166  -5.879  -3.099  0.00  0.00    +0.021 C 
ATOM     22  C   UNL     1     -11.853  -4.146  -2.080  0.00  0.00    +0.018 C 
ATOM     23  C   UNL     1     -11.267  -3.640   1.074  0.00  0.00    +0.010 C 
ATOM     24  C   UNL     1      -6.403  -3.599   3.906  0.00  0.00    +0.044 C 
ENDROOT
BRANCH   1  26
ATOM     25  C   UNL     1      -3.332  -1.575  -0.811  0.00  0.00    +0.031 C 
ATOM     26  C   UNL     1      -3.178  -2.666  -0.073  0.00  0.00    -0.031 C 
ATOM     27  C   UNL     1      -1.951  -2.825   0.788  0.00  0.00    +0.043 C 
BRANCH  25  31
ATOM     28  C   UNL     1       1.066   0.294   0.606  0.00  0.00    +0.073 C 
ATOM     29  C   UNL     1      -0.223   0.244  -0.173  0.00  0.00    +0.076 A 
ATOM     30  N   UNL     1      -1.170  -0.655  -0.115  0.00  0.00    -0.245 NA
ATOM     31  C   UNL     1      -2.257  -0.564  -0.869  0.00  0.00    +0.071 A 
ATOM     32  C   UNL     1      -2.329   0.521  -1.706  0.00  0.00    +0.074 A 
ATOM     33  S   UNL     1      -0.789   1.337  -1.320  0.00  0.00    -0.080 S 
ENDBRANCH  25  31
ENDBRANCH   1  26
BRANCH  15  34
ATOM     34  O   UNL     1      -7.135  -2.856  -3.490  0.00  0.00    -0.390 OA
ATOM     35  H   UNL     1      -6.210  -2.581  -3.418  0.00  0.00    +0.210 HD
ENDBRANCH  15  34
BRANCH  10  36
ATOM     36  O   UNL     1     -11.941  -1.823  -1.301  0.00  0.00    -0.391 OA
ATOM     37  H   UNL     1     -12.109  -1.753  -2.250  0.00  0.00    +0.210 HD
ENDBRANCH  10  36
TORSDOF 4
