REMARK  Name = ZINC09189839
REMARK  6 active torsions:
REMARK  status: ('A' for Active; 'I' for Inactive)
REMARK    1  A    between atoms: C_6  and  C_7
REMARK    2  A    between atoms: C_11  and  N_16
REMARK    3  A    between atoms: N_16  and  C_17
REMARK    4  A    between atoms: C_17  and  N_19
REMARK    5  A    between atoms: C_20  and  C_22
REMARK    6  A    between atoms: C_22  and  C_23
REMARK                            x       y       z     vdW  Elec       q    Type
REMARK                         _______ _______ _______ _____ _____    ______ ____
ROOT
ATOM      1  N   UNL     1      -2.474   3.813   0.047  0.00  0.00    -0.297 N 
ATOM      2  H   UNL     1      -2.497   4.779   0.133  0.00  0.00    +0.154 HD
ENDROOT
BRANCH   1   7
ATOM      3  C   UNL     1       3.000   2.085   1.126  0.00  0.00    +0.228 A 
ATOM      4  N   UNL     1       2.147   2.980   1.554  0.00  0.00    -0.209 NA
ATOM      5  C   UNL     1       0.990   2.851   0.855  0.00  0.00    +0.112 A 
ATOM      6  C   UNL     1      -0.234   3.522   0.885  0.00  0.00    +0.054 A 
ATOM      7  C   UNL     1      -1.244   3.143   0.020  0.00  0.00    +0.035 A 
ATOM      8  C   UNL     1      -1.042   2.100  -0.882  0.00  0.00    +0.027 A 
ATOM      9  C   UNL     1       0.161   1.429  -0.914  0.00  0.00    +0.050 A 
ATOM     10  C   UNL     1       1.184   1.797  -0.053  0.00  0.00    +0.156 A 
ATOM     11  O   UNL     1       2.444   1.348   0.147  0.00  0.00    -0.435 OA
BRANCH   3  17
ATOM     12  C   UNL     1       4.851   2.735   2.662  0.00  0.00    +0.014 A 
ATOM     13  C   UNL     1       6.131   2.562   3.144  0.00  0.00    +0.021 A 
ATOM     14  C   UNL     1       6.947   1.578   2.612  0.00  0.00    +0.041 A 
ATOM     15  C   UNL     1       6.481   0.758   1.598  0.00  0.00    +0.021 A 
ATOM     16  C   UNL     1       5.201   0.917   1.111  0.00  0.00    +0.014 A 
ATOM     17  C   UNL     1       4.373   1.908   1.643  0.00  0.00    +0.037 A 
ATOM     18 CL   UNL     1       8.560   1.370   3.219  0.00  0.00    -0.084 Cl
ENDBRANCH   3  17
ENDBRANCH   1   7
BRANCH   1  19
ATOM     19  C   UNL     1      -3.623   3.117  -0.047  0.00  0.00    +0.141 C 
ATOM     20  S   UNL     1      -3.589   1.405  -0.056  0.00  0.00    -0.018 S 
BRANCH  19  21
ATOM     21  N   UNL     1      -4.801   3.768  -0.134  0.00  0.00    -0.268 N 
ATOM     22  C   UNL     1      -5.950   3.071  -0.228  0.00  0.00    +0.219 C 
ATOM     23  O   UNL     1      -5.926   1.859  -0.235  0.00  0.00    -0.275 OA
ATOM     24  H   UNL     1      -4.820   4.737  -0.129  0.00  0.00    +0.156 HD
BRANCH  22  25
ATOM     25  C   UNL     1      -7.266   3.799  -0.325  0.00  0.00    +0.103 C 
BRANCH  25  26
ATOM     26  C   UNL     1      -8.406   2.782  -0.421  0.00  0.00    -0.020 C 
ATOM     27  C   UNL     1      -8.211   1.913  -1.665  0.00  0.00    +0.011 C 
ATOM     28  C   UNL     1      -9.350   0.896  -1.760  0.00  0.00    -0.010 C 
ATOM     29  C   UNL     1     -10.686   1.635  -1.859  0.00  0.00    +0.007 C 
ATOM     30  C   UNL     1     -10.881   2.504  -0.615  0.00  0.00    -0.010 C 
ATOM     31  C   UNL     1      -9.742   3.521  -0.519  0.00  0.00    +0.011 C 
ATOM     32  C   UNL     1     -10.879   1.618   0.632  0.00  0.00    +0.007 C 
ATOM     33  C   UNL     1      -9.543   0.879   0.731  0.00  0.00    -0.010 C 
ATOM     34  C   UNL     1      -9.348   0.010  -0.513  0.00  0.00    +0.007 C 
ATOM     35  C   UNL     1      -8.404   1.896   0.826  0.00  0.00    +0.011 C 
ENDBRANCH  25  26
ENDBRANCH  22  25
ENDBRANCH  19  21
ENDBRANCH   1  19
TORSDOF 6
