REMARK  Name = ZINC63972371
REMARK  6 active torsions:
REMARK  status: ('A' for Active; 'I' for Inactive)
REMARK    1  A    between atoms: C_13  and  S_15
REMARK    2  A    between atoms: S_15  and  C_16
REMARK    3  A    between atoms: C_16  and  C_17
REMARK    4  A    between atoms: N_19  and  C_20
REMARK    5  A    between atoms: C_22  and  C_30
REMARK    6  A    between atoms: C_24  and  C_26
REMARK                            x       y       z     vdW  Elec       q    Type
REMARK                         _______ _______ _______ _____ _____    ______ ____
ROOT
ATOM      1  C   UNL     1       5.737  -5.559   3.672  0.00  0.00    +0.227 C 
ATOM      2  O   UNL     1       5.107  -6.486   4.136  0.00  0.00    -0.275 OA
ATOM      3  N   UNL     1       7.018  -5.362   4.041  0.00  0.00    -0.285 N 
ATOM      4  H   UNL     1       7.542  -4.663   3.620  0.00  0.00    +0.155 HD
ENDROOT
BRANCH   3   5
ATOM      5  C   UNL     1       7.593  -6.168   5.030  0.00  0.00    +0.034 A 
ATOM      6  C   UNL     1       8.513  -5.628   5.919  0.00  0.00    +0.035 A 
ATOM      7  C   UNL     1       9.078  -6.425   6.895  0.00  0.00    +0.057 A 
ATOM      8  C   UNL     1       8.729  -7.760   6.987  0.00  0.00    +0.024 A 
ATOM      9  C   UNL     1       7.813  -8.301   6.103  0.00  0.00    +0.057 A 
ATOM     10  C   UNL     1       7.240  -7.507   5.129  0.00  0.00    +0.035 A 
BRANCH   9  11
ATOM     11  C   UNL     1       7.436  -9.756   6.207  0.00  0.00    +0.417 C 
ATOM     12  F   UNL     1       6.338  -9.893   7.063  0.00  0.00    -0.166 F 
ATOM     13  F   UNL     1       7.101 -10.242   4.938  0.00  0.00    -0.166 F 
ATOM     14  F   UNL     1       8.518 -10.483   6.715  0.00  0.00    -0.166 F 
ENDBRANCH   9  11
BRANCH   7  15
ATOM     15  C   UNL     1      10.077  -5.840   7.860  0.00  0.00    +0.417 C 
ATOM     16  F   UNL     1      10.267  -4.485   7.570  0.00  0.00    -0.166 F 
ATOM     17  F   UNL     1       9.597  -5.975   9.167  0.00  0.00    -0.166 F 
ATOM     18  F   UNL     1      11.295  -6.518   7.738  0.00  0.00    -0.166 F 
ENDBRANCH   7  15
ENDBRANCH   3   5
BRANCH   1  19
ATOM     19  C   UNL     1       5.086  -4.626   2.683  0.00  0.00    +0.173 C 
BRANCH  19  20
ATOM     20  S   UNL     1       3.374  -5.151   2.394  0.00  0.00    -0.075 S 
BRANCH  20  32
ATOM     21  C   UNL     1       0.003   1.341  -0.037  0.00  0.00    +0.001 A 
ATOM     22  C   UNL     1       1.178   2.105  -0.049  0.00  0.00    +0.002 A 
ATOM     23  C   UNL     1       2.402   1.530  -0.067  0.00  0.00    +0.026 A 
ATOM     24  C   UNL     1       2.506   0.065  -0.072  0.00  0.00    +0.046 A 
ATOM     25  N   UNL     1       3.544  -0.737  -0.056  0.00  0.00    -0.358 N 
ATOM     26  C   UNL     1       3.080  -2.107  -0.197  0.00  0.00    +0.252 C 
ATOM     27  C   UNL     1       1.571  -2.051  -0.037  0.00  0.00    +0.117 C 
ATOM     28  C   UNL     1       1.244  -0.716  -0.046  0.00  0.00    +0.025 A 
ATOM     29  C   UNL     1       0.018  -0.012  -0.035  0.00  0.00    +0.012 A 
ATOM     30  N   UNL     1       0.848  -3.147   0.204  0.00  0.00    -0.147 NA
ATOM     31  N   UNL     1       1.477  -4.108   0.812  0.00  0.00    -0.122 NA
ATOM     32  C   UNL     1       2.759  -3.978   1.232  0.00  0.00    +0.208 C 
ATOM     33  N   UNL     1       3.572  -3.031   0.823  0.00  0.00    -0.227 NA
ATOM     34  H   UNL     1       4.470  -0.461   0.036  0.00  0.00    +0.162 HD
ENDBRANCH  20  32
ENDBRANCH  19  20
ENDBRANCH   1  19
TORSDOF 6
