REMARK  Name = ZINC33268833
REMARK  14 active torsions:
REMARK  status: ('A' for Active; 'I' for Inactive)
REMARK    1  A    between atoms: C_1  and  C_2
REMARK    2  A    between atoms: C_2  and  C_3
REMARK    3  A    between atoms: C_3  and  N_4
REMARK    4  A    between atoms: N_4  and  C_5
REMARK    5  A    between atoms: N_4  and  C_16
REMARK    6  A    between atoms: C_5  and  C_6
REMARK    7  A    between atoms: C_9  and  O_14
REMARK    8  A    between atoms: C_10  and  O_12
REMARK    9  A    between atoms: O_12  and  C_13
REMARK   10  A    between atoms: O_14  and  C_15
REMARK   11  A    between atoms: C_16  and  C_17
REMARK   12  A    between atoms: C_22  and  C_27
REMARK   13  A    between atoms: C_30  and  O_33
REMARK   14  A    between atoms: O_33  and  C_34
REMARK                            x       y       z     vdW  Elec       q    Type
REMARK                         _______ _______ _______ _____ _____    ______ ____
ROOT
ATOM      1  C   UNL     1       0.523  -1.277   0.977  0.00  0.00    +0.037 A 
ATOM      2  C   UNL     1       0.738  -0.263   1.886  0.00  0.00    +0.093 A 
ATOM      3  C   UNL     1       2.042   0.076   2.249  0.00  0.00    +0.259 A 
ATOM      4  O   UNL     1       2.240   0.973   3.053  0.00  0.00    -0.267 OA
ATOM      5  N   UNL     1       3.099  -0.598   1.703  0.00  0.00    -0.256 N 
ATOM      6  C   UNL     1       4.437  -0.380   1.961  0.00  0.00    +0.066 A 
ATOM      7  C   UNL     1       5.382  -1.121   1.351  0.00  0.00    +0.075 A 
ATOM      8  S   UNL     1       4.395  -2.212   0.338  0.00  0.00    -0.059 S 
ATOM      9  C   UNL     1       2.795  -1.590   0.810  0.00  0.00    +0.159 A 
ATOM     10  N   UNL     1       1.573  -1.917   0.469  0.00  0.00    -0.337 N 
ATOM     11  H   UNL     1       1.431  -2.635  -0.168  0.00  0.00    +0.168 HD
ENDROOT
BRANCH   6  12
ATOM     12  C   UNL     1       4.838   0.676   2.916  0.00  0.00    -0.000 A 
ATOM     13  C   UNL     1       4.394   0.628   4.239  0.00  0.00    +0.013 A 
ATOM     14  C   UNL     1       4.770   1.615   5.126  0.00  0.00    +0.046 A 
ATOM     15  C   UNL     1       5.587   2.655   4.705  0.00  0.00    +0.120 A 
ATOM     16  C   UNL     1       6.029   2.707   3.390  0.00  0.00    +0.046 A 
ATOM     17  C   UNL     1       5.664   1.720   2.499  0.00  0.00    +0.013 A 
BRANCH  15  18
ATOM     18  O   UNL     1       5.954   3.626   5.582  0.00  0.00    -0.495 OA
ATOM     19  C   UNL     1       6.796   4.667   5.083  0.00  0.00    +0.277 C 
ENDBRANCH  15  18
ENDBRANCH   6  12
BRANCH   1  20
ATOM     20  C   UNL     1      -0.877  -1.658   0.572  0.00  0.00    +0.138 C 
BRANCH  20  21
ATOM     21  N   UNL     1      -1.071  -1.365  -0.855  0.00  0.00    -0.293 NA
BRANCH  21  22
ATOM     22  C   UNL     1      -1.061   0.083  -1.101  0.00  0.00    +0.085 C 
BRANCH  22  24
ATOM     23  C   UNL     1      -2.206   2.245  -0.593  0.00  0.00    +0.005 C 
ATOM     24  C   UNL     1      -2.249   0.730  -0.386  0.00  0.00    +0.012 C 
ENDBRANCH  22  24
ENDBRANCH  21  22
BRANCH  21  25
ATOM     25  C   UNL     1      -2.311  -1.976  -1.354  0.00  0.00    +0.120 C 
BRANCH  25  26
ATOM     26  C   UNL     1      -2.354  -1.867  -2.856  0.00  0.00    -0.030 A 
ATOM     27  C   UNL     1      -2.927  -0.758  -3.451  0.00  0.00    +0.009 A 
ATOM     28  C   UNL     1      -2.969  -0.654  -4.829  0.00  0.00    +0.050 A 
ATOM     29  C   UNL     1      -2.437  -1.661  -5.617  0.00  0.00    +0.162 A 
ATOM     30  C   UNL     1      -1.860  -2.777  -5.018  0.00  0.00    +0.162 A 
ATOM     31  C   UNL     1      -1.817  -2.874  -3.636  0.00  0.00    +0.054 A 
BRANCH  30  32
ATOM     32  O   UNL     1      -1.337  -3.769  -5.787  0.00  0.00    -0.491 OA
ATOM     33  C   UNL     1      -0.761  -4.885  -5.104  0.00  0.00    +0.277 C 
ENDBRANCH  30  32
BRANCH  29  34
ATOM     34  O   UNL     1      -2.478  -1.560  -6.972  0.00  0.00    -0.491 OA
ATOM     35  C   UNL     1      -3.086  -0.387  -7.517  0.00  0.00    +0.277 C 
ENDBRANCH  29  34
ENDBRANCH  25  26
ENDBRANCH  21  25
ENDBRANCH  20  21
ENDBRANCH   1  20
TORSDOF 10
