REMARK  Name = ZINC64604258
REMARK  10 active torsions:
REMARK  status: ('A' for Active; 'I' for Inactive)
REMARK    1  A    between atoms: C_1  and  C_2
REMARK    2  A    between atoms: C_5  and  N_9
REMARK    3  A    between atoms: C_6  and  C_8
REMARK    4  A    between atoms: C_10  and  C_12
REMARK    5  A    between atoms: C_12  and  C_13
REMARK    6  A    between atoms: C_13  and  C_14
REMARK    7  A    between atoms: C_16  and  C_19
REMARK    8  A    between atoms: C_19  and  S_20
REMARK    9  A    between atoms: S_20  and  C_21
REMARK   10  A    between atoms: C_27  and  C_31
REMARK                            x       y       z     vdW  Elec       q    Type
REMARK                         _______ _______ _______ _____ _____    ______ ____
ROOT
ATOM      1  C   UNL     1      -0.330  -8.351  -2.628  0.00  0.00    +0.228 A 
ATOM      2  N   UNL     1      -1.431  -9.048  -2.582  0.00  0.00    -0.195 NA
ATOM      3  C   UNL     1      -1.148 -10.356  -2.598  0.00  0.00    +0.182 A 
ATOM      4  N   UNL     1       0.144 -10.507  -2.655  0.00  0.00    -0.060 NA
ATOM      5  O   UNL     1       0.703  -9.202  -2.682  0.00  0.00    -0.338 OA
ENDROOT
BRANCH   1   6
ATOM      6  C   UNL     1      -0.236  -6.847  -2.628  0.00  0.00    +0.108 C 
BRANCH   6   7
ATOM      7  C   UNL     1      -0.134  -6.343  -1.187  0.00  0.00    +0.105 C 
BRANCH   7   9
ATOM      8  N   UNL     1       0.059  -4.170  -0.021  0.00  0.00    -0.285 N 
ATOM      9  C   UNL     1      -0.040  -4.839  -1.187  0.00  0.00    +0.218 C 
ATOM     10  O   UNL     1      -0.054  -4.230  -2.236  0.00  0.00    -0.275 OA
ATOM     11  H   UNL     1       0.135  -4.658   0.814  0.00  0.00    +0.155 HD
BRANCH   8  16
ATOM     12  C   UNL     1       0.025   1.503   0.005  0.00  0.00    +0.044 C 
ATOM     13  C   UNL     1       0.034  -0.004  -0.002  0.00  0.00    -0.050 A 
ATOM     14  C   UNL     1       0.632  -0.685  -1.046  0.00  0.00    +0.005 A 
ATOM     15  C   UNL     1       0.641  -2.066  -1.055  0.00  0.00    +0.024 A 
ATOM     16  C   UNL     1       0.051  -2.771  -0.014  0.00  0.00    +0.036 A 
ATOM     17  C   UNL     1      -0.548  -2.083   1.033  0.00  0.00    -0.029 A 
ATOM     18  C   UNL     1      -0.550  -0.702   1.039  0.00  0.00    +0.008 A 
ATOM     19  C   UNL     1      -1.190  -2.843   2.165  0.00  0.00    +0.045 C 
ENDBRANCH   8  16
ENDBRANCH   7   9
ENDBRANCH   6   7
ENDBRANCH   1   6
BRANCH   3  20
ATOM     20  C   UNL     1      -2.159 -11.472  -2.556  0.00  0.00    +0.152 C 
BRANCH  20  21
ATOM     21  S   UNL     1      -2.641 -11.915  -4.248  0.00  0.00    -0.107 S 
BRANCH  21  22
ATOM     22  C   UNL     1      -3.845 -13.253  -4.025  0.00  0.00    +0.236 C 
ATOM     23  N   UNL     1      -4.964 -12.791  -3.194  0.00  0.00    -0.355 N 
ATOM     24  C   UNL     1      -4.995 -13.540  -2.129  0.00  0.00    +0.061 A 
ATOM     25  C   UNL     1      -5.871 -13.563  -0.950  0.00  0.00    +0.028 A 
ATOM     26  C   UNL     1      -5.657 -14.476   0.019  0.00  0.00    +0.005 A 
ATOM     27  C   UNL     1      -4.618 -15.421  -0.046  0.00  0.00    -0.048 A 
ATOM     28  C   UNL     1      -3.758 -15.486  -1.082  0.00  0.00    +0.030 A 
ATOM     29  C   UNL     1      -3.896 -14.541  -2.198  0.00  0.00    +0.061 A 
ATOM     30  N   UNL     1      -3.227 -14.373  -3.304  0.00  0.00    -0.355 N 
ATOM     31  C   UNL     1      -4.460 -16.401   1.088  0.00  0.00    +0.044 C 
ATOM     32  H   UNL     1      -5.569 -12.061  -3.400  0.00  0.00    +0.162 HD
ATOM     33  H   UNL     1      -2.462 -14.892  -3.598  0.00  0.00    +0.162 HD
ENDBRANCH  21  22
ENDBRANCH  20  21
ENDBRANCH   3  20
TORSDOF 7
