REMARK  Name = ZINC43218893
REMARK  6 active torsions:
REMARK  status: ('A' for Active; 'I' for Inactive)
REMARK    1  A    between atoms: C_1  and  C_2
REMARK    2  A    between atoms: C_5  and  N_9
REMARK    3  A    between atoms: C_14  and  C_31
REMARK    4  A    between atoms: C_17  and  C_22
REMARK    5  A    between atoms: C_17  and  C_28
REMARK    6  A    between atoms: C_34  and  C_37
REMARK                            x       y       z     vdW  Elec       q    Type
REMARK                         _______ _______ _______ _____ _____    ______ ____
ROOT
ATOM      1  N   UNL     1       0.083  -4.260  -0.501  0.00  0.00    -0.210 N 
ATOM      2  C   UNL     1       0.118  -5.152  -1.544  0.00  0.00    +0.229 C 
ATOM      3  O   UNL     1       0.369  -4.920  -2.708  0.00  0.00    -0.275 OA
ATOM      4  C   UNL     1      -0.209  -6.425  -0.951  0.00  0.00    +0.078 C 
ATOM      5  C   UNL     1      -0.070  -7.868  -1.208  0.00  0.00    -0.026 C 
ATOM      6  N   UNL     1      -0.495  -8.465   0.105  0.00  0.00    +0.398 N 
ATOM      7  C   UNL     1      -0.303  -7.427   1.161  0.00  0.00    +0.074 C 
ATOM      8  C   UNL     1       0.474  -6.297   0.469  0.00  0.00    +0.090 C 
ATOM      9  C   UNL     1       0.058  -4.874   0.718  0.00  0.00    +0.229 C 
ATOM     10  O   UNL     1      -0.241  -4.377   1.783  0.00  0.00    -0.275 OA
ATOM     11  H   UNL     1      -1.468  -8.731   0.060  0.00  0.00    -0.083 HD
ATOM     12  H   UNL     1       0.072  -9.273   0.313  0.00  0.00    -0.083 HD
ENDROOT
BRANCH   1  17
ATOM     13  C   UNL     1       0.066   1.376  -1.186  0.00  0.00    +0.045 C 
ATOM     14  C   UNL     1       0.071  -0.120  -1.004  0.00  0.00    -0.032 A 
ATOM     15  C   UNL     1       0.102  -0.950  -2.110  0.00  0.00    +0.006 A 
ATOM     16  C   UNL     1       0.106  -2.321  -1.946  0.00  0.00    +0.024 A 
ATOM     17  C   UNL     1       0.079  -2.868  -0.670  0.00  0.00    +0.045 A 
ATOM     18  C   UNL     1       0.048  -2.033   0.439  0.00  0.00    +0.044 A 
ATOM     19  C   UNL     1       0.049  -0.661   0.270  0.00  0.00    +0.046 A 
ATOM     20 CL   UNL     1       0.017   0.384   1.656  0.00  0.00    -0.083 Cl
ENDBRANCH   1  17
BRANCH   7  21
ATOM     21  C   UNL     1      -1.638  -6.942   1.665  0.00  0.00    -0.047 A 
ATOM     22  C   UNL     1      -1.766  -6.503   2.970  0.00  0.00    +0.003 A 
ATOM     23  C   UNL     1      -2.991  -6.058   3.432  0.00  0.00    +0.000 A 
ATOM     24  C   UNL     1      -4.087  -6.052   2.590  0.00  0.00    +0.000 A 
ATOM     25  C   UNL     1      -3.958  -6.490   1.285  0.00  0.00    +0.000 A 
ATOM     26  C   UNL     1      -2.733  -6.931   0.822  0.00  0.00    +0.003 A 
ENDBRANCH   7  21
BRANCH   5  27
ATOM     27  C   UNL     1      -0.986  -8.307  -2.321  0.00  0.00    -0.061 A 
ATOM     28  C   UNL     1      -2.283  -8.695  -2.033  0.00  0.00    +0.003 A 
ATOM     29  C   UNL     1      -3.127  -9.098  -3.047  0.00  0.00    +0.019 A 
ATOM     30  C   UNL     1      -2.670  -9.113  -4.367  0.00  0.00    +0.052 A 
ATOM     31  C   UNL     1      -1.361  -8.720  -4.650  0.00  0.00    +0.019 A 
ATOM     32  C   UNL     1      -0.529  -8.315  -3.627  0.00  0.00    +0.003 A 
BRANCH  30  33
ATOM     33  C   UNL     1      -3.541  -9.530  -5.424  0.00  0.00    +0.099 C 
ATOM     34  N   UNL     1      -4.232  -9.861  -6.263  0.00  0.00    -0.191 NA
ENDBRANCH  30  33
ENDBRANCH   5  27
BRANCH   7  35
ATOM     35  C   UNL     1       0.514  -7.985   2.298  0.00  0.00    +0.350 C 
ATOM     36  O   UNL     1       0.888  -9.145   2.268  0.00  0.00    -0.248 OA
ATOM     37  O   UNL     1       0.800  -7.276   3.248  0.00  0.00    -0.248 OA
ENDBRANCH   7  35
TORSDOF 5
