REMARK  Name = ZINC39664553
REMARK  12 active torsions:
REMARK  status: ('A' for Active; 'I' for Inactive)
REMARK    1  A    between atoms: C_1  and  C_2
REMARK    2  A    between atoms: C_2  and  C_3
REMARK    3  A    between atoms: C_3  and  C_4
REMARK    4  A    between atoms: C_4  and  C_6
REMARK    5  A    between atoms: C_4  and  C_7
REMARK    6  A    between atoms: C_11  and  C_20
REMARK    7  A    between atoms: N_22  and  C_23
REMARK    8  A    between atoms: C_23  and  C_25
REMARK    9  A    between atoms: C_23  and  C_29
REMARK   10  A    between atoms: C_25  and  N_26
REMARK   11  A    between atoms: N_26  and  C_27
REMARK   12  A    between atoms: N_26  and  C_28
REMARK                            x       y       z     vdW  Elec       q    Type
REMARK                         _______ _______ _______ _____ _____    ______ ____
ROOT
ATOM      1  C   UNL     1      -0.108  -4.331   0.580  0.00  0.00    +0.218 C 
ATOM      2  O   UNL     1      -0.430  -3.233   0.982  0.00  0.00    -0.275 OA
ATOM      3  N   UNL     1       0.594  -5.161   1.377  0.00  0.00    -0.300 N 
ATOM      4  C   UNL     1       1.180  -6.476   1.027  0.00  0.00    +0.121 C 
ATOM      5  C   UNL     1       2.546  -6.500   1.749  0.00  0.00    +0.100 C 
ATOM      6  C   UNL     1       2.392  -5.506   2.913  0.00  0.00    -0.004 C 
ATOM      7  C   UNL     1       0.962  -4.960   2.799  0.00  0.00    +0.115 C 
ATOM      8  C   UNL     1       3.398  -4.368   2.772  0.00  0.00    -0.010 C 
ATOM      9  C   UNL     1       3.264  -3.424   3.970  0.00  0.00    -0.082 C 
ATOM     10  N   UNL     1       3.509  -4.168   5.211  0.00  0.00    +0.379 N 
ATOM     11  C   UNL     1       2.481  -5.202   5.385  0.00  0.00    -0.082 C 
ATOM     12  C   UNL     1       2.581  -6.221   4.247  0.00  0.00    -0.010 C 
ATOM     13  H   UNL     1       4.418  -4.604   5.168  0.00  0.00    -0.086 HD
ATOM     14  H   UNL     1       3.480  -3.533   5.994  0.00  0.00    -0.086 HD
ENDROOT
BRANCH   5  15
ATOM     15  C   UNL     1       3.641  -6.053   0.815  0.00  0.00    +0.219 C 
ATOM     16  O   UNL     1       4.802  -6.248   1.104  0.00  0.00    -0.275 OA
ATOM     17  N   UNL     1       3.329  -5.435  -0.342  0.00  0.00    -0.310 N 
ATOM     18  H   UNL     1       2.406  -5.212  -0.539  0.00  0.00    +0.149 HD
BRANCH  17  19
ATOM     19  C   UNL     1       4.384  -5.101  -1.302  0.00  0.00    +0.087 C 
BRANCH  19  20
ATOM     20  C   UNL     1       3.948  -3.927  -2.140  0.00  0.00    -0.029 A 
ATOM     21  C   UNL     1       2.639  -3.837  -2.574  0.00  0.00    +0.005 A 
ATOM     22  C   UNL     1       2.238  -2.760  -3.343  0.00  0.00    +0.000 A 
ATOM     23  C   UNL     1       3.147  -1.773  -3.677  0.00  0.00    +0.000 A 
ATOM     24  C   UNL     1       4.456  -1.863  -3.241  0.00  0.00    +0.000 A 
ATOM     25  C   UNL     1       4.855  -2.938  -2.469  0.00  0.00    +0.005 A 
ENDBRANCH  19  20
BRANCH  19  26
ATOM     26  C   UNL     1       4.649  -6.305  -2.208  0.00  0.00    -0.052 C 
BRANCH  26  27
ATOM     27  N   UNL     1       5.846  -6.052  -3.020  0.00  0.00    +0.377 N 
ATOM     28  C   UNL     1       7.033  -6.044  -2.154  0.00  0.00    -0.097 C 
ATOM     29  C   UNL     1       5.985  -7.110  -4.030  0.00  0.00    -0.097 C 
ATOM     30  H   UNL     1       5.759  -5.158  -3.479  0.00  0.00    -0.083 HD
ENDBRANCH  26  27
ENDBRANCH  19  26
ENDBRANCH  17  19
ENDBRANCH   5  15
BRANCH   1  31
ATOM     31  C   UNL     1      -0.494  -4.768  -0.810  0.00  0.00    +0.072 C 
ATOM     32  C   UNL     1      -0.507  -3.554  -1.741  0.00  0.00    +0.017 C 
BRANCH  31  33
ATOM     33  C   UNL     1      -1.886  -5.402  -0.777  0.00  0.00    +0.012 C 
BRANCH  33  35
ATOM     34  C   UNL     1      -3.619  -6.590  -2.129  0.00  0.00    +0.004 C 
ATOM     35  C   UNL     1      -2.226  -5.957  -2.162  0.00  0.00    -0.003 C 
ENDBRANCH  33  35
ENDBRANCH  31  33
ENDBRANCH   1  31
TORSDOF 8
