REMARK  Name = ZINC51714553
REMARK  7 active torsions:
REMARK  status: ('A' for Active; 'I' for Inactive)
REMARK    1  A    between atoms: C_1  and  C_2
REMARK    2  A    between atoms: C_5  and  C_8
REMARK    3  A    between atoms: C_8  and  C_10
REMARK    4  A    between atoms: C_8  and  N_27
REMARK    5  A    between atoms: C_10  and  N_11
REMARK    6  A    between atoms: C_18  and  C_21
REMARK    7  A    between atoms: N_23  and  C_24
REMARK                            x       y       z     vdW  Elec       q    Type
REMARK                         _______ _______ _______ _____ _____    ______ ____
ROOT
ATOM      1  N   UNL     1       1.375  -6.164   0.370  0.00  0.00    -0.300 N 
ATOM      2  C   UNL     1       2.546  -6.760   0.672  0.00  0.00    +0.302 C 
ATOM      3  O   UNL     1       3.578  -6.117   0.651  0.00  0.00    -0.253 OA
ATOM      4  N   UNL     1       2.573  -8.068   0.996  0.00  0.00    -0.285 N 
ATOM      5  C   UNL     1       1.354  -8.884   0.917  0.00  0.00    +0.109 C 
ATOM      6  C   UNL     1       1.137  -9.576   2.266  0.00  0.00    +0.020 C 
ATOM      7  C   UNL     1       2.396 -10.362   2.640  0.00  0.00    +0.016 C 
ATOM      8  C   UNL     1       3.578  -9.400   2.776  0.00  0.00    +0.092 C 
ATOM      9  C   UNL     1       3.824  -8.706   1.428  0.00  0.00    +0.122 C 
ATOM     10  H   UNL     1       0.562  -6.691   0.321  0.00  0.00    +0.150 HD
ENDROOT
BRANCH   8  11
ATOM     11  C   UNL     1       4.810 -10.170   3.178  0.00  0.00    +0.218 C 
ATOM     12  O   UNL     1       4.749 -11.370   3.339  0.00  0.00    -0.275 OA
ATOM     13  N   UNL     1       5.979  -9.524   3.357  0.00  0.00    -0.312 N 
ATOM     14  H   UNL     1       6.028  -8.564   3.228  0.00  0.00    +0.149 HD
BRANCH  13  15
ATOM     15  C   UNL     1       7.177 -10.273   3.747  0.00  0.00    +0.073 C 
ATOM     16  C   UNL     1       8.063  -9.669   4.837  0.00  0.00    +0.024 C 
ATOM     17  C   UNL     1       8.535  -9.671   3.382  0.00  0.00    +0.024 C 
ENDBRANCH  13  15
ENDBRANCH   8  11
BRANCH   1  18
ATOM     18  C   UNL     1       1.331  -4.722   0.117  0.00  0.00    +0.095 C 
BRANCH  18  19
ATOM     19  C   UNL     1      -0.121  -4.284  -0.081  0.00  0.00    -0.020 C 
BRANCH  19  24
ATOM     20  C   UNL     1      -2.238  -6.723  -4.873  0.00  0.00    +0.044 C 
ATOM     21  C   UNL     1      -1.686  -6.087  -3.623  0.00  0.00    -0.050 A 
ATOM     22  C   UNL     1      -1.980  -6.627  -2.385  0.00  0.00    +0.003 A 
ATOM     23  C   UNL     1      -1.473  -6.043  -1.239  0.00  0.00    +0.002 A 
ATOM     24  C   UNL     1      -0.672  -4.920  -1.331  0.00  0.00    -0.059 A 
ATOM     25  C   UNL     1      -0.378  -4.381  -2.569  0.00  0.00    +0.002 A 
ATOM     26  C   UNL     1      -0.880  -4.967  -3.716  0.00  0.00    +0.003 A 
ENDBRANCH  19  24
BRANCH  19  27
ATOM     27  N   UNL     1      -0.178  -2.821  -0.211  0.00  0.00    +0.385 N 
ATOM     28  C   UNL     1      -1.591  -2.365  -0.249  0.00  0.00    -0.078 C 
ATOM     29  C   UNL     1      -1.495  -0.879   0.179  0.00  0.00    -0.020 C 
ATOM     30  C   UNL     1      -0.390  -0.901   1.260  0.00  0.00    -0.020 C 
ATOM     31  C   UNL     1       0.421  -2.180   0.980  0.00  0.00    -0.078 C 
ATOM     32  H   UNL     1       0.307  -2.526  -1.045  0.00  0.00    -0.081 HD
ENDBRANCH  19  27
ENDBRANCH  18  19
ENDBRANCH   1  18
TORSDOF 6
