REMARK  Name = ZINC60331037
REMARK  5 active torsions:
REMARK  status: ('A' for Active; 'I' for Inactive)
REMARK    1  A    between atoms: C_1  and  C_2
REMARK    2  A    between atoms: N_5  and  C_22
REMARK    3  A    between atoms: C_6  and  N_7
REMARK    4  A    between atoms: C_8  and  C_10
REMARK    5  A    between atoms: C_13  and  C_16
REMARK                            x       y       z     vdW  Elec       q    Type
REMARK                         _______ _______ _______ _____ _____    ______ ____
ROOT
ATOM      1  C   UNL     1      -0.883   1.326   0.210  0.00  0.00    +0.049 C 
ATOM      2  C   UNL     1      -0.351  -0.079   0.087  0.00  0.00    +0.009 A 
ATOM      3  C   UNL     1      -0.498  -0.921  -1.019  0.00  0.00    +0.139 A 
ATOM      4  N   UNL     1       0.097  -2.055  -0.753  0.00  0.00    -0.177 NA
ATOM      5  N   UNL     1       0.644  -1.976   0.534  0.00  0.00    -0.243 N 
ATOM      6  C   UNL     1       0.362  -0.751   1.032  0.00  0.00    +0.127 A 
ENDROOT
BRANCH   5   7
ATOM      7  C   UNL     1       1.395  -3.033   1.218  0.00  0.00    +0.139 C 
ATOM      8  C   UNL     1       2.822  -3.069   0.674  0.00  0.00    +0.032 C 
ATOM      9  C   UNL     1       3.523  -4.311   1.238  0.00  0.00    +0.007 C 
ATOM     10  C   UNL     1       2.903  -5.548   0.593  0.00  0.00    +0.035 C 
ATOM     11  C   UNL     1       1.402  -5.511   0.710  0.00  0.00    -0.042 A 
ATOM     12  C   UNL     1       0.709  -4.355   0.992  0.00  0.00    -0.020 A 
ATOM     13  C   UNL     1      -0.676  -4.388   1.079  0.00  0.00    +0.006 A 
ATOM     14  C   UNL     1      -1.363  -5.569   0.888  0.00  0.00    +0.000 A 
ATOM     15  C   UNL     1      -0.667  -6.730   0.608  0.00  0.00    +0.000 A 
ATOM     16  C   UNL     1       0.708  -6.699   0.520  0.00  0.00    +0.004 A 
ENDBRANCH   5   7
BRANCH   6  17
ATOM     17  N   UNL     1       0.732  -0.266   2.286  0.00  0.00    -0.267 N 
ATOM     18  C   UNL     1       1.296   0.953   2.397  0.00  0.00    +0.262 C 
ATOM     19  O   UNL     1       1.554   1.595   1.401  0.00  0.00    -0.271 OA
ATOM     20  H   UNL     1       0.582  -0.805   3.078  0.00  0.00    +0.156 HD
BRANCH  18  21
ATOM     21  C   UNL     1       1.606   1.519   3.759  0.00  0.00    +0.295 C 
ATOM     22  C   UNL     1       2.740   0.721   4.445  0.00  0.00    +0.116 C 
ATOM     23  C   UNL     1       3.976   1.515   4.068  0.00  0.00    +0.091 C 
ATOM     24  N   UNL     1       3.598   2.670   3.634  0.00  0.00    -0.088 NA
ATOM     25  O   UNL     1       2.192   2.832   3.652  0.00  0.00    -0.380 OA
BRANCH  23  26
ATOM     26  C   UNL     1       5.372   1.048   4.179  0.00  0.00    -0.000 A 
ATOM     27  C   UNL     1       5.646  -0.233   4.662  0.00  0.00    +0.010 A 
ATOM     28  C   UNL     1       6.953  -0.664   4.764  0.00  0.00    +0.001 A 
ATOM     29  C   UNL     1       7.991   0.171   4.388  0.00  0.00    +0.000 A 
ATOM     30  C   UNL     1       7.726   1.442   3.909  0.00  0.00    +0.001 A 
ATOM     31  C   UNL     1       6.424   1.882   3.797  0.00  0.00    +0.010 A 
ENDBRANCH  23  26
ENDBRANCH  18  21
ENDBRANCH   6  17
TORSDOF 4
