REMARK  Name = ZINC09077927
REMARK  11 active torsions:
REMARK  status: ('A' for Active; 'I' for Inactive)
REMARK    1  A    between atoms: C_1  and  C_2
REMARK    2  A    between atoms: C_2  and  O_3
REMARK    3  A    between atoms: O_3  and  C_4
REMARK    4  A    between atoms: C_4  and  C_6
REMARK    5  A    between atoms: C_6  and  N_7
REMARK    6  A    between atoms: N_16  and  C_17
REMARK    7  A    between atoms: C_17  and  C_19
REMARK    8  A    between atoms: C_22  and  S_25
REMARK    9  A    between atoms: S_25  and  N_28
REMARK   10  A    between atoms: C_30  and  C_37
REMARK   11  A    between atoms: C_33  and  C_36
REMARK                            x       y       z     vdW  Elec       q    Type
REMARK                         _______ _______ _______ _____ _____    ______ ____
ROOT
ATOM      1  C   UNL     1       2.151   4.425   0.925  0.00  0.00    +0.269 C 
ATOM      2  O   UNL     1       3.240   3.915   0.725  0.00  0.00    -0.268 OA
ENDROOT
BRANCH   1  12
ATOM      3  N   UNL     1       0.094   1.660  -0.145  0.00  0.00    -0.310 N 
ATOM      4  C   UNL     1       0.371   0.398  -0.635  0.00  0.00    +0.058 A 
ATOM      5  C   UNL     1      -0.533  -0.604  -1.023  0.00  0.00    +0.027 A 
ATOM      6  C   UNL     1      -0.082  -1.814  -1.494  0.00  0.00    +0.002 A 
ATOM      7  C   UNL     1       1.272  -2.083  -1.602  0.00  0.00    +0.001 A 
ATOM      8  C   UNL     1       2.186  -1.114  -1.227  0.00  0.00    +0.017 A 
ATOM      9  C   UNL     1       1.736   0.097  -0.755  0.00  0.00    +0.039 A 
ATOM     10  S   UNL     1       2.531   1.577  -0.182  0.00  0.00    -0.052 S 
ATOM     11  C   UNL     1       1.111   2.503   0.181  0.00  0.00    +0.167 A 
ATOM     12  N   UNL     1       1.034   3.740   0.661  0.00  0.00    -0.152 NA
BRANCH   3  13
ATOM     13  C   UNL     1      -1.296   2.092   0.020  0.00  0.00    +0.244 C 
BRANCH  13  14
ATOM     14  C   UNL     1      -1.435   2.855   1.312  0.00  0.00    +0.327 C 
ATOM     15  O   UNL     1      -0.520   2.880   2.100  0.00  0.00    -0.249 OA
BRANCH  14  16
ATOM     16  O   UNL     1      -2.577   3.506   1.587  0.00  0.00    -0.464 OA
BRANCH  16  18
ATOM     17  C   UNL     1      -4.007   4.893   2.987  0.00  0.00    +0.048 C 
ATOM     18  C   UNL     1      -2.640   4.218   2.851  0.00  0.00    +0.229 C 
ENDBRANCH  16  18
ENDBRANCH  14  16
ENDBRANCH  13  14
ENDBRANCH   3  13
ENDBRANCH   1  12
BRANCH   1  19
ATOM     19  C   UNL     1       2.066   5.803   1.460  0.00  0.00    +0.039 A 
ATOM     20  C   UNL     1       0.821   6.391   1.685  0.00  0.00    +0.015 A 
ATOM     21  C   UNL     1       0.748   7.674   2.189  0.00  0.00    +0.029 A 
ATOM     22  C   UNL     1       1.906   8.380   2.461  0.00  0.00    +0.106 A 
ATOM     23  C   UNL     1       3.144   7.804   2.235  0.00  0.00    +0.029 A 
ATOM     24  C   UNL     1       3.230   6.521   1.736  0.00  0.00    +0.015 A 
BRANCH  22  25
ATOM     25  S   UNL     1       1.805  10.020   3.097  0.00  0.00    +0.061 S 
ATOM     26  O   UNL     1       0.539  10.131   3.733  0.00  0.00    -0.153 OA
ATOM     27  O   UNL     1       3.026  10.267   3.780  0.00  0.00    -0.153 OA
BRANCH  25  28
ATOM     28  N   UNL     1       1.773  11.048   1.798  0.00  0.00    -0.176 NA
ATOM     29  C   UNL     1       3.021  11.586   1.239  0.00  0.00    +0.112 C 
ATOM     30  C   UNL     1       3.052  11.283  -0.267  0.00  0.00    +0.002 C 
ATOM     31  C   UNL     1       1.782  11.835  -0.918  0.00  0.00    +0.009 C 
ATOM     32  C   UNL     1       0.556  11.146  -0.315  0.00  0.00    +0.002 C 
ATOM     33  C   UNL     1       0.497  11.443   1.187  0.00  0.00    +0.112 C 
ATOM     34  C   UNL     1       0.660   9.636  -0.533  0.00  0.00    +0.009 C 
ATOM     35  C   UNL     1       4.279  11.948  -0.894  0.00  0.00    +0.009 C 
ENDBRANCH  25  28
ENDBRANCH  22  25
ENDBRANCH   1  19
TORSDOF 8
