REMARK  Name = ZINC20116943
REMARK  10 active torsions:
REMARK  status: ('A' for Active; 'I' for Inactive)
REMARK    1  A    between atoms: C_1  and  C_2
REMARK    2  A    between atoms: C_2  and  C_3
REMARK    3  A    between atoms: C_6  and  N_9
REMARK    4  A    between atoms: C_10  and  C_12
REMARK    5  A    between atoms: C_12  and  N_13
REMARK    6  A    between atoms: C_20  and  S_24
REMARK    7  A    between atoms: C_21  and  C_23
REMARK    8  A    between atoms: S_24  and  N_27
REMARK    9  A    between atoms: C_29  and  C_36
REMARK   10  A    between atoms: C_32  and  C_35
REMARK                            x       y       z     vdW  Elec       q    Type
REMARK                         _______ _______ _______ _____ _____    ______ ____
ROOT
ATOM      1  N   UNL     1       0.830   4.296  -0.626  0.00  0.00    -0.290 N 
ATOM      2  C   UNL     1      -0.488   3.968  -0.628  0.00  0.00    +0.203 A 
ATOM      3  N   UNL     1      -0.879   2.739  -0.423  0.00  0.00    -0.230 NA
ATOM      4  C   UNL     1       0.002   1.765  -0.214  0.00  0.00    +0.117 A 
ATOM      5  C   UNL     1       1.387   2.008  -0.193  0.00  0.00    +0.099 A 
ATOM      6  C   UNL     1       1.782   3.367  -0.417  0.00  0.00    +0.264 A 
ATOM      7  O   UNL     1       2.960   3.678  -0.417  0.00  0.00    -0.267 OA
ATOM      8  C   UNL     1       2.211   0.839   0.053  0.00  0.00    +0.130 A 
ATOM      9  C   UNL     1       1.620  -0.352   0.238  0.00  0.00    +0.016 A 
ATOM     10  S   UNL     1      -0.117   0.021   0.091  0.00  0.00    -0.072 S 
ATOM     11  C   UNL     1       2.269  -1.686   0.505  0.00  0.00    +0.053 C 
ENDROOT
BRANCH   8  12
ATOM     12  S   UNL     1       3.966   0.981   0.110  0.00  0.00    +0.062 S 
ATOM     13  O   UNL     1       4.253   2.293   0.575  0.00  0.00    -0.153 OA
ATOM     14  O   UNL     1       4.447  -0.182   0.768  0.00  0.00    -0.153 OA
BRANCH  12  15
ATOM     15  N   UNL     1       4.514   0.902  -1.451  0.00  0.00    -0.176 NA
ATOM     16  C   UNL     1       4.867  -0.389  -2.056  0.00  0.00    +0.112 C 
ATOM     17  C   UNL     1       4.091  -0.539  -3.374  0.00  0.00    +0.002 C 
ATOM     18  C   UNL     1       4.375   0.671  -4.267  0.00  0.00    +0.009 C 
ATOM     19  C   UNL     1       3.895   1.946  -3.568  0.00  0.00    +0.002 C 
ATOM     20  C   UNL     1       4.663   2.123  -2.255  0.00  0.00    +0.112 C 
ATOM     21  C   UNL     1       2.398   1.834  -3.273  0.00  0.00    +0.009 C 
ATOM     22  C   UNL     1       4.541  -1.816  -4.087  0.00  0.00    +0.009 C 
ENDBRANCH  12  15
ENDBRANCH   8  12
BRANCH   1  23
ATOM     23  C   UNL     1       1.224   5.688  -0.855  0.00  0.00    +0.222 C 
BRANCH  23  25
ATOM     24  N   UNL     1       1.790   7.133  -2.781  0.00  0.00    -0.284 N 
ATOM     25  C   UNL     1       1.423   5.917  -2.331  0.00  0.00    +0.237 C 
ATOM     26  O   UNL     1       1.253   5.007  -3.115  0.00  0.00    -0.274 OA
ATOM     27  H   UNL     1       2.029   7.935  -2.066  0.00  0.00    +0.155 HD
BRANCH  24  31
ATOM     28  C   UNL     1       2.023   7.857  -6.877  0.00  0.00    -0.048 A 
ATOM     29  C   UNL     1       1.057   7.000  -6.381  0.00  0.00    +0.005 A 
ATOM     30  C   UNL     1       0.978   6.758  -5.024  0.00  0.00    +0.023 A 
ATOM     31  C   UNL     1       1.869   7.376  -4.157  0.00  0.00    +0.033 A 
ATOM     32  C   UNL     1       2.833   8.241  -4.657  0.00  0.00    +0.023 A 
ATOM     33  C   UNL     1       2.912   8.473  -6.016  0.00  0.00    +0.005 A 
BRANCH  28  35
ATOM     34  C   UNL     1       1.225   9.317  -8.716  0.00  0.00    +0.009 C 
ATOM     35  C   UNL     1       2.107   8.118  -8.359  0.00  0.00    +0.032 C 
ENDBRANCH  28  35
ENDBRANCH  24  31
ENDBRANCH  23  25
ENDBRANCH   1  23
TORSDOF 6
