REMARK  Name = ZINC02158127
REMARK  10 active torsions:
REMARK  status: ('A' for Active; 'I' for Inactive)
REMARK    1  A    between atoms: C_1  and  C_2
REMARK    2  A    between atoms: C_2  and  C_3
REMARK    3  A    between atoms: C_2  and  C_4
REMARK    4  A    between atoms: C_7  and  C_10
REMARK    5  A    between atoms: N_29  and  C_32
REMARK    6  A    between atoms: C_32  and  C_33
REMARK    7  A    between atoms: C_33  and  C_34
REMARK    8  A    between atoms: C_34  and  N_68
REMARK    9  A    between atoms: C_35  and  N_68
REMARK   10  A    between atoms: C_36  and  N_68
REMARK                            x       y       z     vdW  Elec       q    Type
REMARK                         _______ _______ _______ _____ _____    ______ ____
ROOT
ATOM      1  C   UNL     1       0.253  -6.623   4.386  0.00  0.00    +0.154 C 
ATOM      2  C   UNL     1      -1.156  -7.047   4.038  0.00  0.00    +0.046 A 
ATOM      3  C   UNL     1      -2.173  -6.177   3.858  0.00  0.00    -0.015 A 
ATOM      4  C   UNL     1      -3.351  -6.961   3.546  0.00  0.00    +0.003 A 
ATOM      5  C   UNL     1      -4.676  -6.611   3.267  0.00  0.00    +0.010 A 
ATOM      6  C   UNL     1      -5.547  -7.640   3.007  0.00  0.00    +0.001 A 
ATOM      7  C   UNL     1      -5.145  -8.965   3.017  0.00  0.00    +0.002 A 
ATOM      8  C   UNL     1      -3.841  -9.340   3.289  0.00  0.00    +0.026 A 
ATOM      9  C   UNL     1      -2.934  -8.316   3.557  0.00  0.00    +0.047 A 
ATOM     10  N   UNL     1      -1.602  -8.329   3.858  0.00  0.00    -0.356 N 
ATOM     11  H   UNL     1      -1.055  -9.126   3.934  0.00  0.00    +0.166 HD
ATOM     12  C   UNL     1      -2.050  -4.678   3.968  0.00  0.00    +0.069 C 
ATOM     13  C   UNL     1      -0.758  -4.341   4.725  0.00  0.00    +0.167 C 
ATOM     14  N   UNL     1       0.334  -5.159   4.198  0.00  0.00    -0.276 N 
ATOM     15  C   UNL     1       1.388  -4.646   3.560  0.00  0.00    +0.234 C 
ATOM     16  O   UNL     1       2.203  -5.418   3.102  0.00  0.00    -0.274 OA
ATOM     17  C   UNL     1       1.631  -3.184   3.372  0.00  0.00    +0.203 C 
ATOM     18  N   UNL     1       0.598  -2.373   3.995  0.00  0.00    -0.291 N 
ATOM     19  C   UNL     1      -0.470  -2.879   4.609  0.00  0.00    +0.237 C 
ATOM     20  O   UNL     1      -1.262  -2.104   5.101  0.00  0.00    -0.274 OA
ENDROOT
BRANCH   1  24
ATOM     21  C   UNL     1       3.037  -8.576   1.801  0.00  0.00    -0.045 A 
ATOM     22  C   UNL     1       3.224  -8.609   3.170  0.00  0.00    +0.004 A 
ATOM     23  C   UNL     1       2.323  -7.977   4.007  0.00  0.00    +0.006 A 
ATOM     24  C   UNL     1       1.235  -7.312   3.474  0.00  0.00    -0.021 A 
ATOM     25  C   UNL     1       1.044  -7.283   2.106  0.00  0.00    +0.006 A 
ATOM     26  C   UNL     1       1.948  -7.912   1.269  0.00  0.00    +0.004 A 
BRANCH  21  28
ATOM     27  C   UNL     1       3.294 -10.337   0.074  0.00  0.00    +0.012 C 
ATOM     28  C   UNL     1       4.019  -9.264   0.889  0.00  0.00    +0.013 C 
ATOM     29  C   UNL     1       4.641  -8.237  -0.059  0.00  0.00    +0.012 C 
ENDBRANCH  21  28
ENDBRANCH   1  24
BRANCH  18  30
ATOM     30  C   UNL     1       0.743  -0.916   3.950  0.00  0.00    +0.106 C 
BRANCH  30  31
ATOM     31  C   UNL     1       0.068  -0.376   2.688  0.00  0.00    +0.000 C 
BRANCH  31  32
ATOM     32  C   UNL     1       0.219   1.146   2.641  0.00  0.00    -0.078 C 
BRANCH  32  35
ATOM     33  C   UNL     1       0.270   1.207   0.221  0.00  0.00    -0.097 C 
ATOM     34  C   UNL     1      -0.513   3.132   1.464  0.00  0.00    -0.097 C 
ATOM     35  N   UNL     1      -0.456   1.655   1.428  0.00  0.00    +0.376 N 
ATOM     36  H   UNL     1      -1.413   1.284   1.399  0.00  0.00    -0.083 HD
ENDBRANCH  32  35
ENDBRANCH  31  32
ENDBRANCH  30  31
ENDBRANCH  18  30
TORSDOF 6
