REMARK  Name = ZINC35098383
REMARK  13 active torsions:
REMARK  status: ('A' for Active; 'I' for Inactive)
REMARK    1  A    between atoms: C_1  and  C_2
REMARK    2  A    between atoms: C_2  and  C_3
REMARK    3  A    between atoms: C_3  and  C_4
REMARK    4  A    between atoms: C_4  and  N_5
REMARK    5  A    between atoms: C_13  and  C_15
REMARK    6  A    between atoms: C_16  and  C_18
REMARK    7  A    between atoms: C_18  and  C_20
REMARK    8  A    between atoms: C_18  and  N_25
REMARK    9  A    between atoms: C_20  and  C_22
REMARK   10  A    between atoms: C_20  and  C_23
REMARK   11  A    between atoms: C_23  and  C_24
REMARK   12  A    between atoms: N_25  and  S_26
REMARK   13  A    between atoms: S_26  and  C_29
REMARK                            x       y       z     vdW  Elec       q    Type
REMARK                         _______ _______ _______ _____ _____    ______ ____
ROOT
ATOM      1  N   UNL     1      -3.868  -2.465  -2.354  0.00  0.00    -0.299 N 
ATOM      2  C   UNL     1      -4.072  -3.795  -2.290  0.00  0.00    +0.303 C 
ATOM      3  O   UNL     1      -3.258  -4.559  -2.772  0.00  0.00    -0.253 OA
ATOM      4  N   UNL     1      -5.178  -4.279  -1.691  0.00  0.00    -0.280 N 
ATOM      5  C   UNL     1      -6.227  -3.370  -1.210  0.00  0.00    +0.128 C 
ATOM      6  C   UNL     1      -6.473  -3.649   0.278  0.00  0.00    +0.127 C 
ATOM      7  N   UNL     1      -6.652  -5.096   0.461  0.00  0.00    -0.297 N 
ATOM      8  C   UNL     1      -5.603  -6.006  -0.021  0.00  0.00    +0.130 C 
ATOM      9  C   UNL     1      -5.360  -5.727  -1.514  0.00  0.00    +0.092 C 
ATOM     10  C   UNL     1      -6.564  -6.198  -2.331  0.00  0.00    +0.030 C 
ATOM     11  C   UNL     1      -7.759  -5.581   1.059  0.00  0.00    +0.235 C 
ATOM     12  O   UNL     1      -7.848  -6.766   1.300  0.00  0.00    -0.274 OA
ATOM     13  H   UNL     1      -4.551  -1.853  -2.037  0.00  0.00    +0.150 HD
ENDROOT
BRANCH   1  14
ATOM     14  C   UNL     1      -2.615  -1.941  -2.903  0.00  0.00    +0.106 C 
BRANCH  14  15
ATOM     15  C   UNL     1      -2.639  -0.412  -2.861  0.00  0.00    +0.018 C 
BRANCH  15  17
ATOM     16  C   UNL     1      -1.354   1.664  -3.392  0.00  0.00    +0.004 C 
ATOM     17  C   UNL     1      -1.330   0.135  -3.434  0.00  0.00    -0.002 C 
ENDBRANCH  15  17
ENDBRANCH  14  15
ENDBRANCH   1  14
BRANCH  11  18
ATOM     18  C   UNL     1      -8.884  -4.649   1.429  0.00  0.00    +0.165 C 
BRANCH  18  19
ATOM     19  C   UNL     1      -8.488  -3.834   2.661  0.00  0.00    +0.013 C 
ATOM     20  C   UNL     1      -9.598  -2.834   2.990  0.00  0.00    +0.009 C 
BRANCH  19  21
ATOM     21  C   UNL     1      -8.279  -4.774   3.850  0.00  0.00    +0.002 C 
ATOM     22  C   UNL     1      -7.762  -3.975   5.048  0.00  0.00    +0.004 C 
ENDBRANCH  19  21
ENDBRANCH  18  19
BRANCH  18  23
ATOM     23  N   UNL     1     -10.087  -5.431   1.727  0.00  0.00    -0.178 NA
ATOM     24  H   UNL     1     -10.062  -6.116   2.414  0.00  0.00    +0.149 HD
BRANCH  23  25
ATOM     25  S   UNL     1     -11.488  -5.146   0.892  0.00  0.00    +0.059 S 
ATOM     26  O   UNL     1     -12.459  -6.046   1.409  0.00  0.00    -0.153 OA
ATOM     27  O   UNL     1     -11.680  -3.738   0.888  0.00  0.00    -0.153 OA
BRANCH  25  28
ATOM     28  C   UNL     1     -11.203  -5.620  -0.781  0.00  0.00    +0.105 A 
ATOM     29  C   UNL     1     -10.711  -4.698  -1.686  0.00  0.00    +0.029 A 
ATOM     30  C   UNL     1     -10.486  -5.069  -2.998  0.00  0.00    +0.017 A 
ATOM     31  C   UNL     1     -10.754  -6.364  -3.406  0.00  0.00    +0.018 A 
ATOM     32  C   UNL     1     -11.246  -7.286  -2.500  0.00  0.00    +0.017 A 
ATOM     33  C   UNL     1     -11.465  -6.915  -1.187  0.00  0.00    +0.029 A 
ATOM     34 BR   UNL     1     -10.448  -6.872  -5.202  0.00  0.00    -0.050 Br
ENDBRANCH  25  28
ENDBRANCH  23  25
ENDBRANCH  18  23
ENDBRANCH  11  18
TORSDOF 9
