REMARK  Name = ZINC39596060
REMARK  8 active torsions:
REMARK  status: ('A' for Active; 'I' for Inactive)
REMARK    1  A    between atoms: C_1  and  C_2
REMARK    2  A    between atoms: C_6  and  C_9
REMARK    3  A    between atoms: C_13  and  C_22
REMARK    4  A    between atoms: N_24  and  C_25
REMARK    5  A    between atoms: C_25  and  C_26
REMARK    6  A    between atoms: C_26  and  C_28
REMARK    7  A    between atoms: C_26  and  O_29
REMARK    8  A    between atoms: O_29  and  C_30
REMARK                            x       y       z     vdW  Elec       q    Type
REMARK                         _______ _______ _______ _____ _____    ______ ____
ROOT
ATOM      1  C   UNL     1       0.070  -2.865   2.469  0.00  0.00    +0.252 C 
ATOM      2  O   UNL     1       1.132  -3.165   2.980  0.00  0.00    -0.270 OA
ATOM      3  N   UNL     1      -1.087  -3.227   3.059  0.00  0.00    -0.296 N 
ATOM      4  C   UNL     1      -2.467  -2.962   2.589  0.00  0.00    +0.121 C 
ATOM      5  C   UNL     1      -3.243  -4.260   2.906  0.00  0.00    +0.100 C 
ATOM      6  C   UNL     1      -2.451  -4.922   4.046  0.00  0.00    -0.004 C 
ATOM      7  C   UNL     1      -1.265  -3.986   4.320  0.00  0.00    +0.115 C 
ATOM      8  C   UNL     1      -1.942  -6.293   3.608  0.00  0.00    -0.010 C 
ATOM      9  C   UNL     1      -1.207  -6.956   4.777  0.00  0.00    -0.082 C 
ATOM     10  N   UNL     1      -2.120  -7.092   5.918  0.00  0.00    +0.379 N 
ATOM     11  C   UNL     1      -2.531  -5.764   6.391  0.00  0.00    -0.082 C 
ATOM     12  C   UNL     1      -3.323  -5.051   5.291  0.00  0.00    -0.010 C 
ATOM     13  H   UNL     1      -2.935  -7.614   5.634  0.00  0.00    -0.086 HD
ATOM     14  H   UNL     1      -1.652  -7.583   6.665  0.00  0.00    -0.086 HD
ENDROOT
BRANCH   1  20
ATOM     15  C   UNL     1      -0.011   1.504   0.054  0.00  0.00    +0.047 C 
ATOM     16  C   UNL     1       0.008  -0.003   0.035  0.00  0.00    -0.014 A 
ATOM     17  C   UNL     1       0.005  -0.677  -1.172  0.00  0.00    +0.009 A 
ATOM     18  C   UNL     1       0.023  -2.060  -1.201  0.00  0.00    +0.039 A 
ATOM     19  C   UNL     1       0.044  -2.780  -0.021  0.00  0.00    +0.138 A 
ATOM     20  C   UNL     1       0.048  -2.105   1.205  0.00  0.00    +0.107 A 
ATOM     21  C   UNL     1       0.036  -0.706   1.224  0.00  0.00    +0.141 A 
ATOM     22  F   UNL     1       0.045  -0.045   2.403  0.00  0.00    -0.204 F 
ATOM     23  F   UNL     1       0.060  -4.130  -0.051  0.00  0.00    -0.205 F 
ENDBRANCH   1  20
BRANCH   5  24
ATOM     24  C   UNL     1      -3.279  -5.158   1.697  0.00  0.00    +0.218 C 
ATOM     25  O   UNL     1      -2.412  -5.074   0.853  0.00  0.00    -0.275 OA
ATOM     26  N   UNL     1      -4.274  -6.056   1.554  0.00  0.00    -0.312 N 
ATOM     27  H   UNL     1      -4.967  -6.123   2.229  0.00  0.00    +0.149 HD
BRANCH  26  28
ATOM     28  C   UNL     1      -4.309  -6.929   0.378  0.00  0.00    +0.148 C 
BRANCH  28  29
ATOM     29  C   UNL     1      -5.531  -7.846   0.460  0.00  0.00    +0.187 C 
ATOM     30  C   UNL     1      -5.567  -8.758  -0.768  0.00  0.00    +0.053 C 
BRANCH  29  31
ATOM     31  O   UNL     1      -5.450  -8.643   1.643  0.00  0.00    -0.488 OA
BRANCH  31  32
ATOM     32  C   UNL     1      -6.620  -9.109   2.155  0.00  0.00    +0.121 A 
ATOM     33  C   UNL     1      -6.628  -9.787   3.365  0.00  0.00    +0.048 A 
ATOM     34  C   UNL     1      -7.818 -10.259   3.883  0.00  0.00    +0.042 A 
ATOM     35  C   UNL     1      -9.003 -10.057   3.196  0.00  0.00    +0.124 A 
ATOM     36  C   UNL     1      -8.996  -9.380   1.988  0.00  0.00    +0.042 A 
ATOM     37  C   UNL     1      -7.809  -8.901   1.470  0.00  0.00    +0.048 A 
ATOM     38  F   UNL     1     -10.166 -10.520   3.704  0.00  0.00    -0.205 F 
ENDBRANCH  31  32
ENDBRANCH  29  31
ENDBRANCH  28  29
ENDBRANCH  26  28
ENDBRANCH   5  24
TORSDOF 6
