REMARK  Name = ZINC12644012
REMARK  6 active torsions:
REMARK  status: ('A' for Active; 'I' for Inactive)
REMARK    1  A    between atoms: C_3  and  N_34
REMARK    2  A    between atoms: C_6  and  N_7
REMARK    3  A    between atoms: C_8  and  C_10
REMARK    4  A    between atoms: C_10  and  N_70
REMARK    5  A    between atoms: C_18  and  N_20
REMARK    6  A    between atoms: N_23  and  C_24
REMARK                            x       y       z     vdW  Elec       q    Type
REMARK                         _______ _______ _______ _____ _____    ______ ____
ROOT
ATOM      1  C   UNL     1      -2.933   4.520   7.332  0.00  0.00    -0.066 C 
ATOM      2  C   UNL     1      -3.569   4.505   5.923  0.00  0.00    -0.017 C 
ATOM      3  C   UNL     1      -3.745   3.010   5.585  0.00  0.00    -0.017 C 
ATOM      4  C   UNL     1      -3.199   2.257   6.820  0.00  0.00    -0.066 C 
ATOM      5  C   UNL     1      -1.692   2.040   6.610  0.00  0.00    +0.007 C 
ATOM      6  C   UNL     1      -1.059   3.360   6.160  0.00  0.00    +0.071 C 
ATOM      7  C   UNL     1      -1.407   4.467   7.159  0.00  0.00    +0.007 C 
ATOM      8  N   UNL     1      -3.333   3.229   7.899  0.00  0.00    +0.389 N 
ATOM      9  H   UNL     1      -2.715   2.978   8.679  0.00  0.00    -0.080 HD
ENDROOT
BRANCH   6  10
ATOM     10  N   UNL     1      -1.572   3.720   4.836  0.00  0.00    -0.297 N 
ATOM     11  C   UNL     1      -0.722   3.856   3.798  0.00  0.00    +0.300 C 
ATOM     12  O   UNL     1       0.470   3.679   3.961  0.00  0.00    -0.253 OA
ATOM     13  N   UNL     1      -1.194   4.187   2.580  0.00  0.00    -0.294 N 
ATOM     14  H   UNL     1      -2.522   3.861   4.706  0.00  0.00    +0.151 HD
ATOM     15  H   UNL     1      -2.145   4.328   2.450  0.00  0.00    +0.151 HD
BRANCH  13  16
ATOM     16  C   UNL     1      -0.271   4.334   1.452  0.00  0.00    +0.037 C 
ATOM     17  C   UNL     1       0.463   3.012   1.217  0.00  0.00    +0.029 C 
ATOM     18  C   UNL     1       1.427   3.166   0.039  0.00  0.00    -0.008 C 
ATOM     19  C   UNL     1       0.640   3.543  -1.218  0.00  0.00    +0.007 C 
ATOM     20  C   UNL     1      -0.093   4.865  -0.983  0.00  0.00    -0.008 C 
ATOM     21  C   UNL     1      -1.058   4.711   0.195  0.00  0.00    +0.029 C 
ATOM     22  C   UNL     1       0.924   5.964  -0.669  0.00  0.00    +0.007 C 
ATOM     23  C   UNL     1       1.710   5.587   0.588  0.00  0.00    -0.008 C 
ATOM     24  C   UNL     1       2.444   4.265   0.353  0.00  0.00    +0.007 C 
ATOM     25  C   UNL     1       0.746   5.434   1.766  0.00  0.00    +0.029 C 
ENDBRANCH  13  16
ENDBRANCH   6  10
BRANCH   8  26
ATOM     26  C   UNL     1      -4.748   3.288   8.392  0.00  0.00    +0.020 C 
BRANCH  26  28
ATOM     27  N   UNL     1      -6.292   1.902   9.738  0.00  0.00    -0.287 N 
ATOM     28  C   UNL     1      -5.062   2.063   9.212  0.00  0.00    +0.201 C 
ATOM     29  O   UNL     1      -4.208   1.222   9.398  0.00  0.00    -0.278 OA
ATOM     30  H   UNL     1      -6.997   2.533   9.526  0.00  0.00    +0.155 HD
BRANCH  27  36
ATOM     31  C   UNL     1      -7.800   0.213  10.580  0.00  0.00    +0.025 A 
ATOM     32  C   UNL     1      -8.052  -0.855  11.420  0.00  0.00    +0.034 A 
ATOM     33  C   UNL     1      -7.067  -1.308  12.278  0.00  0.00    +0.126 A 
ATOM     34  C   UNL     1      -5.826  -0.699  12.296  0.00  0.00    +0.034 A 
ATOM     35  C   UNL     1      -5.566   0.365  11.455  0.00  0.00    +0.025 A 
ATOM     36  C   UNL     1      -6.553   0.823  10.591  0.00  0.00    +0.033 A 
BRANCH  33  37
ATOM     37  N   UNL     1      -7.343  -2.448  13.181  0.00  0.00    +0.056 N 
ATOM     38  O   UNL     1      -6.477  -2.849  13.938  0.00  0.00    -0.126 OA
ATOM     39  O   UNL     1      -8.436  -2.986  13.167  0.00  0.00    -0.126 OA
ENDBRANCH  33  37
ENDBRANCH  27  36
ENDBRANCH  26  28
ENDBRANCH   8  26
TORSDOF 6
