REMARK  Name = ZINC11286540
REMARK  8 active torsions:
REMARK  status: ('A' for Active; 'I' for Inactive)
REMARK    1  A    between atoms: C_1  and  C_2
REMARK    2  A    between atoms: N_16  and  C_17
REMARK    3  A    between atoms: C_17  and  C_18
REMARK    4  A    between atoms: N_20  and  C_21
REMARK    5  A    between atoms: N_20  and  C_26
REMARK    6  A    between atoms: C_21  and  C_22
REMARK    7  A    between atoms: C_22  and  C_23
REMARK    8  A    between atoms: C_26  and  C_27
REMARK                            x       y       z     vdW  Elec       q    Type
REMARK                         _______ _______ _______ _____ _____    ______ ____
ROOT
ATOM      1  C   UNL     1      -0.197   1.375   0.249  0.00  0.00    -0.008 C 
ATOM      2  C   UNL     1       0.023  -0.110  -0.050  0.00  0.00    -0.040 C 
ATOM      3  C   UNL     1      -1.310  -0.811  -0.085  0.00  0.00    -0.054 A 
ATOM      4  C   UNL     1      -2.380  -0.171  -0.691  0.00  0.00    +0.051 A 
ATOM      5  C   UNL     1      -3.622  -0.782  -0.750  0.00  0.00    +0.162 A 
ATOM      6  C   UNL     1      -3.794  -2.046  -0.198  0.00  0.00    +0.162 A 
ATOM      7  C   UNL     1      -2.723  -2.680   0.410  0.00  0.00    +0.053 A 
ATOM      8  C   UNL     1      -1.484  -2.063   0.468  0.00  0.00    -0.038 A 
ATOM      9  C   UNL     1      -0.347  -2.779   1.146  0.00  0.00    -0.019 C 
ATOM     10  C   UNL     1      -0.348  -4.263   0.734  0.00  0.00    +0.010 C 
ATOM     11  C   UNL     1       0.066  -5.014   2.025  0.00  0.00    +0.001 C 
ATOM     12  C   UNL     1      -0.649  -4.206   3.136  0.00  0.00    +0.001 C 
ATOM     13  C   UNL     1      -0.537  -2.739   2.670  0.00  0.00    +0.010 C 
ATOM     14  C   UNL     1       0.987  -2.140   0.769  0.00  0.00    -0.066 C 
ATOM     15  N   UNL     1       0.886  -0.688   0.984  0.00  0.00    +0.390 N 
ATOM     16  O   UNL     1      -5.001  -2.672  -0.254  0.00  0.00    -0.485 OA
ATOM     17  C   UNL     1      -6.139  -1.851  -0.539  0.00  0.00    +0.270 C 
ATOM     18  C   UNL     1      -5.788  -0.936  -1.719  0.00  0.00    +0.270 C 
ATOM     19  O   UNL     1      -4.660  -0.136  -1.346  0.00  0.00    -0.485 OA
ATOM     20  H   UNL     1       0.489  -0.507   1.894  0.00  0.00    -0.080 HD
ENDROOT
BRANCH  15  21
ATOM     21  C   UNL     1       2.223  -0.085   0.900  0.00  0.00    +0.020 C 
BRANCH  21  22
ATOM     22  C   UNL     1       3.068  -0.577   2.047  0.00  0.00    +0.199 C 
ATOM     23  O   UNL     1       2.575  -1.273   2.909  0.00  0.00    -0.278 OA
ATOM     24  N   UNL     1       4.372  -0.243   2.115  0.00  0.00    -0.298 N 
BRANCH  24  25
ATOM     25  C   UNL     1       4.968   0.599   1.074  0.00  0.00    +0.117 C 
BRANCH  25  26
ATOM     26  C   UNL     1       4.834   2.071   1.469  0.00  0.00    +0.114 C 
BRANCH  26  27
ATOM     27  C   UNL     1       5.447   2.936   0.398  0.00  0.00    +0.212 C 
ATOM     28  O   UNL     1       5.942   2.425  -0.584  0.00  0.00    -0.276 OA
ATOM     29  N   UNL     1       5.444   4.277   0.532  0.00  0.00    -0.329 N 
ATOM     30  H   UNL     1       5.048   4.685   1.317  0.00  0.00    +0.145 HD
ATOM     31  H   UNL     1       5.839   4.834  -0.158  0.00  0.00    +0.145 HD
ENDBRANCH  26  27
ENDBRANCH  25  26
ENDBRANCH  24  25
BRANCH  24  32
ATOM     32  C   UNL     1       5.193  -0.721   3.230  0.00  0.00    +0.142 C 
BRANCH  32  33
ATOM     33  C   UNL     1       5.811  -2.046   2.866  0.00  0.00    -0.030 A 
ATOM     34  C   UNL     1       5.143  -3.222   3.151  0.00  0.00    +0.005 A 
ATOM     35  C   UNL     1       5.710  -4.438   2.817  0.00  0.00    +0.000 A 
ATOM     36  C   UNL     1       6.945  -4.478   2.199  0.00  0.00    +0.000 A 
ATOM     37  C   UNL     1       7.614  -3.302   1.914  0.00  0.00    +0.000 A 
ATOM     38  C   UNL     1       7.045  -2.086   2.243  0.00  0.00    +0.005 A 
ENDBRANCH  32  33
ENDBRANCH  24  32
ENDBRANCH  21  22
ENDBRANCH  15  21
TORSDOF 7
