REMARK  Name = ZINC12468091
REMARK  7 active torsions:
REMARK  status: ('A' for Active; 'I' for Inactive)
REMARK    1  A    between atoms: C_1  and  O_2
REMARK    2  A    between atoms: O_2  and  C_3
REMARK    3  A    between atoms: C_6  and  C_10
REMARK    4  A    between atoms: C_10  and  N_63
REMARK    5  A    between atoms: C_16  and  C_18
REMARK    6  A    between atoms: C_18  and  C_19
REMARK    7  A    between atoms: N_21  and  C_22
REMARK                            x       y       z     vdW  Elec       q    Type
REMARK                         _______ _______ _______ _____ _____    ______ ____
ROOT
ATOM      1  C   UNL     1       1.045   2.545   2.128  0.00  0.00    -0.058 C 
ATOM      2  C   UNL     1       1.102   4.061   1.936  0.00  0.00    +0.085 C 
ATOM      3  N   UNL     1       0.895   4.397   0.530  0.00  0.00    -0.318 N 
ATOM      4  C   UNL     1       1.030   3.506  -0.458  0.00  0.00    +0.200 C 
ATOM      5  O   UNL     1       0.865   3.876  -1.601  0.00  0.00    -0.278 OA
ATOM      6  C   UNL     1       1.384   2.066  -0.211  0.00  0.00    +0.028 C 
ATOM      7  H   UNL     1       0.645   5.306   0.303  0.00  0.00    +0.149 HD
ATOM      8  N   UNL     1       1.952   1.924   1.143  0.00  0.00    +0.391 N 
ATOM      9  H   UNL     1       2.861   2.401   1.177  0.00  0.00    -0.080 HD
ENDROOT
BRANCH   8  10
ATOM     10  C   UNL     1       2.147   0.492   1.462  0.00  0.00    -0.039 C 
BRANCH  10  14
ATOM     11  C   UNL     1       4.268   0.171   5.161  0.00  0.00    +0.123 A 
ATOM     12  C   UNL     1       2.909  -0.108   5.111  0.00  0.00    +0.046 A 
ATOM     13  C   UNL     1       2.227  -0.004   3.914  0.00  0.00    +0.008 A 
ATOM     14  C   UNL     1       2.895   0.379   2.766  0.00  0.00    -0.028 A 
ATOM     15  C   UNL     1       4.252   0.652   2.811  0.00  0.00    +0.128 A 
ATOM     16  C   UNL     1       4.938   0.554   4.009  0.00  0.00    +0.084 A 
ATOM     17  F   UNL     1       4.904   1.020   1.687  0.00  0.00    -0.205 F 
BRANCH  11  19
ATOM     18  C   UNL     1       6.337   0.371   6.314  0.00  0.00    +0.277 C 
ATOM     19  O   UNL     1       4.941   0.068   6.337  0.00  0.00    -0.495 OA
ENDBRANCH  11  19
ENDBRANCH  10  14
ENDBRANCH   8  10
BRANCH   6  20
ATOM     20  C   UNL     1       2.425   1.616  -1.238  0.00  0.00    +0.089 C 
BRANCH  20  21
ATOM     21  C   UNL     1       3.682   2.430  -1.069  0.00  0.00    +0.212 C 
ATOM     22  O   UNL     1       3.775   3.218  -0.151  0.00  0.00    -0.276 OA
ATOM     23  N   UNL     1       4.702   2.283  -1.937  0.00  0.00    -0.312 N 
ATOM     24  H   UNL     1       4.627   1.653  -2.671  0.00  0.00    +0.149 HD
BRANCH  23  25
ATOM     25  C   UNL     1       5.924   3.074  -1.773  0.00  0.00    +0.079 C 
ATOM     26  C   UNL     1       5.743   4.437  -2.444  0.00  0.00    +0.010 C 
ATOM     27  C   UNL     1       7.019   5.264  -2.272  0.00  0.00    +0.009 C 
ATOM     28  C   UNL     1       8.194   4.529  -2.920  0.00  0.00    -0.010 C 
ATOM     29  C   UNL     1       7.911   4.330  -4.411  0.00  0.00    +0.007 C 
ATOM     30  C   UNL     1       6.635   3.503  -4.582  0.00  0.00    -0.010 C 
ATOM     31  C   UNL     1       5.460   4.238  -3.934  0.00  0.00    +0.009 C 
ATOM     32  C   UNL     1       6.817   2.140  -3.911  0.00  0.00    +0.009 C 
ATOM     33  C   UNL     1       7.099   2.339  -2.421  0.00  0.00    +0.010 C 
ATOM     34  C   UNL     1       8.375   3.166  -2.249  0.00  0.00    +0.009 C 
ENDBRANCH  23  25
ENDBRANCH  20  21
ENDBRANCH   6  20
TORSDOF 6
