REMARK  Name = ZINC42015699
REMARK  3 active torsions:
REMARK  status: ('A' for Active; 'I' for Inactive)
REMARK    1  A    between atoms: C_5  and  N_7
REMARK    2  A    between atoms: C_8  and  C_12
REMARK    3  A    between atoms: C_14  and  N_20
REMARK                            x       y       z     vdW  Elec       q    Type
REMARK                         _______ _______ _______ _____ _____    ______ ____
ROOT
ATOM      1  N   UNL     1       1.236  -2.083  -0.021  0.00  0.00    -0.190 N 
ATOM      2  C   UNL     1       0.171  -2.929   0.072  0.00  0.00    +0.187 A 
ATOM      3  N   UNL     1       0.651  -4.155   0.020  0.00  0.00    -0.108 NA
ATOM      4  N   UNL     1       1.929  -4.133  -0.098  0.00  0.00    -0.022 NA
ATOM      5  N   UNL     1       2.360  -2.919  -0.136  0.00  0.00    -0.039 NA
ENDROOT
BRANCH   2   6
ATOM      6  C   UNL     1      -1.252  -2.545   0.207  0.00  0.00    +0.024 A 
ATOM      7  C   UNL     1      -2.178  -3.459   0.708  0.00  0.00    +0.036 A 
ATOM      8  C   UNL     1      -3.509  -3.093   0.832  0.00  0.00    +0.045 A 
ATOM      9  C   UNL     1      -3.917  -1.817   0.456  0.00  0.00    +0.080 A 
ATOM     10  C   UNL     1      -2.998  -0.910  -0.041  0.00  0.00    +0.062 A 
ATOM     11  C   UNL     1      -1.668  -1.266  -0.162  0.00  0.00    +0.033 A 
ATOM     12 CL   UNL     1      -3.515   0.680  -0.508  0.00  0.00    -0.082 Cl
ATOM     13 CL   UNL     1      -5.585  -1.361   0.612  0.00  0.00    -0.080 Cl
BRANCH   8  14
ATOM     14  N   UNL     1      -4.441  -4.006   1.333  0.00  0.00    -0.357 N 
ATOM     15  H   UNL     1      -4.157  -4.895   1.594  0.00  0.00    +0.142 HD
ATOM     16  H   UNL     1      -5.373  -3.749   1.419  0.00  0.00    +0.142 HD
ENDBRANCH   8  14
ENDBRANCH   2   6
BRANCH   1  21
ATOM     17  C   UNL     1       0.629   1.380   1.067  0.00  0.00    +0.002 A 
ATOM     18  C   UNL     1       1.170   2.087   0.009  0.00  0.00    +0.003 A 
ATOM     19  C   UNL     1       1.733   1.415  -1.060  0.00  0.00    +0.040 A 
ATOM     20  C   UNL     1       1.757   0.032  -1.074  0.00  0.00    +0.149 A 
ATOM     21  C   UNL     1       1.214  -0.681  -0.011  0.00  0.00    +0.104 A 
ATOM     22  C   UNL     1       0.650  -0.002   1.060  0.00  0.00    +0.031 A 
ATOM     23  F   UNL     1       2.307  -0.625  -2.119  0.00  0.00    -0.203 F 
ENDBRANCH   1  21
TORSDOF 3
