REMARK  Name = ZINC66924107
REMARK  12 active torsions:
REMARK  status: ('A' for Active; 'I' for Inactive)
REMARK    1  A    between atoms: C_1  and  C_2
REMARK    2  A    between atoms: C_2  and  C_3
REMARK    3  A    between atoms: C_2  and  C_4
REMARK    4  A    between atoms: N_6  and  C_7
REMARK    5  A    between atoms: C_7  and  C_9
REMARK    6  A    between atoms: C_7  and  C_20
REMARK    7  A    between atoms: C_9  and  C_10
REMARK    8  A    between atoms: N_22  and  C_23
REMARK    9  A    between atoms: C_23  and  C_24
REMARK   10  A    between atoms: C_24  and  N_25
REMARK   11  A    between atoms: N_25  and  C_26
REMARK   12  A    between atoms: N_25  and  C_27
REMARK                            x       y       z     vdW  Elec       q    Type
REMARK                         _______ _______ _______ _____ _____    ______ ____
ROOT
ATOM      1  C   UNL     1       0.986  -0.676   3.640  0.00  0.00    +0.163 C 
ENDROOT
BRANCH   1   4
ATOM      2  C   UNL     1       0.731  -0.503   1.223  0.00  0.00    +0.216 C 
ATOM      3  O   UNL     1       1.725  -1.187   1.099  0.00  0.00    -0.276 OA
ATOM      4  N   UNL     1       0.278  -0.191   2.453  0.00  0.00    -0.303 N 
ATOM      5  H   UNL     1      -0.517   0.356   2.553  0.00  0.00    +0.149 HD
BRANCH   2   7
ATOM      6  C   UNL     1      -0.019   1.526   0.010  0.00  0.00    +0.017 C 
ATOM      7  C   UNL     1       0.002  -0.004   0.002  0.00  0.00    +0.069 C 
ATOM      8  C   UNL     1       0.718  -0.497  -1.257  0.00  0.00    +0.017 C 
ENDBRANCH   2   7
ENDBRANCH   1   4
BRANCH   1   9
ATOM      9  C   UNL     1       2.400  -0.154   3.629  0.00  0.00    +0.234 C 
ATOM     10  O   UNL     1       2.896   0.232   2.592  0.00  0.00    -0.274 OA
ATOM     11  N   UNL     1       3.114  -0.117   4.772  0.00  0.00    -0.316 N 
ATOM     12  H   UNL     1       2.717  -0.426   5.602  0.00  0.00    +0.149 HD
BRANCH  11  13
ATOM     13  C   UNL     1       4.488   0.390   4.762  0.00  0.00    +0.086 C 
BRANCH  13  14
ATOM     14  C   UNL     1       5.067   0.324   6.177  0.00  0.00    -0.060 C 
BRANCH  14  15
ATOM     15  N   UNL     1       6.445   0.832   6.166  0.00  0.00    +0.381 N 
ATOM     16  C   UNL     1       6.438   2.259   5.815  0.00  0.00    -0.096 C 
ATOM     17  H   UNL     1       6.987   0.321   5.486  0.00  0.00    -0.082 HD
BRANCH  15  18
ATOM     18  C   UNL     1       7.041   0.658   7.497  0.00  0.00    -0.069 C 
ATOM     19  C   UNL     1       8.401  -0.038   7.577  0.00  0.00    -0.017 C 
ATOM     20  C   UNL     1       7.140  -0.766   8.046  0.00  0.00    -0.017 C 
ENDBRANCH  15  18
ENDBRANCH  14  15
ENDBRANCH  13  14
ENDBRANCH  11  13
ENDBRANCH   1   9
BRANCH   1  21
ATOM     21  C   UNL     1       1.007  -2.206   3.631  0.00  0.00    +0.069 C 
BRANCH  21  22
ATOM     22  C   UNL     1      -0.400  -2.728   3.766  0.00  0.00    -0.020 A 
ATOM     23  C   UNL     1      -1.011  -3.092   4.904  0.00  0.00    +0.087 A 
ATOM     24  N   UNL     1      -2.285  -3.515   4.636  0.00  0.00    -0.360 N 
ATOM     25  H   UNL     1      -2.920  -3.827   5.299  0.00  0.00    +0.165 HD
ATOM     26  C   UNL     1      -2.530  -3.431   3.283  0.00  0.00    +0.047 A 
ATOM     27  C   UNL     1      -1.363  -2.929   2.680  0.00  0.00    +0.003 A 
ATOM     28  C   UNL     1      -1.322  -2.731   1.299  0.00  0.00    +0.010 A 
ATOM     29  C   UNL     1      -2.420  -3.024   0.539  0.00  0.00    +0.001 A 
ATOM     30  C   UNL     1      -3.575  -3.516   1.130  0.00  0.00    +0.002 A 
ATOM     31  C   UNL     1      -3.634  -3.727   2.490  0.00  0.00    +0.026 A 
ENDBRANCH  21  22
ENDBRANCH   1  21
TORSDOF 9
