REMARK  Name = ZINC38870033
REMARK  9 active torsions:
REMARK  status: ('A' for Active; 'I' for Inactive)
REMARK    1  A    between atoms: C_6  and  N_7
REMARK    2  A    between atoms: C_8  and  C_10
REMARK    3  A    between atoms: C_10  and  C_11
REMARK    4  A    between atoms: C_11  and  C_12
REMARK    5  A    between atoms: C_12  and  C_13
REMARK    6  A    between atoms: C_13  and  C_14
REMARK    7  A    between atoms: C_14  and  N_16
REMARK    8  A    between atoms: C_22  and  C_27
REMARK    9  A    between atoms: C_33  and  C_35
REMARK                            x       y       z     vdW  Elec       q    Type
REMARK                         _______ _______ _______ _____ _____    ______ ____
ROOT
ATOM      1  C   UNL     1      -4.852  -0.045   0.252  0.00  0.00    +0.010 C 
ENDROOT
BRANCH   1   2
ATOM      2  C   UNL     1      -3.722  -1.066   0.105  0.00  0.00    +0.096 C 
BRANCH   2   4
ATOM      3  N   UNL     1      -1.266  -1.044  -0.189  0.00  0.00    -0.285 N 
ATOM      4  C   UNL     1      -2.408  -0.343  -0.045  0.00  0.00    +0.217 C 
ATOM      5  O   UNL     1      -2.379   0.869  -0.035  0.00  0.00    -0.275 OA
ATOM      6  H   UNL     1      -1.298  -2.010  -0.273  0.00  0.00    +0.155 HD
BRANCH   3  12
ATOM      7  C   UNL     1       0.996  -0.862  -1.020  0.00  0.00    +0.025 A 
ATOM      8  C   UNL     1       2.203  -0.225  -1.060  0.00  0.00    +0.032 A 
ATOM      9  C   UNL     1       2.412   0.924  -0.292  0.00  0.00    +0.090 A 
ATOM     10  C   UNL     1       1.374   1.415   0.518  0.00  0.00    +0.068 A 
ATOM     11  C   UNL     1       0.152   0.758   0.551  0.00  0.00    +0.051 A 
ATOM     12  C   UNL     1      -0.035  -0.378  -0.218  0.00  0.00    +0.035 A 
ATOM     13  N   UNL     1       1.877   2.539   1.143  0.00  0.00    -0.335 N 
ATOM     14  H   UNL     1       1.404   3.109   1.770  0.00  0.00    +0.167 HD
ATOM     15  C   UNL     1       3.159   2.700   0.715  0.00  0.00    +0.213 A 
ATOM     16  N   UNL     1       3.472   1.756  -0.123  0.00  0.00    -0.224 NA
BRANCH  15  17
ATOM     17  C   UNL     1       4.081   3.810   1.149  0.00  0.00    +0.450 C 
ATOM     18  F   UNL     1       5.175   3.875   0.280  0.00  0.00    -0.163 F 
ATOM     19  F   UNL     1       3.391   5.027   1.122  0.00  0.00    -0.163 F 
ATOM     20  F   UNL     1       4.533   3.560   2.449  0.00  0.00    -0.163 F 
ENDBRANCH  15  17
ENDBRANCH   3  12
ENDBRANCH   2   4
ENDBRANCH   1   2
BRANCH   1  21
ATOM     21  C   UNL     1      -6.186  -0.779   0.404  0.00  0.00    +0.010 C 
BRANCH  21  22
ATOM     22  C   UNL     1      -7.316   0.242   0.551  0.00  0.00    +0.098 C 
BRANCH  22  23
ATOM     23  C   UNL     1      -8.630  -0.480   0.701  0.00  0.00    +0.237 C 
ATOM     24  O   UNL     1      -8.660  -1.696   0.692  0.00  0.00    -0.274 OA
BRANCH  23  25
ATOM     25  N   UNL     1      -9.758   0.212   0.844  0.00  0.00    -0.181 NA
ATOM     26  C   UNL     1     -10.521   0.028   1.923  0.00  0.00    +0.058 C 
ATOM     27  C   UNL     1     -11.742   0.824   2.089  0.00  0.00    +0.027 C 
ATOM     28  C   UNL     1     -12.524   0.654   3.169  0.00  0.00    +0.031 C 
ATOM     29  C   UNL     1     -12.144  -0.344   4.190  0.00  0.00    +0.082 C 
ATOM     30  N   UNL     1     -12.717  -0.696   5.304  0.00  0.00    -0.251 NA
ATOM     31  C   UNL     1     -11.915  -1.742   5.943  0.00  0.00    +0.295 C 
ATOM     32  N   UNL     1     -10.764  -1.988   5.064  0.00  0.00    -0.314 N 
ATOM     33  C   UNL     1     -10.907  -1.132   3.993  0.00  0.00    +0.056 C 
ATOM     34  C   UNL     1     -10.147  -0.931   2.883  0.00  0.00    +0.050 C 
ATOM     35  H   UNL     1     -10.047  -2.625   5.209  0.00  0.00    +0.148 HD
BRANCH  31  36
ATOM     36  C   UNL     1     -11.435  -1.269   7.316  0.00  0.00    +0.428 C 
ATOM     37  F   UNL     1     -12.541  -1.011   8.134  0.00  0.00    -0.167 F 
ATOM     38  F   UNL     1     -10.644  -2.263   7.902  0.00  0.00    -0.167 F 
ATOM     39  F   UNL     1     -10.681  -0.099   7.169  0.00  0.00    -0.167 F 
ENDBRANCH  31  36
ENDBRANCH  23  25
ENDBRANCH  22  23
ENDBRANCH  21  22
ENDBRANCH   1  21
TORSDOF 9
