REMARK  Name = ZINC63165325
REMARK  6 active torsions:
REMARK  status: ('A' for Active; 'I' for Inactive)
REMARK    1  A    between atoms: C_1  and  C_2
REMARK    2  A    between atoms: C_5  and  N_8
REMARK    3  A    between atoms: C_9  and  C_26
REMARK    4  A    between atoms: C_13  and  S_15
REMARK    5  A    between atoms: S_15  and  C_16
REMARK    6  A    between atoms: C_16  and  C_17
REMARK                            x       y       z     vdW  Elec       q    Type
REMARK                         _______ _______ _______ _____ _____    ______ ____
ROOT
ATOM      1  N   UNL     1       0.143  -4.100   0.067  0.00  0.00    -0.284 N 
ATOM      2  C   UNL     1       0.109  -4.994   1.238  0.00  0.00    +0.188 C 
ATOM      3  N   UNL     1       0.198  -6.377   0.717  0.00  0.00    -0.230 NA
ATOM      4  N   UNL     1      -0.291  -6.278  -0.667  0.00  0.00    -0.226 NA
ATOM      5  C   UNL     1       0.245  -4.971  -1.121  0.00  0.00    +0.217 C 
ATOM      6  H   UNL     1      -0.375  -7.005   1.259  0.00  0.00    +0.143 HD
ATOM      7  H   UNL     1      -1.300  -6.280  -0.695  0.00  0.00    +0.143 HD
ENDROOT
BRANCH   1  12
ATOM      8  C   UNL     1      -0.094   1.566   0.113  0.00  0.00    +0.044 C 
ATOM      9  C   UNL     1      -0.031   0.060   0.101  0.00  0.00    -0.050 A 
ATOM     10  C   UNL     1       0.187  -0.612  -1.088  0.00  0.00    +0.005 A 
ATOM     11  C   UNL     1       0.246  -1.992  -1.103  0.00  0.00    +0.023 A 
ATOM     12  C   UNL     1       0.085  -2.704   0.079  0.00  0.00    +0.033 A 
ATOM     13  C   UNL     1      -0.134  -2.026   1.271  0.00  0.00    +0.023 A 
ATOM     14  C   UNL     1      -0.185  -0.646   1.279  0.00  0.00    +0.005 A 
ENDBRANCH   1  12
BRANCH   2  15
ATOM     15  C   UNL     1       1.280  -4.705   2.143  0.00  0.00    -0.010 A 
ATOM     16  C   UNL     1       2.130  -3.653   1.858  0.00  0.00    +0.007 A 
ATOM     17  C   UNL     1       3.204  -3.388   2.687  0.00  0.00    +0.002 A 
ATOM     18  C   UNL     1       3.428  -4.175   3.801  0.00  0.00    +0.020 A 
ATOM     19  C   UNL     1       2.578  -5.227   4.086  0.00  0.00    +0.041 A 
ATOM     20  C   UNL     1       1.499  -5.489   3.260  0.00  0.00    +0.026 A 
ATOM     21 CL   UNL     1       2.858  -6.216   5.486  0.00  0.00    -0.084 Cl
ENDBRANCH   2  15
BRANCH   5  22
ATOM     22  S   UNL     1       1.976  -5.145  -1.634  0.00  0.00    -0.118 S 
BRANCH  22  23
ATOM     23  C   UNL     1       2.745  -6.075  -0.280  0.00  0.00    +0.119 C 
BRANCH  23  24
ATOM     24  C   UNL     1       4.191  -6.412  -0.648  0.00  0.00    +0.184 C 
ATOM     25  N   UNL     1       4.934  -5.182  -0.950  0.00  0.00    -0.363 N 
ATOM     26  C   UNL     1       5.345  -5.266  -2.182  0.00  0.00    +0.060 A 
ATOM     27  C   UNL     1       6.125  -4.362  -3.039  0.00  0.00    +0.027 A 
ATOM     28  C   UNL     1       6.405  -4.725  -4.306  0.00  0.00    +0.002 A 
ATOM     29  C   UNL     1       5.979  -5.947  -4.857  0.00  0.00    +0.002 A 
ATOM     30  C   UNL     1       5.259  -6.847  -4.159  0.00  0.00    +0.027 A 
ATOM     31  C   UNL     1       4.895  -6.559  -2.765  0.00  0.00    +0.060 A 
ATOM     32  N   UNL     1       4.223  -7.225  -1.870  0.00  0.00    -0.363 N 
ATOM     33  H   UNL     1       5.090  -4.442  -0.342  0.00  0.00    +0.162 HD
ATOM     34  H   UNL     1       3.818  -8.099  -1.989  0.00  0.00    +0.162 HD
ENDBRANCH  23  24
ENDBRANCH  22  23
ENDBRANCH   5  22
TORSDOF 5
