REMARK  Name = ZINC35523275
REMARK  8 active torsions:
REMARK  status: ('A' for Active; 'I' for Inactive)
REMARK    1  A    between atoms: C_1  and  C_2
REMARK    2  A    between atoms: N_8  and  C_9
REMARK    3  A    between atoms: C_9  and  C_10
REMARK    4  A    between atoms: C_10  and  C_11
REMARK    5  A    between atoms: C_11  and  N_12
REMARK    6  A    between atoms: C_13  and  C_15
REMARK    7  A    between atoms: C_15  and  N_16
REMARK    8  A    between atoms: C_24  and  C_26
REMARK                            x       y       z     vdW  Elec       q    Type
REMARK                         _______ _______ _______ _____ _____    ______ ____
ROOT
ATOM      1  N   UNL     1       8.142   0.477   5.344  0.00  0.00    +0.395 N 
ATOM      2  C   UNL     1       8.050   1.942   5.380  0.00  0.00    -0.055 C 
ATOM      3  C   UNL     1       9.425   2.558   5.092  0.00  0.00    +0.103 C 
ATOM      4  N   UNL     1      10.403   1.921   5.983  0.00  0.00    -0.353 N 
ATOM      5  C   UNL     1      11.654   2.341   6.295  0.00  0.00    +0.086 A 
ATOM      6  C   UNL     1      12.195   1.452   7.156  0.00  0.00    +0.019 A 
ATOM      7  C   UNL     1      11.235   0.443   7.382  0.00  0.00    +0.021 A 
ATOM      8  C   UNL     1      10.153   0.751   6.653  0.00  0.00    +0.009 A 
ATOM      9  C   UNL     1       8.855  -0.011   6.537  0.00  0.00    +0.014 C 
ATOM     10  H   UNL     1       8.643   0.194   4.515  0.00  0.00    -0.080 HD
ENDROOT
BRANCH   9  11
ATOM     11  C   UNL     1       9.141  -1.483   6.392  0.00  0.00    -0.020 A 
ATOM     12  C   UNL     1       9.235  -2.049   5.134  0.00  0.00    +0.008 A 
ATOM     13  C   UNL     1       9.498  -3.399   5.000  0.00  0.00    +0.039 A 
ATOM     14  C   UNL     1       9.666  -4.187   6.126  0.00  0.00    +0.126 A 
ATOM     15  C   UNL     1       9.571  -3.622   7.386  0.00  0.00    +0.077 A 
ATOM     16  C   UNL     1       9.314  -2.269   7.519  0.00  0.00    +0.128 A 
ATOM     17  F   UNL     1       9.227  -1.715   8.748  0.00  0.00    -0.205 F 
ATOM     18  F   UNL     1       9.921  -5.507   5.995  0.00  0.00    -0.205 F 
ENDBRANCH   9  11
BRANCH   1  19
ATOM     19  C   UNL     1       6.789  -0.096   5.316  0.00  0.00    +0.020 C 
BRANCH  19  21
ATOM     20  N   UNL     1       4.842  -0.112   3.791  0.00  0.00    -0.317 N 
ATOM     21  C   UNL     1       6.101   0.302   4.036  0.00  0.00    +0.196 C 
ATOM     22  O   UNL     1       6.680   0.995   3.227  0.00  0.00    -0.278 OA
ATOM     23  H   UNL     1       4.379  -0.666   4.439  0.00  0.00    +0.149 HD
BRANCH  20  24
ATOM     24  C   UNL     1       4.173   0.276   2.547  0.00  0.00    +0.102 C 
BRANCH  24  25
ATOM     25  C   UNL     1       2.764  -0.321   2.518  0.00  0.00    +0.000 C 
BRANCH  25  26
ATOM     26  C   UNL     1       2.066   0.083   1.218  0.00  0.00    -0.077 C 
BRANCH  26  33
ATOM     27  C   UNL     1      -0.019   1.526   0.010  0.00  0.00    -0.013 C 
ATOM     28  C   UNL     1       0.002  -0.004   0.002  0.00  0.00    -0.072 C 
ATOM     29  C   UNL     1      -1.434  -0.533   0.011  0.00  0.00    -0.016 C 
ATOM     30  C   UNL     1      -1.408  -2.064   0.003  0.00  0.00    -0.003 C 
ATOM     31  C   UNL     1      -0.600  -2.558   1.206  0.00  0.00    -0.019 C 
ATOM     32  C   UNL     1       0.805  -1.954   1.152  0.00  0.00    -0.078 C 
ATOM     33  N   UNL     1       0.713  -0.490   1.191  0.00  0.00    +0.381 N 
ATOM     34  H   UNL     1       0.213  -0.206   2.020  0.00  0.00    -0.081 HD
ENDBRANCH  26  33
ENDBRANCH  25  26
ENDBRANCH  24  25
ENDBRANCH  20  24
ENDBRANCH  19  21
ENDBRANCH   1  19
TORSDOF 7
