REMARK  Name = ZINC01640517
REMARK  6 active torsions:
REMARK  status: ('A' for Active; 'I' for Inactive)
REMARK    1  A    between atoms: C_4  and  N_7
REMARK    2  A    between atoms: C_17  and  C_18
REMARK    3  A    between atoms: C_17  and  N_62
REMARK    4  A    between atoms: C_18  and  C_19
REMARK    5  A    between atoms: C_19  and  C_20
REMARK    6  A    between atoms: C_20  and  C_25
REMARK                            x       y       z     vdW  Elec       q    Type
REMARK                         _______ _______ _______ _____ _____    ______ ____
ROOT
ATOM      1  N   UNL     1       3.568   2.069  -0.038  0.00  0.00    -0.248 N 
ATOM      2  C   UNL     1       4.790   1.521   0.034  0.00  0.00    +0.307 C 
ATOM      3  O   UNL     1       4.977   0.321   0.088  0.00  0.00    -0.252 OA
ATOM      4  N   UNL     1       5.787   2.417   0.040  0.00  0.00    -0.297 N 
ATOM      5  C   UNL     1       5.218   3.773  -0.036  0.00  0.00    +0.132 C 
ATOM      6  C   UNL     1       3.702   3.527  -0.095  0.00  0.00    +0.056 C 
ATOM      7  C   UNL     1       3.016   4.178   1.102  0.00  0.00    +0.009 C 
ATOM      8  C   UNL     1       1.505   3.951   1.004  0.00  0.00    -0.077 C 
ATOM      9  C   UNL     1       1.611   3.847  -1.416  0.00  0.00    -0.077 C 
ATOM     10  C   UNL     1       3.126   4.070  -1.399  0.00  0.00    +0.009 C 
ATOM     11  H   UNL     1       6.732   2.206   0.088  0.00  0.00    +0.150 HD
ATOM     12  N   UNL     1       1.012   4.544  -0.257  0.00  0.00    +0.380 N 
ATOM     13  H   UNL     1       1.284   5.534  -0.288  0.00  0.00    -0.082 HD
ENDROOT
BRANCH   1  17
ATOM     14  C   UNL     1      -0.027  -0.035  -0.107  0.00  0.00    +0.000 A 
ATOM     15  C   UNL     1       1.171  -0.720  -0.025  0.00  0.00    +0.002 A 
ATOM     16  C   UNL     1       2.365  -0.025  -0.002  0.00  0.00    +0.023 A 
ATOM     17  C   UNL     1       2.361   1.362  -0.062  0.00  0.00    +0.038 A 
ATOM     18  C   UNL     1       1.155   2.047  -0.144  0.00  0.00    +0.023 A 
ATOM     19  C   UNL     1      -0.035   1.346  -0.167  0.00  0.00    +0.002 A 
ENDBRANCH   1  17
BRANCH  12  20
ATOM     20  C   UNL     1      -0.461   4.450  -0.318  0.00  0.00    -0.079 C 
BRANCH  20  21
ATOM     21  C   UNL     1      -1.057   5.487   0.636  0.00  0.00    -0.013 C 
BRANCH  21  22
ATOM     22  C   UNL     1      -2.585   5.419   0.571  0.00  0.00    +0.068 C 
BRANCH  22  23
ATOM     23  C   UNL     1      -3.181   6.529   1.439  0.00  0.00    +0.197 C 
ATOM     24  O   UNL     1      -2.849   6.297   2.814  0.00  0.00    -0.342 OA
ATOM     25  C   UNL     1      -4.088   6.139   3.534  0.00  0.00    +0.191 C 
ATOM     26  C   UNL     1      -5.092   5.747   2.421  0.00  0.00    +0.191 C 
ATOM     27  O   UNL     1      -4.612   6.532   1.303  0.00  0.00    -0.342 OA
BRANCH  23  28
ATOM     28  C   UNL     1      -2.629   7.862   1.006  0.00  0.00    +0.011 A 
ATOM     29  C   UNL     1      -1.475   8.354   1.588  0.00  0.00    +0.011 A 
ATOM     30  C   UNL     1      -0.964   9.574   1.188  0.00  0.00    +0.039 A 
ATOM     31  C   UNL     1      -1.615  10.310   0.211  0.00  0.00    +0.123 A 
ATOM     32  C   UNL     1      -2.773   9.819  -0.367  0.00  0.00    +0.039 A 
ATOM     33  C   UNL     1      -3.279   8.595   0.031  0.00  0.00    +0.011 A 
ATOM     34  F   UNL     1      -1.120  11.505  -0.176  0.00  0.00    -0.205 F 
ENDBRANCH  23  28
ENDBRANCH  22  23
ENDBRANCH  21  22
ENDBRANCH  20  21
ENDBRANCH  12  20
TORSDOF 6
