REMARK  Name = ZINC26787040
REMARK  10 active torsions:
REMARK  status: ('A' for Active; 'I' for Inactive)
REMARK    1  A    between atoms: C_1  and  C_2
REMARK    2  A    between atoms: C_2  and  C_3
REMARK    3  A    between atoms: C_2  and  C_4
REMARK    4  A    between atoms: C_6  and  N_21
REMARK    5  A    between atoms: C_8  and  S_11
REMARK    6  A    between atoms: C_9  and  O_10
REMARK    7  A    between atoms: S_11  and  C_14
REMARK    8  A    between atoms: N_21  and  S_22
REMARK    9  A    between atoms: S_22  and  C_25
REMARK   10  A    between atoms: C_29  and  N_31
REMARK                            x       y       z     vdW  Elec       q    Type
REMARK                         _______ _______ _______ _____ _____    ______ ____
ROOT
ATOM      1  C   UNL     1      -1.852   3.627   2.831  0.00  0.00    +0.000 A 
ATOM      2  C   UNL     1      -2.356   2.668   3.687  0.00  0.00    +0.034 A 
ATOM      3  C   UNL     1      -2.147   1.321   3.422  0.00  0.00    +0.077 A 
ATOM      4  C   UNL     1      -1.430   0.940   2.295  0.00  0.00    +0.057 A 
ATOM      5  C   UNL     1      -0.927   1.900   1.439  0.00  0.00    +0.137 A 
ATOM      6  C   UNL     1      -1.132   3.245   1.708  0.00  0.00    +0.145 A 
ENDROOT
BRANCH   1   8
ATOM      7  C   UNL     1      -3.582   5.375   3.151  0.00  0.00    +0.012 C 
ATOM      8  C   UNL     1      -2.079   5.089   3.119  0.00  0.00    +0.017 C 
ATOM      9  C   UNL     1      -1.464   5.443   4.474  0.00  0.00    +0.012 C 
ENDBRANCH   1   8
BRANCH   5  10
ATOM     10  S   UNL     1      -0.017   1.417   0.010  0.00  0.00    +0.029 S 
ATOM     11  O   UNL     1       0.002  -0.004   0.002  0.00  0.00    -0.164 OA
ATOM     12  O   UNL     1       1.172   2.195   0.003  0.00  0.00    -0.164 OA
BRANCH  10  13
ATOM     13  C   UNL     1      -0.954   1.915  -1.397  0.00  0.00    +0.094 A 
ATOM     14  C   UNL     1      -1.879   1.052  -1.952  0.00  0.00    +0.029 A 
ATOM     15  C   UNL     1      -2.618   1.444  -3.052  0.00  0.00    +0.022 A 
ATOM     16  C   UNL     1      -2.424   2.698  -3.604  0.00  0.00    +0.041 A 
ATOM     17  C   UNL     1      -1.493   3.560  -3.051  0.00  0.00    +0.022 A 
ATOM     18  C   UNL     1      -0.759   3.168  -1.948  0.00  0.00    +0.029 A 
ATOM     19 CL   UNL     1      -3.347   3.190  -4.990  0.00  0.00    -0.084 Cl
ENDBRANCH  10  13
ENDBRANCH   5  10
BRANCH   6  20
ATOM     20  O   UNL     1      -0.631   4.191   0.869  0.00  0.00    -0.505 OA
ATOM     21  H   UNL     1      -0.060   3.889  -0.022  0.00  0.00    +0.292 HD
ENDBRANCH   6  20
BRANCH   3  22
ATOM     22  N   UNL     1      -2.658   0.349   4.289  0.00  0.00    -0.098 NA
BRANCH  22  23
ATOM     23  S   UNL     1      -1.710  -0.928   4.751  0.00  0.00    +0.092 S 
ATOM     24  O   UNL     1      -2.492  -1.713   5.640  0.00  0.00    -0.148 OA
ATOM     25  O   UNL     1      -1.139  -1.462   3.564  0.00  0.00    -0.148 OA
BRANCH  23  26
ATOM     26  C   UNL     1      -0.378  -0.271   5.699  0.00  0.00    +0.113 A 
ATOM     27  C   UNL     1      -0.505  -0.134   7.069  0.00  0.00    +0.029 A 
ATOM     28  C   UNL     1       0.540   0.380   7.813  0.00  0.00    +0.004 A 
ATOM     29  C   UNL     1       1.713   0.759   7.186  0.00  0.00    +0.033 A 
ATOM     30  C   UNL     1       1.841   0.622   5.817  0.00  0.00    +0.128 A 
ATOM     31  C   UNL     1       0.797   0.102   5.074  0.00  0.00    +0.061 A 
BRANCH  30  32
ATOM     32  N   UNL     1       3.097   1.026   5.147  0.00  0.00    +0.056 N 
ATOM     33  O   UNL     1       4.018   1.480   5.802  0.00  0.00    -0.126 OA
ATOM     34  O   UNL     1       3.210   0.906   3.940  0.00  0.00    -0.126 OA
ENDBRANCH  30  32
ENDBRANCH  23  26
ENDBRANCH  22  23
ENDBRANCH   3  22
TORSDOF 8
