REMARK  Name = ZINC37129243
REMARK  5 active torsions:
REMARK  status: ('A' for Active; 'I' for Inactive)
REMARK    1  A    between atoms: C_1  and  C_2
REMARK    2  A    between atoms: C_2  and  C_4
REMARK    3  A    between atoms: C_2  and  N_11
REMARK    4  A    between atoms: C_9  and  O_10
REMARK    5  A    between atoms: N_11  and  C_12
REMARK                            x       y       z     vdW  Elec       q    Type
REMARK                         _______ _______ _______ _____ _____    ______ ____
ROOT
ATOM      1  N   UNL     1       0.660  -0.699   1.105  0.00  0.00    -0.334 N 
ATOM      2  H   UNL     1       1.457  -0.305   1.493  0.00  0.00    +0.147 HD
ENDROOT
BRANCH   1   3
ATOM      3  C   UNL     1       0.247  -1.972   1.502  0.00  0.00    +0.075 A 
ATOM      4  C   UNL     1       0.728  -2.515   2.655  0.00  0.00    +0.065 A 
ATOM      5  C   UNL     1       0.336  -3.783   3.079  0.00  0.00    +0.044 A 
ATOM      6  C   UNL     1      -0.541  -4.530   2.365  0.00  0.00    +0.071 A 
ATOM      7  C   UNL     1      -1.086  -4.030   1.150  0.00  0.00    +0.120 A 
ATOM      8  C   UNL     1      -0.683  -2.702   0.704  0.00  0.00    +0.123 A 
ATOM      9  N   UNL     1      -1.260  -2.335  -0.440  0.00  0.00    -0.189 NA
ATOM     10  S   UNL     1      -2.206  -3.566  -0.864  0.00  0.00    +0.117 S 
ATOM     11  N   UNL     1      -1.952  -4.620   0.325  0.00  0.00    -0.189 NA
ATOM     12 CL   UNL     1      -0.999  -6.105   2.934  0.00  0.00    -0.081 Cl
ATOM     13 CL   UNL     1       1.855  -1.608   3.615  0.00  0.00    -0.082 Cl
ENDBRANCH   1   3
BRANCH   1  15
ATOM     14  C   UNL     1       0.021   1.542   0.365  0.00  0.00    +0.033 C 
ATOM     15  C   UNL     1      -0.109   0.041   0.102  0.00  0.00    +0.101 C 
BRANCH  15  16
ATOM     16  C   UNL     1       0.421  -0.276  -1.273  0.00  0.00    +0.014 A 
ATOM     17  C   UNL     1       1.729  -0.693  -1.430  0.00  0.00    +0.009 A 
ATOM     18  C   UNL     1       2.216  -0.984  -2.691  0.00  0.00    +0.001 A 
ATOM     19  C   UNL     1       1.396  -0.858  -3.797  0.00  0.00    +0.004 A 
ATOM     20  C   UNL     1       0.088  -0.442  -3.645  0.00  0.00    +0.046 A 
ATOM     21  C   UNL     1      -0.405  -0.155  -2.381  0.00  0.00    +0.122 A 
BRANCH  21  22
ATOM     22  O   UNL     1      -1.694   0.249  -2.228  0.00  0.00    -0.506 OA
ATOM     23  H   UNL     1      -1.814   1.207  -2.280  0.00  0.00    +0.292 HD
ENDBRANCH  21  22
ENDBRANCH  15  16
ENDBRANCH   1  15
TORSDOF 4
