REMARK  Name = ZINC00720493
REMARK  2 active torsions:
REMARK  status: ('A' for Active; 'I' for Inactive)
REMARK    1  A    between atoms: C_5  and  C_7
REMARK    2  A    between atoms: C_12  and  C_22
REMARK                            x       y       z     vdW  Elec       q    Type
REMARK                         _______ _______ _______ _____ _____    ______ ____
ROOT
ATOM      1  C   UNL     1      -1.319   2.161   0.138  0.00  0.00    +0.033 C 
ATOM      2  C   UNL     1      -2.146   1.777   1.364  0.00  0.00    +0.059 C 
ATOM      3  C   UNL     1      -3.487   2.489   1.329  0.00  0.00    +0.017 C 
ATOM      4  C   UNL     1      -4.083   2.762   0.155  0.00  0.00    +0.036 C 
ATOM      5  C   UNL     1      -5.412   3.457  -0.024  0.00  0.00    +0.136 C 
ATOM      6  N   UNL     1      -6.181   3.606   1.194  0.00  0.00    -0.331 N 
ATOM      7  C   UNL     1      -5.719   4.399   2.242  0.00  0.00    +0.049 A 
ATOM      8  C   UNL     1      -6.389   5.548   2.631  0.00  0.00    +0.025 A 
ATOM      9  C   UNL     1      -5.866   6.329   3.647  0.00  0.00    +0.002 A 
ATOM     10  C   UNL     1      -4.683   5.971   4.268  0.00  0.00    +0.002 A 
ATOM     11  C   UNL     1      -4.020   4.814   3.893  0.00  0.00    +0.025 A 
ATOM     12  C   UNL     1      -4.554   4.021   2.893  0.00  0.00    +0.052 A 
ATOM     13  N   UNL     1      -4.003   2.793   2.547  0.00  0.00    -0.316 N 
ATOM     14  C   UNL     1      -3.456   2.405  -1.062  0.00  0.00    +0.163 C 
ATOM     15  O   UNL     1      -4.028   2.642  -2.108  0.00  0.00    -0.292 OA
ATOM     16  C   UNL     1      -2.111   1.744  -1.107  0.00  0.00    +0.088 C 
ATOM     17  H   UNL     1      -7.030   3.146   1.281  0.00  0.00    +0.147 HD
ATOM     18  H   UNL     1      -3.986   2.102   3.227  0.00  0.00    +0.152 HD
ENDROOT
BRANCH   1  23
ATOM     19  C   UNL     1       1.252  -0.603   0.188  0.00  0.00    +0.000 A 
ATOM     20  C   UNL     1       2.432   0.117   0.209  0.00  0.00    +0.001 A 
ATOM     21  C   UNL     1       2.398   1.499   0.209  0.00  0.00    +0.020 A 
ATOM     22  C   UNL     1       1.184   2.161   0.189  0.00  0.00    +0.044 A 
ATOM     23  C   UNL     1       0.004   1.440   0.167  0.00  0.00    -0.025 A 
ATOM     24  C   UNL     1       0.038   0.058   0.167  0.00  0.00    +0.005 A 
ATOM     25 CL   UNL     1       1.141   3.897   0.188  0.00  0.00    -0.083 Cl
ENDBRANCH   1  23
BRANCH   5  26
ATOM     26  C   UNL     1      -5.160   4.828  -0.597  0.00  0.00    -0.023 A 
ATOM     27  C   UNL     1      -4.445   5.760   0.132  0.00  0.00    +0.008 A 
ATOM     28  C   UNL     1      -4.209   7.016  -0.395  0.00  0.00    +0.038 A 
ATOM     29  C   UNL     1      -4.700   7.344  -1.647  0.00  0.00    +0.123 A 
ATOM     30  C   UNL     1      -5.421   6.412  -2.373  0.00  0.00    +0.038 A 
ATOM     31  C   UNL     1      -5.650   5.154  -1.847  0.00  0.00    +0.008 A 
ATOM     32  F   UNL     1      -4.474   8.573  -2.161  0.00  0.00    -0.205 F 
ENDBRANCH   5  26
TORSDOF 2
