REMARK  Name = ZINC39710498
REMARK  13 active torsions:
REMARK  status: ('A' for Active; 'I' for Inactive)
REMARK    1  A    between atoms: C_1  and  C_2
REMARK    2  A    between atoms: C_2  and  C_3
REMARK    3  A    between atoms: C_10  and  C_15
REMARK    4  A    between atoms: C_15  and  C_17
REMARK    5  A    between atoms: C_15  and  N_27
REMARK    6  A    between atoms: N_22  and  C_23
REMARK    7  A    between atoms: C_23  and  C_24
REMARK    8  A    between atoms: C_23  and  C_25
REMARK    9  A    between atoms: C_23  and  C_26
REMARK   10  A    between atoms: C_30  and  C_33
REMARK   11  A    between atoms: C_33  and  O_35
REMARK   12  A    between atoms: O_35  and  C_36
REMARK   13  A    between atoms: C_36  and  C_37
REMARK                            x       y       z     vdW  Elec       q    Type
REMARK                         _______ _______ _______ _____ _____    ______ ____
ROOT
ATOM      1  C   UNL     1       5.472  -3.356  -3.341  0.00  0.00    -0.010 C 
ENDROOT
BRANCH   1   9
ATOM      2  C   UNL     1       4.458   0.253  -7.814  0.00  0.00    -0.047 A 
ATOM      3  C   UNL     1       5.536   1.066  -7.464  0.00  0.00    +0.005 A 
ATOM      4  C   UNL     1       6.180   0.957  -6.273  0.00  0.00    +0.024 A 
ATOM      5  C   UNL     1       5.775  -0.002  -5.327  0.00  0.00    +0.040 A 
ATOM      6  N   UNL     1       6.414  -0.099  -4.161  0.00  0.00    -0.285 N 
ATOM      7  C   UNL     1       6.085  -0.977  -3.228  0.00  0.00    +0.223 C 
ATOM      8  O   UNL     1       6.707  -1.019  -2.183  0.00  0.00    -0.275 OA
ATOM      9  C   UNL     1       4.934  -1.928  -3.466  0.00  0.00    +0.088 C 
ATOM     10  C   UNL     1       4.204  -1.821  -4.790  0.00  0.00    -0.006 C 
ATOM     11  C   UNL     1       4.638  -0.874  -5.669  0.00  0.00    -0.007 A 
ATOM     12  C   UNL     1       3.987  -0.700  -6.968  0.00  0.00    +0.013 A 
ATOM     13  H   UNL     1       7.155   0.502  -3.989  0.00  0.00    +0.155 HD
BRANCH   2  15
ATOM     14  C   UNL     1       2.668   1.464  -9.031  0.00  0.00    +0.009 C 
ATOM     15  C   UNL     1       3.798   0.439  -9.156  0.00  0.00    +0.032 C 
ENDBRANCH   2  15
ENDBRANCH   1   9
BRANCH   1  16
ATOM     16  N   UNL     1       6.207  -3.710  -4.563  0.00  0.00    +0.385 N 
ATOM     17  C   UNL     1       5.330  -3.540  -5.727  0.00  0.00    -0.077 C 
ATOM     18  C   UNL     1       6.114  -3.830  -7.008  0.00  0.00    -0.004 C 
ATOM     19  C   UNL     1       6.636  -5.269  -6.966  0.00  0.00    +0.094 C 
ATOM     20  C   UNL     1       7.489  -5.456  -5.708  0.00  0.00    -0.004 C 
ATOM     21  C   UNL     1       6.653  -5.106  -4.475  0.00  0.00    -0.077 C 
ATOM     22  H   UNL     1       7.010  -3.107  -4.658  0.00  0.00    -0.081 HD
BRANCH  19  23
ATOM     23  C   UNL     1       7.475  -5.537  -8.189  0.00  0.00    +0.310 C 
ATOM     24  O   UNL     1       7.640  -4.667  -9.011  0.00  0.00    -0.251 OA
BRANCH  23  25
ATOM     25  O   UNL     1       8.039  -6.743  -8.365  0.00  0.00    -0.465 OA
BRANCH  25  26
ATOM     26  C   UNL     1       8.821  -6.926  -9.546  0.00  0.00    +0.229 C 
ATOM     27  C   UNL     1       9.378  -8.351  -9.573  0.00  0.00    +0.048 C 
ENDBRANCH  25  26
ENDBRANCH  23  25
ENDBRANCH  19  23
ENDBRANCH   1  16
BRANCH   1  28
ATOM     28  C   UNL     1       6.411  -3.443  -2.137  0.00  0.00    +0.205 C 
ATOM     29  N   UNL     1       6.774  -4.842  -1.871  0.00  0.00    -0.152 NA
ATOM     30  N   UNL     1       6.383  -5.148  -0.743  0.00  0.00    -0.070 NA
ATOM     31  N   UNL     1       5.735  -4.100  -0.090  0.00  0.00    -0.179 N 
ATOM     32  N   UNL     1       5.719  -2.998  -0.909  0.00  0.00    -0.183 NA
ATOM     33  H   UNL     1       5.356  -4.142   0.801  0.00  0.00    +0.191 HD
BRANCH  32  34
ATOM     34  C   UNL     1       4.342  -2.579  -1.204  0.00  0.00    +0.035 C 
ATOM     35  C   UNL     1       3.793  -3.413  -2.364  0.00  0.00    +0.029 C 
ATOM     36  C   UNL     1       3.469  -2.792   0.034  0.00  0.00    +0.029 C 
ATOM     37  C   UNL     1       4.330  -1.099  -1.589  0.00  0.00    +0.029 C 
ENDBRANCH  32  34
ENDBRANCH   1  28
TORSDOF 8
