REMARK  Name = ZINC12412409
REMARK  11 active torsions:
REMARK  status: ('A' for Active; 'I' for Inactive)
REMARK    1  A    between atoms: C_1  and  C_2
REMARK    2  A    between atoms: C_2  and  O_3
REMARK    3  A    between atoms: O_3  and  C_4
REMARK    4  A    between atoms: C_4  and  C_6
REMARK    5  A    between atoms: C_7  and  C_21
REMARK    6  A    between atoms: N_8  and  C_20
REMARK    7  A    between atoms: C_12  and  C_14
REMARK    8  A    between atoms: C_21  and  S_22
REMARK    9  A    between atoms: S_22  and  C_23
REMARK   10  A    between atoms: C_26  and  C_35
REMARK   11  A    between atoms: C_27  and  C_29
REMARK                            x       y       z     vdW  Elec       q    Type
REMARK                         _______ _______ _______ _____ _____    ______ ____
ROOT
ATOM      1  C   UNL     1       1.408  -0.661   0.982  0.00  0.00    +0.079 C 
ATOM      2  C   UNL     1       0.217  -0.074   0.733  0.00  0.00    +0.037 C 
ATOM      3  N   UNL     1       0.083   1.285   0.756  0.00  0.00    -0.261 N 
ATOM      4  C   UNL     1       1.090   2.126   1.021  0.00  0.00    +0.307 C 
ATOM      5  O   UNL     1       0.873   3.322   1.020  0.00  0.00    -0.252 OA
ATOM      6  N   UNL     1       2.337   1.690   1.290  0.00  0.00    -0.288 N 
ATOM      7  C   UNL     1       2.587   0.239   1.288  0.00  0.00    +0.144 C 
ATOM      8  C   UNL     1      -1.236   1.854   0.470  0.00  0.00    +0.139 C 
ATOM      9  H   UNL     1       3.052   2.318   1.479  0.00  0.00    +0.151 HD
ENDROOT
BRANCH   7  10
ATOM     10  C   UNL     1       3.122  -0.141   2.645  0.00  0.00    -0.023 A 
ATOM     11  C   UNL     1       2.498   0.322   3.788  0.00  0.00    +0.006 A 
ATOM     12  C   UNL     1       2.986  -0.031   5.033  0.00  0.00    +0.000 A 
ATOM     13  C   UNL     1       4.103  -0.839   5.134  0.00  0.00    +0.000 A 
ATOM     14  C   UNL     1       4.729  -1.298   3.991  0.00  0.00    +0.000 A 
ATOM     15  C   UNL     1       4.239  -0.949   2.746  0.00  0.00    +0.006 A 
ENDBRANCH   7  10
BRANCH   1  16
ATOM     16  C   UNL     1       1.549  -2.068   0.957  0.00  0.00    +0.339 C 
ATOM     17  O   UNL     1       0.565  -2.776   0.854  0.00  0.00    -0.245 OA
BRANCH  16  18
ATOM     18  O   UNL     1       2.774  -2.625   1.049  0.00  0.00    -0.462 OA
BRANCH  18  20
ATOM     19  C   UNL     1       4.302  -4.496   1.133  0.00  0.00    +0.048 C 
ATOM     20  C   UNL     1       2.842  -4.052   1.018  0.00  0.00    +0.229 C 
ENDBRANCH  18  20
ENDBRANCH  16  18
ENDBRANCH   1  16
BRANCH   2  21
ATOM     21  C   UNL     1      -0.982  -0.932   0.423  0.00  0.00    +0.129 C 
BRANCH  21  22
ATOM     22  S   UNL     1      -2.006  -1.096   1.907  0.00  0.00    -0.082 S 
BRANCH  22  23
ATOM     23  C   UNL     1      -3.297  -2.117   1.277  0.00  0.00    +0.168 A 
ATOM     24  N   UNL     1      -4.369  -2.562   1.989  0.00  0.00    -0.332 N 
ATOM     25  H   UNL     1      -4.563  -2.372   2.951  0.00  0.00    +0.168 HD
ATOM     26  C   UNL     1      -5.138  -3.327   1.132  0.00  0.00    +0.075 A 
ATOM     27  C   UNL     1      -4.491  -3.315  -0.087  0.00  0.00    +0.098 A 
ATOM     28  N   UNL     1      -3.380  -2.563   0.046  0.00  0.00    -0.221 NA
BRANCH  27  29
ATOM     29  C   UNL     1      -4.939  -3.999  -1.322  0.00  0.00    +0.002 A 
ATOM     30  C   UNL     1      -4.016  -4.668  -2.127  0.00  0.00    +0.010 A 
ATOM     31  C   UNL     1      -4.441  -5.307  -3.273  0.00  0.00    +0.001 A 
ATOM     32  C   UNL     1      -5.777  -5.278  -3.631  0.00  0.00    +0.000 A 
ATOM     33  C   UNL     1      -6.697  -4.612  -2.839  0.00  0.00    +0.001 A 
ATOM     34  C   UNL     1      -6.285  -3.973  -1.688  0.00  0.00    +0.010 A 
ENDBRANCH  27  29
BRANCH  26  35
ATOM     35  C   UNL     1      -6.400  -4.019   1.456  0.00  0.00    +0.000 A 
ATOM     36  C   UNL     1      -6.587  -5.352   1.079  0.00  0.00    +0.010 A 
ATOM     37  C   UNL     1      -7.767  -5.994   1.391  0.00  0.00    +0.001 A 
ATOM     38  C   UNL     1      -8.769  -5.319   2.065  0.00  0.00    +0.000 A 
ATOM     39  C   UNL     1      -8.594  -3.997   2.437  0.00  0.00    +0.001 A 
ATOM     40  C   UNL     1      -7.417  -3.344   2.137  0.00  0.00    +0.010 A 
ENDBRANCH  26  35
ENDBRANCH  22  23
ENDBRANCH  21  22
ENDBRANCH   2  21
TORSDOF 9
