REMARK  Name = ZINC04694166
REMARK  9 active torsions:
REMARK  status: ('A' for Active; 'I' for Inactive)
REMARK    1  A    between atoms: C_1  and  C_2
REMARK    2  A    between atoms: C_5  and  O_9
REMARK    3  A    between atoms: C_6  and  C_8
REMARK    4  A    between atoms: O_9  and  C_10
REMARK    5  A    between atoms: C_10  and  C_11
REMARK    6  A    between atoms: N_13  and  N_14
REMARK    7  A    between atoms: C_15  and  C_16
REMARK    8  A    between atoms: C_19  and  C_23
REMARK    9  A    between atoms: C_21  and  O_22
REMARK                            x       y       z     vdW  Elec       q    Type
REMARK                         _______ _______ _______ _____ _____    ______ ____
ROOT
ATOM      1  C   UNL     1      -1.097  -6.433  -1.176  0.00  0.00    +0.270 C 
ATOM      2  O   UNL     1      -0.792  -6.785  -0.056  0.00  0.00    -0.270 OA
ATOM      3  N   UNL     1      -0.878  -7.252  -2.223  0.00  0.00    -0.204 N 
ATOM      4  H   UNL     1      -1.121  -6.970  -3.119  0.00  0.00    +0.177 HD
ENDROOT
BRANCH   3   5
ATOM      5  N   UNL     1      -0.299  -8.511  -2.018  0.00  0.00    -0.188 NA
ATOM      6  C   UNL     1       0.011  -9.257  -3.035  0.00  0.00    +0.142 C 
BRANCH   6   7
ATOM      7  C   UNL     1      -0.004  -8.690  -4.395  0.00  0.00    +0.036 A 
ATOM      8  C   UNL     1       0.187  -7.320  -4.588  0.00  0.00    +0.013 A 
ATOM      9  C   UNL     1       0.172  -6.797  -5.864  0.00  0.00    +0.004 A 
ATOM     10  C   UNL     1      -0.032  -7.624  -6.955  0.00  0.00    -0.047 A 
ATOM     11  C   UNL     1      -0.222  -8.981  -6.778  0.00  0.00    +0.049 A 
ATOM     12  C   UNL     1      -0.204  -9.524  -5.503  0.00  0.00    +0.126 A 
ATOM     13  C   UNL     1      -0.046  -7.040  -8.345  0.00  0.00    +0.044 C 
BRANCH  12  14
ATOM     14  O   UNL     1      -0.386 -10.859  -5.329  0.00  0.00    -0.506 OA
ATOM     15  H   UNL     1      -1.300 -11.110  -5.141  0.00  0.00    +0.292 HD
ENDBRANCH  12  14
ENDBRANCH   6   7
ENDBRANCH   3   5
BRANCH   1  16
ATOM     16  C   UNL     1      -1.720  -5.078  -1.396  0.00  0.00    +0.326 C 
BRANCH  16  17
ATOM     17  O   UNL     1      -1.848  -4.403  -0.143  0.00  0.00    -0.482 OA
BRANCH  17  22
ATOM     18  C   UNL     1      -4.120   0.750  -0.236  0.00  0.00    +0.044 C 
ATOM     19  C   UNL     1      -3.512  -0.629  -0.211  0.00  0.00    -0.050 A 
ATOM     20  C   UNL     1      -3.358  -1.337  -1.389  0.00  0.00    +0.007 A 
ATOM     21  C   UNL     1      -2.802  -2.601  -1.369  0.00  0.00    +0.046 A 
ATOM     22  C   UNL     1      -2.396  -3.160  -0.166  0.00  0.00    +0.124 A 
ATOM     23  C   UNL     1      -2.550  -2.447   1.014  0.00  0.00    -0.009 A 
ATOM     24  C   UNL     1      -3.103  -1.181   0.989  0.00  0.00    +0.010 A 
ATOM     25  C   UNL     1      -2.110  -3.052   2.323  0.00  0.00    +0.047 C 
ENDBRANCH  17  22
ENDBRANCH  16  17
ENDBRANCH   1  16
TORSDOF 6
