REMARK  Name = ZINC64870221
REMARK  4 active torsions:
REMARK  status: ('A' for Active; 'I' for Inactive)
REMARK    1  A    between atoms: C_4  and  C_7
REMARK    2  A    between atoms: C_7  and  N_8
REMARK    3  A    between atoms: C_14  and  C_21
REMARK    4  A    between atoms: C_24  and  C_27
REMARK                            x       y       z     vdW  Elec       q    Type
REMARK                         _______ _______ _______ _____ _____    ______ ____
ROOT
ATOM      1  N   UNL     1       4.152  -0.952   1.338  0.00  0.00    -0.256 N 
ATOM      2  C   UNL     1       4.921  -0.033   1.961  0.00  0.00    +0.265 A 
ATOM      3  O   UNL     1       5.251   0.991   1.395  0.00  0.00    -0.267 OA
ATOM      4  C   UNL     1       5.350  -0.304   3.345  0.00  0.00    +0.063 A 
ATOM      5  C   UNL     1       6.144   0.594   4.054  0.00  0.00    +0.016 A 
ATOM      6  C   UNL     1       6.519   0.294   5.347  0.00  0.00    +0.009 A 
ATOM      7  C   UNL     1       6.111  -0.892   5.939  0.00  0.00    +0.006 A 
ATOM      8  C   UNL     1       5.324  -1.790   5.247  0.00  0.00    +0.034 A 
ATOM      9  C   UNL     1       4.937  -1.506   3.946  0.00  0.00    +0.056 A 
ATOM     10  N   UNL     1       4.147  -2.381   3.215  0.00  0.00    -0.307 N 
ATOM     11  H   UNL     1       3.854  -3.214   3.617  0.00  0.00    +0.170 HD
ATOM     12  C   UNL     1       3.779  -2.083   1.957  0.00  0.00    +0.330 A 
ATOM     13  O   UNL     1       3.082  -2.875   1.352  0.00  0.00    -0.246 OA
ENDROOT
BRANCH   7  14
ATOM     14  C   UNL     1       6.531  -1.203   7.353  0.00  0.00    +0.274 C 
ATOM     15  N   UNL     1       7.817  -0.563   7.653  0.00  0.00    -0.339 N 
ATOM     16  C   UNL     1       7.649   0.268   8.635  0.00  0.00    +0.134 C 
ATOM     17  N   UNL     1       6.346   0.277   9.066  0.00  0.00    -0.247 N 
ATOM     18  O   UNL     1       5.595  -0.641   8.285  0.00  0.00    -0.243 OA
ATOM     19  H   UNL     1       5.995   0.822   9.789  0.00  0.00    +0.196 HD
ATOM     20  H   UNL     1       8.654  -0.733   7.193  0.00  0.00    +0.164 HD
BRANCH  16  21
ATOM     21  C   UNL     1       8.726   1.100   9.217  0.00  0.00    +0.017 A 
ATOM     22  C   UNL     1       9.788   1.529   8.421  0.00  0.00    +0.012 A 
ATOM     23  C   UNL     1      10.789   2.304   8.968  0.00  0.00    +0.016 A 
ATOM     24  C   UNL     1      10.741   2.657  10.306  0.00  0.00    +0.018 A 
ATOM     25  C   UNL     1       9.690   2.235  11.102  0.00  0.00    +0.016 A 
ATOM     26  C   UNL     1       8.681   1.463  10.563  0.00  0.00    +0.012 A 
ATOM     27 BR   UNL     1      12.117   3.720  11.049  0.00  0.00    -0.050 Br
ENDBRANCH  16  21
ENDBRANCH   7  14
BRANCH   1  28
ATOM     28  C   UNL     1       3.711  -0.707  -0.038  0.00  0.00    +0.165 C 
BRANCH  28  32
ATOM     29  C   UNL     1      -0.017   1.378   0.010  0.00  0.00    +0.000 A 
ATOM     30  C   UNL     1       1.171   2.086   0.002  0.00  0.00    +0.000 A 
ATOM     31  C   UNL     1       2.377   1.411  -0.013  0.00  0.00    +0.005 A 
ATOM     32  C   UNL     1       2.396   0.029  -0.020  0.00  0.00    -0.028 A 
ATOM     33  C   UNL     1       1.208  -0.679  -0.012  0.00  0.00    +0.005 A 
ATOM     34  C   UNL     1       0.002  -0.004   0.002  0.00  0.00    +0.000 A 
ENDBRANCH  28  32
ENDBRANCH   1  28
TORSDOF 4
