REMARK  Name = ZINC13525157
REMARK  13 active torsions:
REMARK  status: ('A' for Active; 'I' for Inactive)
REMARK    1  A    between atoms: C_1  and  C_2
REMARK    2  A    between atoms: C_3  and  C_36
REMARK    3  A    between atoms: C_5  and  C_7
REMARK    4  A    between atoms: C_7  and  O_8
REMARK    5  A    between atoms: O_8  and  C_9
REMARK    6  A    between atoms: C_9  and  C_11
REMARK    7  A    between atoms: C_22  and  C_32
REMARK    8  A    between atoms: C_26  and  C_27
REMARK    9  A    between atoms: C_32  and  C_33
REMARK   10  A    between atoms: C_32  and  C_34
REMARK   11  A    between atoms: C_32  and  C_35
REMARK   12  A    between atoms: C_36  and  O_38
REMARK   13  A    between atoms: O_38  and  C_39
REMARK                            x       y       z     vdW  Elec       q    Type
REMARK                         _______ _______ _______ _____ _____    ______ ____
ROOT
ATOM      1  C   UNL     1      -2.787   2.256  10.689  0.00  0.00    +0.073 A 
ATOM      2  C   UNL     1      -1.940   1.081  10.899  0.00  0.00    +0.015 A 
ATOM      3  C   UNL     1      -2.314  -0.184  10.435  0.00  0.00    +0.011 A 
ATOM      4  C   UNL     1      -1.494  -1.252  10.652  0.00  0.00    +0.001 A 
ATOM      5  C   UNL     1      -0.288  -1.099  11.331  0.00  0.00    +0.002 A 
ATOM      6  C   UNL     1       0.107   0.118  11.795  0.00  0.00    +0.028 A 
ATOM      7  C   UNL     1      -0.713   1.243  11.590  0.00  0.00    +0.072 A 
ATOM      8  N   UNL     1      -0.352   2.448  12.032  0.00  0.00    -0.247 NA
ATOM      9  C   UNL     1      -1.100   3.526  11.854  0.00  0.00    +0.072 A 
ATOM     10  C   UNL     1      -2.334   3.473  11.180  0.00  0.00    -0.007 A 
ATOM     11  C   UNL     1      -3.192   4.694  10.995  0.00  0.00    +0.042 C 
ATOM     12  C   UNL     1      -2.361   5.970  11.085  0.00  0.00    +0.003 C 
ATOM     13  C   UNL     1      -1.586   5.978  12.409  0.00  0.00    +0.041 C 
ATOM     14  C   UNL     1      -0.613   4.820  12.374  0.00  0.00    -0.020 C 
ATOM     15  C   UNL     1       0.659   4.964  12.805  0.00  0.00    +0.020 C 
ENDROOT
BRANCH  15  16
ATOM     16  C   UNL     1       1.058   6.181  13.512  0.00  0.00    +0.013 A 
ATOM     17  C   UNL     1       2.323   6.587  13.909  0.00  0.00    +0.015 A 
ATOM     18  C   UNL     1       2.447   7.786  14.568  0.00  0.00    +0.008 A 
ATOM     19  C   UNL     1       1.336   8.532  14.807  0.00  0.00    +0.046 A 
ATOM     20  S   UNL     1       0.044   7.536  14.082  0.00  0.00    -0.097 S 
ENDBRANCH  15  16
BRANCH  12  21
ATOM     21  C   UNL     1      -3.286   7.188  11.027  0.00  0.00    -0.034 C 
ATOM     22  C   UNL     1      -2.452   8.467  11.122  0.00  0.00    +0.011 C 
ATOM     23  C   UNL     1      -4.057   7.179   9.706  0.00  0.00    +0.011 C 
ATOM     24  C   UNL     1      -4.273   7.134  12.195  0.00  0.00    +0.011 C 
ENDBRANCH  12  21
BRANCH   1  25
ATOM     25  C   UNL     1      -4.077   2.151   9.974  0.00  0.00    +0.341 C 
ATOM     26  O   UNL     1      -5.096   1.917  10.592  0.00  0.00    -0.245 OA
BRANCH  25  27
ATOM     27  O   UNL     1      -4.121   2.315   8.638  0.00  0.00    -0.453 OA
BRANCH  27  28
ATOM     28  C   UNL     1      -5.422   2.198   8.003  0.00  0.00    +0.306 C 
BRANCH  28  33
ATOM     29  C   UNL     1      -5.210   4.553   3.550  0.00  0.00    +0.087 C 
ATOM     30  C   UNL     1      -5.185   3.446   4.572  0.00  0.00    +0.116 A 
ATOM     31  C   UNL     1      -4.978   2.122   4.310  0.00  0.00    +0.100 A 
ATOM     32  C   UNL     1      -5.038   1.447   5.614  0.00  0.00    +0.063 A 
ATOM     33  C   UNL     1      -5.276   2.410   6.518  0.00  0.00    +0.143 A 
ATOM     34  O   UNL     1      -5.365   3.592   5.888  0.00  0.00    -0.461 OA
BRANCH  31  35
ATOM     35  C   UNL     1      -4.739   1.502   2.996  0.00  0.00    +0.342 C 
ATOM     36  O   UNL     1      -4.715   2.189   1.994  0.00  0.00    -0.245 OA
BRANCH  35  37
ATOM     37  O   UNL     1      -4.545   0.171   2.905  0.00  0.00    -0.464 OA
ATOM     38  C   UNL     1      -4.315  -0.372   1.578  0.00  0.00    +0.280 C 
ENDBRANCH  35  37
ENDBRANCH  31  35
ENDBRANCH  28  33
ENDBRANCH  27  28
ENDBRANCH  25  27
ENDBRANCH   1  25
TORSDOF 8
