REMARK  Name = ZINC33122276
REMARK  8 active torsions:
REMARK  status: ('A' for Active; 'I' for Inactive)
REMARK    1  A    between atoms: C_1  and  C_2
REMARK    2  A    between atoms: C_5  and  S_8
REMARK    3  A    between atoms: S_8  and  N_11
REMARK    4  A    between atoms: N_11  and  C_12
REMARK    5  A    between atoms: C_15  and  S_18
REMARK    6  A    between atoms: S_18  and  C_19
REMARK    7  A    between atoms: C_20  and  C_29
REMARK    8  A    between atoms: C_21  and  C_28
REMARK                            x       y       z     vdW  Elec       q    Type
REMARK                         _______ _______ _______ _____ _____    ______ ____
ROOT
ATOM      1  C   UNL     1       1.197   2.091  -0.022  0.00  0.00    +0.048 A 
ATOM      2  C   UNL     1       0.017   1.362  -0.089  0.00  0.00    +0.025 A 
ATOM      3  C   UNL     1       0.059  -0.018  -0.120  0.00  0.00    +0.017 A 
ATOM      4  C   UNL     1       1.282  -0.676  -0.086  0.00  0.00    +0.014 A 
ATOM      5  C   UNL     1       2.462   0.053  -0.020  0.00  0.00    +0.017 A 
ATOM      6  C   UNL     1       2.420   1.433   0.012  0.00  0.00    +0.025 A 
ENDROOT
BRANCH   1   7
ATOM      7  N   UNL     1       1.155   3.489   0.009  0.00  0.00    -0.216 N 
ATOM      8  H   UNL     1       0.508   4.036  -0.693  0.00  0.00    +0.174 HD
BRANCH   7   9
ATOM      9  S   UNL     1       2.078   4.321   1.104  0.00  0.00    +0.072 S 
ATOM     10  O   UNL     1       3.409   3.845   0.958  0.00  0.00    -0.150 OA
ATOM     11  O   UNL     1       1.741   5.694   0.960  0.00  0.00    -0.150 OA
BRANCH   9  16
ATOM     12  C   UNL     1       0.248   2.664   6.609  0.00  0.00    +0.044 C 
ATOM     13  C   UNL     1       0.705   3.078   5.234  0.00  0.00    -0.050 A 
ATOM     14  C   UNL     1       1.786   2.448   4.646  0.00  0.00    +0.005 A 
ATOM     15  C   UNL     1       2.205   2.828   3.385  0.00  0.00    +0.029 A 
ATOM     16  C   UNL     1       1.544   3.837   2.711  0.00  0.00    +0.109 A 
ATOM     17  C   UNL     1       0.466   4.471   3.301  0.00  0.00    +0.029 A 
ATOM     18  C   UNL     1       0.044   4.088   4.561  0.00  0.00    +0.005 A 
ENDBRANCH   9  16
ENDBRANCH   7   9
ENDBRANCH   1   7
BRANCH   4  19
ATOM     19  S   UNL     1       1.335  -2.437  -0.126  0.00  0.00    -0.069 S 
BRANCH  19  20
ATOM     20  C   UNL     1       3.078  -2.692  -0.061  0.00  0.00    +0.111 A 
ATOM     21  C   UNL     1       3.712  -2.925   1.145  0.00  0.00    +0.003 A 
ATOM     22  C   UNL     1       5.090  -3.122   1.157  0.00  0.00    +0.048 A 
ATOM     23  N   UNL     1       5.778  -3.087   0.035  0.00  0.00    -0.216 NA
ATOM     24  C   UNL     1       5.180  -2.863  -1.141  0.00  0.00    +0.254 A 
ATOM     25  N   UNL     1       3.828  -2.669  -1.203  0.00  0.00    -0.190 N 
ATOM     26  N   UNL     1       3.520  -2.459  -2.553  0.00  0.00    -0.151 NA
ATOM     27  C   UNL     1       4.645  -2.541  -3.221  0.00  0.00    +0.247 A 
ATOM     28  N   UNL     1       5.645  -2.782  -2.382  0.00  0.00    -0.197 NA
ATOM     29  C   UNL     1       5.798  -3.377   2.462  0.00  0.00    +0.066 C 
ATOM     30  C   UNL     1       2.923  -2.964   2.429  0.00  0.00    +0.048 C 
ENDBRANCH  19  20
ENDBRANCH   4  19
TORSDOF 5
