REMARK  Name = ZINC04641078
REMARK  6 active torsions:
REMARK  status: ('A' for Active; 'I' for Inactive)
REMARK    1  A    between atoms: C_4  and  C_7
REMARK    2  A    between atoms: C_7  and  C_8
REMARK    3  A    between atoms: N_14  and  C_17
REMARK    4  A    between atoms: N_24  and  C_25
REMARK    5  A    between atoms: C_25  and  C_26
REMARK    6  A    between atoms: C_26  and  C_27
REMARK                            x       y       z     vdW  Elec       q    Type
REMARK                         _______ _______ _______ _____ _____    ______ ____
ROOT
ATOM      1  C   UNL     1      -1.569   1.542  -0.429  0.00  0.00    +0.064 C 
ATOM      2  N   UNL     1      -0.407   0.915  -0.774  0.00  0.00    -0.286 NA
ENDROOT
BRANCH   1   3
ATOM      3  C   UNL     1      -2.518   0.874   0.349  0.00  0.00    +0.210 C 
ATOM      4  C   UNL     1      -2.377  -0.554   0.672  0.00  0.00    +0.238 C 
ATOM      5  O   UNL     1      -1.425  -1.195   0.268  0.00  0.00    -0.274 OA
ATOM      6  N   UNL     1      -3.329  -1.134   1.432  0.00  0.00    -0.238 N 
ATOM      7  C   UNL     1      -4.386  -0.441   1.879  0.00  0.00    +0.319 C 
ATOM      8  O   UNL     1      -5.212  -1.022   2.556  0.00  0.00    -0.251 OA
ATOM      9  N   UNL     1      -4.579   0.860   1.619  0.00  0.00    -0.193 N 
ATOM     10  C   UNL     1      -3.704   1.567   0.875  0.00  0.00    +0.245 C 
ATOM     11  O   UNL     1      -3.890   2.747   0.645  0.00  0.00    -0.274 OA
ATOM     12  H   UNL     1      -3.249  -2.074   1.657  0.00  0.00    +0.159 HD
BRANCH   9  13
ATOM     13  C   UNL     1      -5.716   1.500   2.131  0.00  0.00    +0.045 A 
ATOM     14  C   UNL     1      -5.586   2.450   3.135  0.00  0.00    +0.025 A 
ATOM     15  C   UNL     1      -6.707   3.083   3.634  0.00  0.00    +0.017 A 
ATOM     16  C   UNL     1      -7.961   2.763   3.142  0.00  0.00    +0.018 A 
ATOM     17  C   UNL     1      -8.093   1.812   2.146  0.00  0.00    +0.017 A 
ATOM     18  C   UNL     1      -6.975   1.180   1.640  0.00  0.00    +0.025 A 
ATOM     19 BR   UNL     1      -9.494   3.627   3.833  0.00  0.00    -0.050 Br
ENDBRANCH   9  13
ENDBRANCH   1   3
BRANCH   1  23
ATOM     20  C   UNL     1      -2.301   5.518  -1.718  0.00  0.00    +0.000 A 
ATOM     21  C   UNL     1      -1.135   5.219  -1.035  0.00  0.00    +0.001 A 
ATOM     22  C   UNL     1      -0.890   3.929  -0.613  0.00  0.00    +0.010 A 
ATOM     23  C   UNL     1      -1.823   2.923  -0.876  0.00  0.00    -0.003 A 
ATOM     24  C   UNL     1      -2.997   3.231  -1.571  0.00  0.00    +0.010 A 
ATOM     25  C   UNL     1      -3.230   4.527  -1.982  0.00  0.00    +0.001 A 
ENDBRANCH   1  23
BRANCH   2  26
ATOM     26  C   UNL     1       0.588   1.616  -1.590  0.00  0.00    +0.146 C 
BRANCH  26  27
ATOM     27  C   UNL     1       1.833   0.739  -1.739  0.00  0.00    +0.060 C 
BRANCH  27  28
ATOM     28  C   UNL     1       2.857   1.460  -2.578  0.00  0.00    -0.021 A 
ATOM     29  C   UNL     1       3.045   1.323  -3.900  0.00  0.00    +0.087 A 
ATOM     30  N   UNL     1       4.061   2.140  -4.314  0.00  0.00    -0.360 N 
ATOM     31  H   UNL     1       4.377   2.217  -5.228  0.00  0.00    +0.165 HD
ATOM     32  C   UNL     1       4.572   2.834  -3.238  0.00  0.00    +0.047 A 
ATOM     33  C   UNL     1       3.840   2.437  -2.104  0.00  0.00    +0.006 A 
ATOM     34  C   UNL     1       4.140   2.983  -0.855  0.00  0.00    +0.048 A 
ATOM     35  C   UNL     1       5.155   3.908  -0.741  0.00  0.00    +0.124 A 
ATOM     36  C   UNL     1       5.878   4.299  -1.862  0.00  0.00    +0.040 A 
ATOM     37  C   UNL     1       5.592   3.769  -3.101  0.00  0.00    +0.029 A 
ATOM     38  F   UNL     1       5.449   4.439   0.466  0.00  0.00    -0.205 F 
ENDBRANCH  27  28
ENDBRANCH  26  27
ENDBRANCH   2  26
TORSDOF 6
