REMARK  Name = ZINC63571090
REMARK  7 active torsions:
REMARK  status: ('A' for Active; 'I' for Inactive)
REMARK    1  A    between atoms: C_1  and  C_2
REMARK    2  A    between atoms: C_4  and  C_38
REMARK    3  A    between atoms: N_5  and  C_32
REMARK    4  A    between atoms: C_15  and  C_18
REMARK    5  A    between atoms: N_20  and  C_21
REMARK    6  A    between atoms: C_21  and  C_22
REMARK    7  A    between atoms: C_22  and  C_23
REMARK                            x       y       z     vdW  Elec       q    Type
REMARK                         _______ _______ _______ _____ _____    ______ ____
ROOT
ATOM      1  C   UNL     1       0.676   1.396  -0.007  0.00  0.00    +0.068 C 
ATOM      2  C   UNL     1       0.533  -0.104  -0.042  0.00  0.00    +0.072 A 
ATOM      3  C   UNL     1       0.138  -0.752  -1.233  0.00  0.00    +0.049 A 
ATOM      4  C   UNL     1      -0.192  -0.378  -2.516  0.00  0.00    +0.051 A 
ATOM      5  N   UNL     1      -0.487  -1.492  -3.208  0.00  0.00    -0.236 N 
ATOM      6  N   UNL     1      -0.353  -2.616  -2.382  0.00  0.00    -0.163 NA
ATOM      7  C   UNL     1       0.021  -2.224  -1.186  0.00  0.00    +0.137 A 
ATOM      8  C   UNL     1       0.327  -2.860   0.095  0.00  0.00    +0.172 A 
ATOM      9  N   UNL     1       0.682  -2.086   1.103  0.00  0.00    -0.132 NA
ATOM     10  N   UNL     1       0.778  -0.814   1.028  0.00  0.00    -0.152 NA
ATOM     11  N   UNL     1       0.247  -4.235   0.245  0.00  0.00    -0.311 N 
ATOM     12  C   UNL     1      -0.144  -5.090  -0.885  0.00  0.00    +0.106 C 
ATOM     13  C   UNL     1       0.923  -6.172  -1.076  0.00  0.00    +0.020 C 
ATOM     14  C   UNL     1       1.123  -6.924   0.242  0.00  0.00    +0.016 C 
ATOM     15  C   UNL     1       1.610  -5.951   1.318  0.00  0.00    +0.092 C 
ATOM     16  C   UNL     1       0.556  -4.866   1.535  0.00  0.00    +0.119 C 
ATOM     17  C   UNL     1      -0.218   1.031  -3.050  0.00  0.00    +0.066 C 
ENDROOT
BRANCH   5  18
ATOM     18  C   UNL     1      -0.873  -1.525  -4.555  0.00  0.00    +0.066 A 
ATOM     19  C   UNL     1      -0.213  -0.735  -5.487  0.00  0.00    +0.028 A 
ATOM     20  C   UNL     1      -0.594  -0.769  -6.813  0.00  0.00    +0.002 A 
ATOM     21  C   UNL     1      -1.633  -1.590  -7.214  0.00  0.00    +0.000 A 
ATOM     22  C   UNL     1      -2.292  -2.378  -6.289  0.00  0.00    +0.002 A 
ATOM     23  C   UNL     1      -1.911  -2.352  -4.962  0.00  0.00    +0.028 A 
ENDBRANCH   5  18
BRANCH  15  24
ATOM     24  C   UNL     1       1.837  -6.699   2.607  0.00  0.00    +0.218 C 
ATOM     25  O   UNL     1       1.217  -6.393   3.603  0.00  0.00    -0.275 OA
ATOM     26  N   UNL     1       2.731  -7.707   2.652  0.00  0.00    -0.315 N 
ATOM     27  H   UNL     1       3.227  -7.951   1.855  0.00  0.00    +0.149 HD
BRANCH  26  28
ATOM     28  C   UNL     1       2.953  -8.433   3.904  0.00  0.00    +0.108 C 
BRANCH  28  29
ATOM     29  C   UNL     1       4.008  -9.519   3.684  0.00  0.00    +0.052 C 
BRANCH  29  30
ATOM     30  C   UNL     1       4.236 -10.267   4.973  0.00  0.00    -0.040 C 
ATOM     31  C   UNL     1       3.653 -11.426   5.354  0.00  0.00    -0.001 A 
ATOM     32  C   UNL     1       2.668 -12.303   4.710  0.00  0.00    +0.010 A 
ATOM     33  C   UNL     1       2.265 -13.421   5.354  0.00  0.00    +0.001 A 
ATOM     34  C   UNL     1       2.761 -13.763   6.620  0.00  0.00    +0.002 A 
ATOM     35  C   UNL     1       3.668 -13.007   7.275  0.00  0.00    +0.026 A 
ATOM     36  C   UNL     1       4.162 -11.809   6.691  0.00  0.00    +0.043 A 
ATOM     37  N   UNL     1       5.027 -10.921   7.118  0.00  0.00    -0.380 N 
ATOM     38  C   UNL     1       5.168  -9.876   6.098  0.00  0.00    +0.144 C 
ATOM     39  H   UNL     1       5.497 -10.952   7.966  0.00  0.00    +0.160 HD
ENDBRANCH  29  30
ENDBRANCH  28  29
ENDBRANCH  26  28
ENDBRANCH  15  24
TORSDOF 5
