REMARK  Name = ZINC63985298
REMARK  6 active torsions:
REMARK  status: ('A' for Active; 'I' for Inactive)
REMARK    1  A    between atoms: C_1  and  C_2
REMARK    2  A    between atoms: C_6  and  N_9
REMARK    3  A    between atoms: C_7  and  C_8
REMARK    4  A    between atoms: C_10  and  O_34
REMARK    5  A    between atoms: C_13  and  O_33
REMARK    6  A    between atoms: C_14  and  C_18
REMARK                            x       y       z     vdW  Elec       q    Type
REMARK                         _______ _______ _______ _____ _____    ______ ____
ROOT
ATOM      1  N   UNL     1      -0.140  -2.861   2.502  0.00  0.00    -0.225 N 
ATOM      2  C   UNL     1      -1.337  -3.246   3.234  0.00  0.00    +0.338 C 
ATOM      3  N   UNL     1      -1.062  -3.500   4.639  0.00  0.00    -0.204 NA
ATOM      4  C   UNL     1       0.095  -3.766   5.107  0.00  0.00    +0.200 C 
ATOM      5  C   UNL     1       1.323  -3.844   4.248  0.00  0.00    +0.179 C 
ATOM      6  C   UNL     1       1.095  -3.138   2.941  0.00  0.00    +0.237 C 
ATOM      7  O   UNL     1       2.050  -2.808   2.271  0.00  0.00    -0.274 OA
ENDROOT
BRANCH   5   8
ATOM      8  C   UNL     1       1.654  -5.311   3.970  0.00  0.00    +0.101 C 
ATOM      9  C   UNL     1       2.969  -5.405   3.192  0.00  0.00    +0.124 C 
ATOM     10  C   UNL     1       3.135  -6.872   2.810  0.00  0.00    -0.036 C 
ATOM     11  C   UNL     1       4.328  -7.242   3.254  0.00  0.00    -0.001 A 
ATOM     12  C   UNL     1       5.080  -8.500   3.116  0.00  0.00    +0.010 A 
ATOM     13  C   UNL     1       6.296  -8.542   3.723  0.00  0.00    +0.001 A 
ATOM     14  C   UNL     1       6.832  -7.471   4.445  0.00  0.00    +0.002 A 
ATOM     15  C   UNL     1       6.214  -6.276   4.618  0.00  0.00    +0.026 A 
ATOM     16  C   UNL     1       4.931  -6.109   4.021  0.00  0.00    +0.043 A 
ATOM     17  N   UNL     1       4.132  -5.059   4.009  0.00  0.00    -0.376 N 
ATOM     18  C   UNL     1       2.024  -7.648   2.147  0.00  0.00    +0.048 C 
ATOM     19  C   UNL     1       0.751  -7.358   2.964  0.00  0.00    +0.085 C 
ATOM     20  N   UNL     1       0.589  -5.914   3.152  0.00  0.00    -0.310 NA
ATOM     21  H   UNL     1      -0.322  -5.698   3.529  0.00  0.00    +0.122 HD
ATOM     22  H   UNL     1       4.277  -4.212   4.459  0.00  0.00    +0.160 HD
ENDBRANCH   5   8
BRANCH   1  28
ATOM     23  C   UNL     1      -0.520   1.382   0.049  0.00  0.00    +0.044 C 
ATOM     24  C   UNL     1      -0.472  -0.124   0.070  0.00  0.00    -0.046 A 
ATOM     25  C   UNL     1      -0.570  -0.835  -1.112  0.00  0.00    +0.004 A 
ATOM     26  C   UNL     1      -0.525  -2.217  -1.097  0.00  0.00    +0.002 A 
ATOM     27  C   UNL     1      -0.383  -2.892   0.099  0.00  0.00    +0.024 A 
ATOM     28  C   UNL     1      -0.284  -2.181   1.288  0.00  0.00    +0.044 A 
ATOM     29  C   UNL     1      -0.324  -0.792   1.269  0.00  0.00    -0.026 A 
ATOM     30  C   UNL     1      -0.211  -0.017   2.556  0.00  0.00    +0.046 C 
ENDBRANCH   1  28
BRANCH   4  31
ATOM     31  O   UNL     1       0.220  -3.987   6.432  0.00  0.00    -0.495 OA
ATOM     32  H   UNL     1      -0.611  -3.920   6.922  0.00  0.00    +0.293 HD
ENDBRANCH   4  31
BRANCH   2  33
ATOM     33  O   UNL     1      -2.300  -2.194   3.135  0.00  0.00    -0.356 OA
ATOM     34  H   UNL     1      -3.129  -2.374   3.599  0.00  0.00    +0.214 HD
ENDBRANCH   2  33
TORSDOF 4
