REMARK  Name = ZINC13124144
REMARK  7 active torsions:
REMARK  status: ('A' for Active; 'I' for Inactive)
REMARK    1  A    between atoms: C_1  and  C_2
REMARK    2  A    between atoms: C_2  and  C_3
REMARK    3  A    between atoms: C_3  and  C_5
REMARK    4  A    between atoms: C_3  and  N_6
REMARK    5  A    between atoms: C_7  and  C_9
REMARK    6  A    between atoms: C_15  and  C_24
REMARK    7  A    between atoms: C_18  and  C_20
REMARK                            x       y       z     vdW  Elec       q    Type
REMARK                         _______ _______ _______ _____ _____    ______ ____
ROOT
ATOM      1  C   UNL     1       4.233   0.459  -2.305  0.00  0.00    +0.096 A 
ATOM      2  C   UNL     1       4.997   0.731  -1.142  0.00  0.00    +0.149 A 
ATOM      3  N   UNL     1       6.204   1.060  -1.512  0.00  0.00    -0.177 NA
ATOM      4  N   UNL     1       6.284   1.019  -2.904  0.00  0.00    -0.238 N 
ATOM      5  C   UNL     1       5.075   0.645  -3.386  0.00  0.00    +0.130 A 
ATOM      6  N   UNL     1       4.815   0.505  -4.738  0.00  0.00    -0.322 N 
ATOM      7  C   UNL     1       5.832   1.053  -5.657  0.00  0.00    +0.104 C 
ATOM      8  C   UNL     1       7.220   0.669  -5.130  0.00  0.00    +0.063 C 
ATOM      9  C   UNL     1       7.443   1.311  -3.753  0.00  0.00    +0.215 C 
ATOM     10  H   UNL     1       4.010   0.072  -5.063  0.00  0.00    +0.148 HD
ENDROOT
BRANCH   7  11
ATOM     11  C   UNL     1       5.631   0.476  -7.035  0.00  0.00    -0.024 A 
ATOM     12  C   UNL     1       5.291  -0.855  -7.183  0.00  0.00    +0.009 A 
ATOM     13  C   UNL     1       5.106  -1.389  -8.445  0.00  0.00    +0.050 A 
ATOM     14  C   UNL     1       5.261  -0.589  -9.565  0.00  0.00    +0.166 A 
ATOM     15  C   UNL     1       5.604   0.753  -9.416  0.00  0.00    +0.167 A 
ATOM     16  C   UNL     1       5.783   1.282  -8.148  0.00  0.00    +0.055 A 
ATOM     17  O   UNL     1       5.696   1.320 -10.655  0.00  0.00    -0.453 OA
ATOM     18  C   UNL     1       5.808   0.218 -11.575  0.00  0.00    +0.466 C 
ATOM     19  O   UNL     1       5.138  -0.862 -10.897  0.00  0.00    -0.453 OA
ENDBRANCH   7  11
BRANCH   1  21
ATOM     20  N   UNL     1       2.125  -0.091  -1.209  0.00  0.00    -0.309 N 
ATOM     21  C   UNL     1       2.824   0.051  -2.353  0.00  0.00    +0.249 C 
ATOM     22  O   UNL     1       2.287  -0.157  -3.425  0.00  0.00    -0.270 OA
ATOM     23  H   UNL     1       2.553   0.075  -0.355  0.00  0.00    +0.149 HD
BRANCH  20  24
ATOM     24  C   UNL     1       0.718  -0.497  -1.257  0.00  0.00    +0.070 C 
ATOM     25  C   UNL     1       0.630  -2.023  -1.329  0.00  0.00    +0.028 C 
BRANCH  24  27
ATOM     26  C   UNL     1      -0.019   1.526   0.010  0.00  0.00    +0.005 C 
ATOM     27  C   UNL     1       0.002  -0.004   0.002  0.00  0.00    +0.018 C 
ENDBRANCH  24  27
ENDBRANCH  20  24
ENDBRANCH   1  21
BRANCH   9  28
ATOM     28  C   UNL     1       8.704   0.716  -3.122  0.00  0.00    +0.412 C 
ATOM     29  F   UNL     1       8.554  -0.670  -2.999  0.00  0.00    -0.168 F 
ATOM     30  F   UNL     1       9.808   0.995  -3.934  0.00  0.00    -0.168 F 
ATOM     31  F   UNL     1       8.901   1.278  -1.857  0.00  0.00    -0.168 F 
ENDBRANCH   9  28
TORSDOF 5
