REMARK  Name = ZINC35886405
REMARK  7 active torsions:
REMARK  status: ('A' for Active; 'I' for Inactive)
REMARK    1  A    between atoms: C_1  and  C_2
REMARK    2  A    between atoms: N_6  and  C_28
REMARK    3  A    between atoms: C_10  and  N_15
REMARK    4  A    between atoms: N_18  and  C_19
REMARK    5  A    between atoms: C_22  and  C_25
REMARK    6  A    between atoms: C_25  and  C_26
REMARK    7  A    between atoms: C_25  and  C_27
REMARK                            x       y       z     vdW  Elec       q    Type
REMARK                         _______ _______ _______ _____ _____    ______ ____
ROOT
ATOM      1  C   UNL     1       0.830   1.386  -0.830  0.00  0.00    +0.062 C 
ATOM      2  C   UNL     1       0.624  -0.117  -0.627  0.00  0.00    +0.256 C 
ATOM      3  C   UNL     1      -0.832  -0.391  -0.409  0.00  0.00    +0.257 C 
ATOM      4  O   UNL     1      -1.552   0.534  -0.721  0.00  0.00    -0.272 OA
ATOM      5  N   UNL     1      -1.464  -1.399   0.037  0.00  0.00    -0.287 N 
ATOM      6  C   UNL     1      -1.054  -2.576   0.727  0.00  0.00    +0.147 C 
ATOM      7  C   UNL     1       0.387  -2.734   1.101  0.00  0.00    +0.013 A 
ATOM      8  C   UNL     1       0.660  -3.967   1.714  0.00  0.00    +0.032 A 
ATOM      9  C   UNL     1       1.942  -4.320   2.081  0.00  0.00    +0.035 A 
ATOM     10  C   UNL     1       2.980  -3.432   1.827  0.00  0.00    +0.027 A 
ATOM     11  C   UNL     1       2.701  -2.223   1.248  0.00  0.00    +0.048 A 
ATOM     12  C   UNL     1       1.380  -1.846   0.903  0.00  0.00    +0.126 A 
ATOM     13  O   UNL     1       1.383  -0.545   0.486  0.00  0.00    -0.480 OA
ENDROOT
BRANCH   5  14
ATOM     14  C   UNL     1      -2.908  -1.337  -0.206  0.00  0.00    +0.107 C 
ATOM     15  C   UNL     1      -3.162  -1.277  -1.711  0.00  0.00    +0.027 C 
ATOM     16  C   UNL     1      -4.652  -0.994  -1.938  0.00  0.00    +0.007 C 
ATOM     17  C   UNL     1      -4.941   0.442  -1.507  0.00  0.00    +0.035 C 
ATOM     18  C   UNL     1      -4.412   0.694  -0.119  0.00  0.00    -0.042 A 
ATOM     19  C   UNL     1      -3.475  -0.120   0.476  0.00  0.00    -0.024 A 
ATOM     20  C   UNL     1      -3.024   0.173   1.756  0.00  0.00    +0.006 A 
ATOM     21  C   UNL     1      -3.508   1.272   2.436  0.00  0.00    +0.000 A 
ATOM     22  C   UNL     1      -4.451   2.087   1.839  0.00  0.00    +0.000 A 
ATOM     23  C   UNL     1      -4.900   1.798   0.568  0.00  0.00    +0.004 A 
ENDBRANCH   5  14
BRANCH   9  24
ATOM     24  N   UNL     1       2.193  -5.552   2.701  0.00  0.00    -0.269 N 
ATOM     25  C   UNL     1       3.195  -5.665   3.595  0.00  0.00    +0.308 C 
ATOM     26  O   UNL     1       3.820  -4.679   3.936  0.00  0.00    -0.252 OA
ATOM     27  N   UNL     1       3.504  -6.870   4.113  0.00  0.00    -0.269 N 
ATOM     28  H   UNL     1       1.646  -6.324   2.486  0.00  0.00    +0.156 HD
ATOM     29  H   UNL     1       3.057  -7.667   3.787  0.00  0.00    +0.156 HD
BRANCH  27  30
ATOM     30  C   UNL     1       4.469  -6.973   5.120  0.00  0.00    +0.035 A 
ATOM     31  C   UNL     1       4.608  -5.957   6.057  0.00  0.00    +0.023 A 
ATOM     32  C   UNL     1       5.562  -6.061   7.050  0.00  0.00    +0.006 A 
ATOM     33  C   UNL     1       6.379  -7.175   7.113  0.00  0.00    -0.045 A 
ATOM     34  C   UNL     1       6.243  -8.188   6.181  0.00  0.00    +0.006 A 
ATOM     35  C   UNL     1       5.287  -8.093   5.189  0.00  0.00    +0.023 A 
BRANCH  33  36
ATOM     36  C   UNL     1       7.419  -7.285   8.197  0.00  0.00    +0.013 C 
ATOM     37  C   UNL     1       7.145  -8.530   9.043  0.00  0.00    +0.012 C 
ATOM     38  C   UNL     1       8.807  -7.394   7.563  0.00  0.00    +0.012 C 
ENDBRANCH  33  36
ENDBRANCH  27  30
ENDBRANCH   9  24
TORSDOF 4
