REMARK  Name = ZINC09505350
REMARK  9 active torsions:
REMARK  status: ('A' for Active; 'I' for Inactive)
REMARK    1  A    between atoms: C_1  and  C_2
REMARK    2  A    between atoms: C_5  and  C_8
REMARK    3  A    between atoms: C_8  and  S_9
REMARK    4  A    between atoms: S_9  and  C_10
REMARK    5  A    between atoms: C_10  and  C_11
REMARK    6  A    between atoms: C_18  and  C_23
REMARK    7  A    between atoms: N_28  and  C_33
REMARK    8  A    between atoms: C_29  and  C_32
REMARK    9  A    between atoms: C_37  and  C_39
REMARK                            x       y       z     vdW  Elec       q    Type
REMARK                         _______ _______ _______ _____ _____    ______ ____
ROOT
ATOM      1  C   UNL     1       2.863  -7.112  -0.096  0.00  0.00    +0.167 C 
ATOM      2  C   UNL     1       2.486  -8.572  -0.070  0.00  0.00    +0.238 C 
ATOM      3  O   UNL     1       2.265  -9.116   0.991  0.00  0.00    -0.273 OA
ATOM      4  N   UNL     1       2.392  -9.276  -1.213  0.00  0.00    -0.282 N 
ATOM      5  C   UNL     1       2.776  -8.713  -2.436  0.00  0.00    +0.055 A 
ATOM      6  C   UNL     1       2.490  -9.357  -3.624  0.00  0.00    +0.038 A 
ATOM      7  C   UNL     1       2.873  -8.776  -4.837  0.00  0.00    +0.039 A 
ATOM      8  C   UNL     1       3.540  -7.548  -4.846  0.00  0.00    +0.015 A 
ATOM      9  C   UNL     1       3.826  -6.910  -3.658  0.00  0.00    +0.025 A 
ATOM     10  C   UNL     1       3.450  -7.488  -2.454  0.00  0.00    +0.049 A 
ATOM     11  N   UNL     1       3.752  -6.864  -1.239  0.00  0.00    -0.331 N 
ATOM     12  H   UNL     1       2.054 -10.185  -1.189  0.00  0.00    +0.155 HD
ATOM     13  H   UNL     1       4.526  -6.286  -1.153  0.00  0.00    +0.147 HD
ENDROOT
BRANCH   7  14
ATOM     14  C   UNL     1       2.571  -9.460  -6.109  0.00  0.00    +0.247 C 
ATOM     15  O   UNL     1       2.093  -8.836  -7.037  0.00  0.00    -0.270 OA
ATOM     16  N   UNL     1       2.826 -10.777  -6.242  0.00  0.00    -0.294 N 
ATOM     17  C   UNL     1       3.310 -11.565  -5.100  0.00  0.00    +0.127 C 
ATOM     18  C   UNL     1       4.618 -12.258  -5.502  0.00  0.00    +0.124 C 
ATOM     19  N   UNL     1       4.415 -12.931  -6.793  0.00  0.00    -0.324 N 
ATOM     20  C   UNL     1       3.931 -12.144  -7.935  0.00  0.00    +0.088 C 
ATOM     21  C   UNL     1       2.618 -11.452  -7.531  0.00  0.00    +0.130 C 
ATOM     22  C   UNL     1       4.976 -11.093  -8.315  0.00  0.00    +0.029 C 
BRANCH  19  23
ATOM     23  C   UNL     1       4.679 -14.296  -6.931  0.00  0.00    +0.030 A 
ATOM     24  C   UNL     1       5.015 -15.057  -5.818  0.00  0.00    +0.023 A 
ATOM     25  C   UNL     1       5.275 -16.406  -5.958  0.00  0.00    +0.002 A 
ATOM     26  C   UNL     1       5.201 -17.000  -7.205  0.00  0.00    +0.003 A 
ATOM     27  C   UNL     1       4.867 -16.246  -8.315  0.00  0.00    -0.049 A 
ATOM     28  C   UNL     1       4.600 -14.897  -8.181  0.00  0.00    +0.026 A 
ATOM     29  C   UNL     1       4.789 -16.897  -9.671  0.00  0.00    +0.044 C 
ENDBRANCH  19  23
ENDBRANCH   7  14
BRANCH   1  30
ATOM     30  C   UNL     1       1.600  -6.260  -0.236  0.00  0.00    +0.101 C 
BRANCH  30  31
ATOM     31  S   UNL     1       2.055  -4.504  -0.272  0.00  0.00    -0.154 S 
BRANCH  31  32
ATOM     32  C   UNL     1       0.468  -3.642  -0.439  0.00  0.00    +0.104 C 
BRANCH  32  37
ATOM     33  C   UNL     1       1.379   2.062  -0.603  0.00  0.00    +0.044 C 
ATOM     34  C   UNL     1       1.141   0.574  -0.560  0.00  0.00    -0.050 A 
ATOM     35  C   UNL     1       1.132  -0.158  -1.732  0.00  0.00    +0.003 A 
ATOM     36  C   UNL     1       0.914  -1.523  -1.693  0.00  0.00    +0.005 A 
ATOM     37  C   UNL     1       0.706  -2.155  -0.482  0.00  0.00    -0.038 A 
ATOM     38  C   UNL     1       0.717  -1.423   0.691  0.00  0.00    +0.005 A 
ATOM     39  C   UNL     1       0.939  -0.059   0.652  0.00  0.00    +0.003 A 
ENDBRANCH  32  37
ENDBRANCH  31  32
ENDBRANCH  30  31
ENDBRANCH   1  30
TORSDOF 6
