REMARK  Name = ZINC16492609
REMARK  7 active torsions:
REMARK  status: ('A' for Active; 'I' for Inactive)
REMARK    1  A    between atoms: C_4  and  C_7
REMARK    2  A    between atoms: C_9  and  C_20
REMARK    3  A    between atoms: C_10  and  C_18
REMARK    4  A    between atoms: C_11  and  S_13
REMARK    5  A    between atoms: S_13  and  C_14
REMARK    6  A    between atoms: C_14  and  C_15
REMARK    7  A    between atoms: C_23  and  C_25
REMARK                            x       y       z     vdW  Elec       q    Type
REMARK                         _______ _______ _______ _____ _____    ______ ____
ROOT
ATOM      1  C   UNL     1       1.187   2.089   0.002  0.00  0.00    +0.073 A 
ATOM      2  C   UNL     1      -0.017   1.394   0.010  0.00  0.00    +0.041 A 
ATOM      3  C   UNL     1       0.002  -0.004   0.002  0.00  0.00    +0.039 A 
ATOM      4  C   UNL     1       1.259  -0.655  -0.013  0.00  0.00    +0.094 A 
ATOM      5  C   UNL     1       2.427   0.129  -0.020  0.00  0.00    +0.116 A 
ATOM      6  N   UNL     1       2.351   1.450  -0.012  0.00  0.00    -0.239 NA
ENDROOT
BRANCH   1  10
ATOM      7  C   UNL     1       1.141   6.340   0.024  0.00  0.00    +0.000 A 
ATOM      8  C   UNL     1       2.348   5.664   0.010  0.00  0.00    +0.001 A 
ATOM      9  C   UNL     1       2.369   4.285   0.003  0.00  0.00    +0.010 A 
ATOM     10  C   UNL     1       1.171   3.572   0.010  0.00  0.00    +0.000 A 
ATOM     11  C   UNL     1      -0.043   4.258   0.019  0.00  0.00    +0.010 A 
ATOM     12  C   UNL     1      -0.051   5.638   0.031  0.00  0.00    +0.001 A 
ENDBRANCH   1  10
BRANCH   3  13
ATOM     13  C   UNL     1      -1.251  -0.778   0.009  0.00  0.00    +0.137 A 
ATOM     14  C   UNL     1      -2.296  -0.597   0.868  0.00  0.00    +0.050 A 
ATOM     15  C   UNL     1      -3.275  -1.540   0.523  0.00  0.00    +0.050 A 
ATOM     16  C   UNL     1      -2.785  -2.256  -0.529  0.00  0.00    +0.136 A 
ATOM     17  O   UNL     1      -1.563  -1.782  -0.834  0.00  0.00    -0.455 OA
BRANCH  16  18
ATOM     18  C   UNL     1      -3.481  -3.360  -1.221  0.00  0.00    +0.017 A 
ATOM     19  C   UNL     1      -4.753  -3.757  -0.804  0.00  0.00    +0.012 A 
ATOM     20  C   UNL     1      -5.399  -4.786  -1.458  0.00  0.00    +0.016 A 
ATOM     21  C   UNL     1      -4.785  -5.430  -2.518  0.00  0.00    +0.018 A 
ATOM     22  C   UNL     1      -3.521  -5.045  -2.933  0.00  0.00    +0.016 A 
ATOM     23  C   UNL     1      -2.866  -4.014  -2.291  0.00  0.00    +0.012 A 
ATOM     24 BR   UNL     1      -5.675  -6.844  -3.404  0.00  0.00    -0.050 Br
ENDBRANCH  16  18
ENDBRANCH   3  13
BRANCH   4  25
ATOM     25  C   UNL     1       1.341  -2.084  -0.021  0.00  0.00    +0.103 C 
ATOM     26  N   UNL     1       1.405  -3.219  -0.028  0.00  0.00    -0.191 NA
ENDBRANCH   4  25
BRANCH   5  27
ATOM     27  S   UNL     1       4.004  -0.655  -0.040  0.00  0.00    -0.095 S 
BRANCH  27  28
ATOM     28  C   UNL     1       5.079   0.801  -0.042  0.00  0.00    +0.171 C 
BRANCH  28  29
ATOM     29  C   UNL     1       6.521   0.362  -0.058  0.00  0.00    +0.221 C 
ATOM     30  O   UNL     1       6.794  -0.820  -0.067  0.00  0.00    -0.275 OA
ATOM     31  N   UNL     1       7.505   1.282  -0.063  0.00  0.00    -0.329 N 
ATOM     32  H   UNL     1       7.287   2.227  -0.056  0.00  0.00    +0.145 HD
ATOM     33  H   UNL     1       8.433   0.999  -0.073  0.00  0.00    +0.145 HD
ENDBRANCH  28  29
ENDBRANCH  27  28
ENDBRANCH   5  27
TORSDOF 7
