REMARK  Name = ZINC48836444
REMARK  4 active torsions:
REMARK  status: ('A' for Active; 'I' for Inactive)
REMARK    1  A    between atoms: C_1  and  C_2
REMARK    2  A    between atoms: C_6  and  C_20
REMARK    3  A    between atoms: N_9  and  C_10
REMARK    4  A    between atoms: C_13  and  N_17
REMARK                            x       y       z     vdW  Elec       q    Type
REMARK                         _______ _______ _______ _____ _____    ______ ____
ROOT
ATOM      1  C   UNL     1       0.790   1.463  -0.357  0.00  0.00    +0.028 C 
ATOM      2  C   UNL     1       0.413  -0.013  -0.207  0.00  0.00    +0.070 C 
ATOM      3  C   UNL     1       1.137  -0.839  -1.274  0.00  0.00    +0.023 C 
ATOM      4  C   UNL     1       0.867  -2.326  -1.033  0.00  0.00    +0.016 C 
ATOM      5  C   UNL     1       1.410  -2.729   0.340  0.00  0.00    +0.092 C 
ATOM      6  C   UNL     1       0.689  -1.924   1.426  0.00  0.00    +0.118 C 
ATOM      7  N   UNL     1       0.819  -0.492   1.122  0.00  0.00    -0.326 N 
ENDROOT
BRANCH   7   8
ATOM      8  C   UNL     1       1.322   0.396   2.075  0.00  0.00    +0.031 A 
ATOM      9  C   UNL     1       0.452   1.088   2.909  0.00  0.00    +0.025 A 
ATOM     10  C   UNL     1       0.952   1.965   3.851  0.00  0.00    +0.035 A 
ATOM     11  C   UNL     1       2.317   2.156   3.966  0.00  0.00    +0.139 A 
ATOM     12  C   UNL     1       3.186   1.469   3.137  0.00  0.00    +0.045 A 
ATOM     13  C   UNL     1       2.692   0.585   2.196  0.00  0.00    +0.039 A 
ATOM     14  I   UNL     1       5.253   1.762   3.315  0.00  0.00    -0.041 I 
BRANCH  11  15
ATOM     15  N   UNL     1       2.849   3.097   4.976  0.00  0.00    +0.057 N 
ATOM     16  O   UNL     1       2.091   3.698   5.701  0.00  0.00    -0.126 OA
ATOM     17  O   UNL     1       4.042   3.264   5.078  0.00  0.00    -0.126 OA
ENDBRANCH  11  15
ENDBRANCH   7   8
BRANCH   5  18
ATOM     18  C   UNL     1       1.173  -4.200   0.562  0.00  0.00    +0.215 C 
ATOM     19  O   UNL     1       0.497  -4.570   1.499  0.00  0.00    -0.276 OA
ATOM     20  N   UNL     1       1.712  -5.104  -0.279  0.00  0.00    -0.329 N 
ATOM     21  H   UNL     1       2.253  -4.808  -1.028  0.00  0.00    +0.145 HD
ATOM     22  H   UNL     1       1.560  -6.052  -0.135  0.00  0.00    +0.145 HD
ENDBRANCH   5  18
TORSDOF 3
