REMARK  Name = ZINC31808116
REMARK  7 active torsions:
REMARK  status: ('A' for Active; 'I' for Inactive)
REMARK    1  A    between atoms: C_1  and  O_2
REMARK    2  A    between atoms: O_2  and  C_3
REMARK    3  A    between atoms: C_3  and  C_5
REMARK    4  A    between atoms: C_5  and  C_6
REMARK    5  A    between atoms: C_6  and  C_7
REMARK    6  A    between atoms: C_7  and  N_8
REMARK    7  A    between atoms: C_20  and  C_22
REMARK                            x       y       z     vdW  Elec       q    Type
REMARK                         _______ _______ _______ _____ _____    ______ ____
ROOT
ATOM      1  N   UNL     1       1.979  -6.455   3.115  0.00  0.00    -0.299 N 
ATOM      2  C   UNL     1       2.451  -5.632   4.072  0.00  0.00    +0.303 C 
ATOM      3  O   UNL     1       2.393  -4.427   3.921  0.00  0.00    -0.253 OA
ATOM      4  N   UNL     1       2.987  -6.144   5.198  0.00  0.00    -0.273 N 
ATOM      5  C   UNL     1       3.400  -5.266   6.303  0.00  0.00    +0.116 C 
ATOM      6  C   UNL     1       2.534  -5.567   7.533  0.00  0.00    +0.074 C 
ATOM      7  C   UNL     1       2.433  -7.060   7.703  0.00  0.00    +0.040 A 
ATOM      8  C   UNL     1       2.710  -7.966   6.741  0.00  0.00    +0.062 A 
ATOM      9  N   UNL     1       2.506  -9.184   7.247  0.00  0.00    -0.348 N 
ATOM     10  C   UNL     1       2.116  -9.072   8.490  0.00  0.00    +0.171 A 
ATOM     11  N   UNL     1       2.060  -7.759   8.811  0.00  0.00    -0.349 N 
ATOM     12  H   UNL     1       1.802  -7.385   9.668  0.00  0.00    +0.166 HD
ATOM     13  C   UNL     1       3.167  -7.599   5.354  0.00  0.00    +0.159 C 
ATOM     14  H   UNL     1       2.091  -7.415   3.203  0.00  0.00    +0.150 HD
ATOM     15  H   UNL     1       2.629 -10.020   6.769  0.00  0.00    +0.167 HD
ENDROOT
BRANCH  13  16
ATOM     16  C   UNL     1       4.622  -7.956   5.187  0.00  0.00    +0.015 A 
ATOM     17  C   UNL     1       5.395  -8.243   6.296  0.00  0.00    +0.028 A 
ATOM     18  C   UNL     1       6.730  -8.572   6.143  0.00  0.00    +0.041 A 
ATOM     19  C   UNL     1       7.292  -8.612   4.880  0.00  0.00    +0.023 A 
ATOM     20  C   UNL     1       6.521  -8.325   3.770  0.00  0.00    +0.040 A 
ATOM     21  C   UNL     1       5.183  -8.002   3.922  0.00  0.00    +0.129 A 
ATOM     22  F   UNL     1       4.427  -7.726   2.837  0.00  0.00    -0.205 F 
ATOM     23 CL   UNL     1       7.700  -8.932   7.537  0.00  0.00    -0.084 Cl
ENDBRANCH  13  16
BRANCH   1  24
ATOM     24  C   UNL     1       1.297  -5.901   1.943  0.00  0.00    +0.106 C 
BRANCH  24  25
ATOM     25  C   UNL     1       0.864  -7.040   1.019  0.00  0.00    +0.030 C 
BRANCH  25  26
ATOM     26  C   UNL     1       0.152  -6.461  -0.205  0.00  0.00    +0.122 C 
BRANCH  26  27
ATOM     27  C   UNL     1      -0.274  -7.583  -1.116  0.00  0.00    +0.307 C 
ATOM     28  O   UNL     1      -0.033  -8.729  -0.817  0.00  0.00    -0.251 OA
BRANCH  27  30
ATOM     29  C   UNL     1      -1.296  -8.423  -3.075  0.00  0.00    +0.280 C 
ATOM     30  O   UNL     1      -0.922  -7.311  -2.260  0.00  0.00    -0.468 OA
ENDBRANCH  27  30
ENDBRANCH  26  27
ENDBRANCH  25  26
ENDBRANCH  24  25
ENDBRANCH   1  24
TORSDOF 6
