REMARK  Name = ZINC38651089
REMARK  12 active torsions:
REMARK  status: ('A' for Active; 'I' for Inactive)
REMARK    1  A    between atoms: C_1  and  C_2
REMARK    2  A    between atoms: C_2  and  C_4
REMARK    3  A    between atoms: C_2  and  O_28
REMARK    4  A    between atoms: C_4  and  O_6
REMARK    5  A    between atoms: O_6  and  C_7
REMARK    6  A    between atoms: C_14  and  N_27
REMARK    7  A    between atoms: C_15  and  C_25
REMARK    8  A    between atoms: C_16  and  C_18
REMARK    9  A    between atoms: O_28  and  C_29
REMARK   10  A    between atoms: C_32  and  C_35
REMARK   11  A    between atoms: C_35  and  C_36
REMARK   12  A    between atoms: C_35  and  C_37
REMARK                            x       y       z     vdW  Elec       q    Type
REMARK                         _______ _______ _______ _____ _____    ______ ____
ROOT
ATOM      1  C   UNL     1       2.596  -0.497   2.746  0.00  0.00    +0.135 A 
ATOM      2  C   UNL     1       1.874  -1.337   3.582  0.00  0.00    +0.047 A 
ATOM      3  C   UNL     1       2.442  -1.801   4.752  0.00  0.00    +0.012 A 
ATOM      4  C   UNL     1       3.730  -1.433   5.096  0.00  0.00    +0.008 A 
ATOM      5  C   UNL     1       4.457  -0.594   4.264  0.00  0.00    +0.138 A 
ATOM      6  C   UNL     1       3.889  -0.131   3.084  0.00  0.00    +0.093 A 
ATOM      7  O   UNL     1       5.721  -0.222   4.584  0.00  0.00    -0.441 OA
ATOM      8  C   UNL     1       6.150  -0.329   5.852  0.00  0.00    +0.199 C 
ATOM      9  C   UNL     1       5.534  -1.131   6.752  0.00  0.00    +0.098 C 
ATOM     10  C   UNL     1       4.332  -1.950   6.375  0.00  0.00    +0.099 C 
ENDROOT
BRANCH  10  11
ATOM     11  C   UNL     1       4.745  -3.387   6.188  0.00  0.00    -0.016 A 
ATOM     12  C   UNL     1       5.681  -3.717   5.225  0.00  0.00    +0.006 A 
ATOM     13  C   UNL     1       6.059  -5.035   5.053  0.00  0.00    +0.000 A 
ATOM     14  C   UNL     1       5.503  -6.024   5.843  0.00  0.00    +0.001 A 
ATOM     15  C   UNL     1       4.568  -5.695   6.806  0.00  0.00    +0.020 A 
ATOM     16  C   UNL     1       4.192  -4.375   6.983  0.00  0.00    +0.045 A 
ATOM     17 CL   UNL     1       3.022  -3.960   8.196  0.00  0.00    -0.083 Cl
ENDBRANCH  10  11
BRANCH   8  18
ATOM     18  N   UNL     1       7.246   0.397   6.247  0.00  0.00    -0.328 N 
ATOM     19  H   UNL     1       7.698   0.977   5.614  0.00  0.00    +0.145 HD
ATOM     20  H   UNL     1       7.568   0.331   7.160  0.00  0.00    +0.145 HD
ENDBRANCH   8  18
BRANCH   9  21
ATOM     21  C   UNL     1       6.040  -1.202   8.090  0.00  0.00    +0.101 C 
ATOM     22  N   UNL     1       6.441  -1.258   9.152  0.00  0.00    -0.191 NA
ENDBRANCH   9  21
BRANCH   1  23
ATOM     23  O   UNL     1       2.039  -0.039   1.594  0.00  0.00    -0.423 OA
BRANCH  23  24
ATOM     24  C   UNL     1       1.120   0.936   1.683  0.00  0.00    +0.353 C 
ATOM     25  O   UNL     1       0.880   1.444   2.752  0.00  0.00    -0.246 OA
BRANCH  24  27
ATOM     26  C   UNL     1       1.382   2.045  -0.520  0.00  0.00    +0.064 C 
ATOM     27  C   UNL     1       0.390   1.398   0.448  0.00  0.00    +0.279 C 
BRANCH  27  28
ATOM     28  O   UNL     1      -0.609   2.352   0.815  0.00  0.00    -0.478 OA
BRANCH  28  29
ATOM     29  C   UNL     1      -1.672   2.484  -0.021  0.00  0.00    +0.122 A 
ATOM     30  C   UNL     1      -1.702   1.792  -1.223  0.00  0.00    +0.046 A 
ATOM     31  C   UNL     1      -2.784   1.927  -2.071  0.00  0.00    +0.007 A 
ATOM     32  C   UNL     1      -3.837   2.753  -1.723  0.00  0.00    -0.045 A 
ATOM     33  C   UNL     1      -3.810   3.445  -0.526  0.00  0.00    +0.007 A 
ATOM     34  C   UNL     1      -2.733   3.308   0.328  0.00  0.00    +0.046 A 
BRANCH  32  35
ATOM     35  C   UNL     1      -5.016   2.899  -2.650  0.00  0.00    +0.013 C 
ATOM     36  C   UNL     1      -6.289   2.446  -1.932  0.00  0.00    +0.012 C 
ATOM     37  C   UNL     1      -5.159   4.365  -3.066  0.00  0.00    +0.012 C 
ENDBRANCH  32  35
ENDBRANCH  28  29
ENDBRANCH  27  28
ENDBRANCH  24  27
ENDBRANCH  23  24
ENDBRANCH   1  23
TORSDOF 9
