REMARK  Name = ZINC32769093
REMARK  4 active torsions:
REMARK  status: ('A' for Active; 'I' for Inactive)
REMARK    1  A    between atoms: C_7  and  C_12
REMARK    2  A    between atoms: C_12  and  C_13
REMARK    3  A    between atoms: N_15  and  C_16
REMARK    4  A    between atoms: C_21  and  N_22
REMARK                            x       y       z     vdW  Elec       q    Type
REMARK                         _______ _______ _______ _____ _____    ______ ____
ROOT
ATOM      1  C   UNL     1      -2.298  -0.765  -1.043  0.00  0.00    +0.221 C 
ATOM      2  O   UNL     1      -2.852  -0.685   0.033  0.00  0.00    -0.275 OA
ATOM      3  N   UNL     1      -2.997  -0.559  -2.177  0.00  0.00    -0.284 N 
ATOM      4  H   UNL     1      -2.481  -0.559  -3.149  0.00  0.00    +0.155 HD
ENDROOT
BRANCH   3   5
ATOM      5  C   UNL     1      -4.380  -0.346  -2.119  0.00  0.00    +0.055 A 
ATOM      6  C   UNL     1      -4.933   0.344  -1.050  0.00  0.00    +0.025 A 
ATOM      7  C   UNL     1      -6.298   0.557  -0.997  0.00  0.00    +0.002 A 
ATOM      8  C   UNL     1      -7.117   0.074  -2.002  0.00  0.00    +0.002 A 
ATOM      9  C   UNL     1      -6.575  -0.619  -3.067  0.00  0.00    +0.025 A 
ATOM     10  C   UNL     1      -5.206  -0.833  -3.132  0.00  0.00    +0.057 A 
BRANCH  10  11
ATOM     11  N   UNL     1      -4.655  -1.535  -4.211  0.00  0.00    -0.270 N 
ATOM     12  C   UNL     1      -4.458  -2.989  -4.238  0.00  0.00    +0.114 C 
ATOM     13  C   UNL     1      -4.255  -3.348  -5.729  0.00  0.00    +0.029 C 
ATOM     14  C   UNL     1      -3.706  -2.019  -6.299  0.00  0.00    +0.098 C 
ATOM     15  C   UNL     1      -4.233  -0.964  -5.352  0.00  0.00    +0.220 C 
ATOM     16  O   UNL     1      -4.269   0.225  -5.588  0.00  0.00    -0.275 OA
ENDBRANCH  10  11
ENDBRANCH   3   5
BRANCH   1  17
ATOM     17  C   UNL     1      -0.829  -1.093  -1.112  0.00  0.00    +0.145 C 
BRANCH  17  24
ATOM     18  C   UNL     1       3.200  -2.875  -0.179  0.00  0.00    +0.000 A 
ATOM     19  C   UNL     1       3.921  -1.891   0.473  0.00  0.00    +0.001 A 
ATOM     20  C   UNL     1       3.275  -0.800   1.018  0.00  0.00    +0.015 A 
ATOM     21  C   UNL     1       1.887  -0.690   0.909  0.00  0.00    +0.066 A 
ATOM     22  C   UNL     1       1.169  -1.689   0.248  0.00  0.00    +0.007 A 
ATOM     23  C   UNL     1       1.823  -2.772  -0.291  0.00  0.00    +0.008 A 
ATOM     24  C   UNL     1      -0.280  -1.277   0.304  0.00  0.00    +0.216 C 
ATOM     25  O   UNL     1      -0.321  -0.014   1.022  0.00  0.00    -0.453 OA
ATOM     26  C   UNL     1       0.929   0.330   1.374  0.00  0.00    +0.340 C 
ATOM     27  O   UNL     1       1.227   1.335   1.987  0.00  0.00    -0.245 OA
ENDBRANCH  17  24
ENDBRANCH   1  17
TORSDOF 4
