REMARK  Name = ZINC22066464
REMARK  11 active torsions:
REMARK  status: ('A' for Active; 'I' for Inactive)
REMARK    1  A    between atoms: C_3  and  N_34
REMARK    2  A    between atoms: C_6  and  C_7
REMARK    3  A    between atoms: C_7  and  N_8
REMARK    4  A    between atoms: N_15  and  C_18
REMARK    5  A    between atoms: C_20  and  O_33
REMARK    6  A    between atoms: C_22  and  O_32
REMARK    7  A    between atoms: C_24  and  C_27
REMARK    8  A    between atoms: C_27  and  S_28
REMARK    9  A    between atoms: S_28  and  C_29
REMARK   10  A    between atoms: C_29  and  C_30
REMARK   11  A    between atoms: C_30  and  N_31
REMARK                            x       y       z     vdW  Elec       q    Type
REMARK                         _______ _______ _______ _____ _____    ______ ____
ROOT
ATOM      1  N   UNL     1       7.611   5.866   6.577  0.00  0.00    -0.323 N 
ATOM      2  C   UNL     1       7.522   6.012   5.203  0.00  0.00    +0.150 A 
ATOM      3  C   UNL     1       6.370   5.603   4.510  0.00  0.00    +0.147 A 
ATOM      4  C   UNL     1       6.341   5.771   3.115  0.00  0.00    +0.167 A 
ATOM      5  N   UNL     1       7.395   6.305   2.507  0.00  0.00    -0.216 NA
ATOM      6  C   UNL     1       8.455   6.670   3.197  0.00  0.00    +0.225 A 
ATOM      7  N   UNL     1       8.530   6.529   4.508  0.00  0.00    -0.219 NA
ATOM      8  N   UNL     1       5.120   5.300   2.703  0.00  0.00    -0.286 N 
ATOM      9  C   UNL     1       4.457   4.861   3.810  0.00  0.00    +0.203 A 
ATOM     10  N   UNL     1       5.192   5.040   4.869  0.00  0.00    -0.231 NA
ATOM     11  H   UNL     1       6.774   5.426   7.138  0.00  0.00    +0.148 HD
ENDROOT
BRANCH   8  12
ATOM     12  C   UNL     1       4.623   5.268   1.325  0.00  0.00    +0.253 C 
ATOM     13  C   UNL     1       3.906   6.592   0.981  0.00  0.00    +0.195 C 
ATOM     14  C   UNL     1       2.722   6.157   0.089  0.00  0.00    +0.177 C 
ATOM     15  C   UNL     1       2.864   4.621  -0.001  0.00  0.00    +0.162 C 
ATOM     16  O   UNL     1       3.609   4.250   1.180  0.00  0.00    -0.347 OA
BRANCH  14  17
ATOM     17  O   UNL     1       1.479   6.510   0.699  0.00  0.00    -0.386 OA
ATOM     18  H   UNL     1       0.531   6.271   0.195  0.00  0.00    +0.210 HD
ENDBRANCH  14  17
BRANCH  13  19
ATOM     19  O   UNL     1       3.433   7.229   2.170  0.00  0.00    -0.385 OA
ATOM     20  H   UNL     1       2.897   8.187   2.105  0.00  0.00    +0.210 HD
ENDBRANCH  13  19
BRANCH  15  21
ATOM     21  C   UNL     1       1.486   3.957   0.009  0.00  0.00    +0.103 C 
BRANCH  21  22
ATOM     22  S   UNL     1       1.683   2.154  -0.002  0.00  0.00    -0.160 S 
BRANCH  22  23
ATOM     23  C   UNL     1      -0.019   1.526   0.010  0.00  0.00    +0.050 C 
BRANCH  23  24
ATOM     24  C   UNL     1       0.002  -0.004   0.002  0.00  0.00    -0.076 C 
BRANCH  24  25
ATOM     25  N   UNL     1      -1.376  -0.512   0.012  0.00  0.00    +0.379 N 
ATOM     26  H   UNL     1      -1.361  -1.612   0.006  0.00  0.00    -0.090 HD
ATOM     27  H   UNL     1      -1.908  -0.148  -0.879  0.00  0.00    -0.090 HD
ATOM     28  H   UNL     1      -1.891  -0.158   0.917  0.00  0.00    -0.090 HD
ENDBRANCH  24  25
ENDBRANCH  23  24
ENDBRANCH  22  23
ENDBRANCH  21  22
ENDBRANCH  15  21
ENDBRANCH   8  12
BRANCH   1  29
ATOM     29  C   UNL     1       8.820   6.299   7.282  0.00  0.00    +0.138 C 
BRANCH  29  35
ATOM     30  C   UNL     1       8.121   7.001   9.581  0.00  0.00    +0.007 A 
ATOM     31  C   UNL     1       7.973   6.756  10.933  0.00  0.00    +0.033 A 
ATOM     32  C   UNL     1       8.374   5.544  11.463  0.00  0.00    +0.126 A 
ATOM     33  C   UNL     1       8.921   4.577  10.641  0.00  0.00    +0.033 A 
ATOM     34  C   UNL     1       9.065   4.821   9.288  0.00  0.00    +0.007 A 
ATOM     35  C   UNL     1       8.662   6.032   8.757  0.00  0.00    -0.030 A 
BRANCH  32  36
ATOM     36  N   UNL     1       8.220   5.282  12.912  0.00  0.00    +0.056 N 
ATOM     37  O   UNL     1       8.574   4.214  13.379  0.00  0.00    -0.126 OA
ATOM     38  O   UNL     1       7.738   6.134  13.637  0.00  0.00    -0.126 OA
ENDBRANCH  32  36
ENDBRANCH  29  35
ENDBRANCH   1  29
TORSDOF 11
