REMARK  Name = ZINC39922727
REMARK  5 active torsions:
REMARK  status: ('A' for Active; 'I' for Inactive)
REMARK    1  A    between atoms: C_3  and  C_10
REMARK    2  A    between atoms: C_5  and  N_7
REMARK    3  A    between atoms: N_11  and  N_12
REMARK    4  A    between atoms: C_13  and  C_15
REMARK    5  A    between atoms: C_18  and  C_21
REMARK                            x       y       z     vdW  Elec       q    Type
REMARK                         _______ _______ _______ _____ _____    ______ ____
ROOT
ATOM      1  C   UNL     1       6.138   6.285  -0.029  0.00  0.00    +0.240 C 
ATOM      2  C   UNL     1       6.719   6.388   1.370  0.00  0.00    +0.041 C 
ATOM      3  C   UNL     1       6.727   7.713   1.619  0.00  0.00    +0.092 C 
ATOM      4  N   UNL     1       6.229   8.398   0.556  0.00  0.00    -0.153 NA
ATOM      5  N   UNL     1       5.883   7.688  -0.395  0.00  0.00    -0.170 NA
ENDROOT
BRANCH   3   6
ATOM      6  C   UNL     1       7.209   8.335   2.874  0.00  0.00    +0.010 A 
ATOM      7  C   UNL     1       7.584   7.551   3.956  0.00  0.00    +0.011 A 
ATOM      8  C   UNL     1       8.041   8.108   5.148  0.00  0.00    +0.005 A 
ATOM      9  C   UNL     1       8.134   9.461   5.290  0.00  0.00    -0.039 A 
ATOM     10  C   UNL     1       7.763  10.264   4.216  0.00  0.00    -0.011 A 
ATOM     11  C   UNL     1       7.303   9.741   2.996  0.00  0.00    -0.008 A 
ATOM     12  C   UNL     1       6.962  10.645   1.980  0.00  0.00    +0.009 A 
ATOM     13  C   UNL     1       7.096  11.983   2.216  0.00  0.00    +0.001 A 
ATOM     14  C   UNL     1       7.561  12.482   3.435  0.00  0.00    +0.004 A 
ATOM     15  C   UNL     1       7.890  11.631   4.446  0.00  0.00    -0.039 A 
ATOM     16  C   UNL     1       8.414  11.807   5.850  0.00  0.00    +0.040 C 
ATOM     17  C   UNL     1       8.575  10.376   6.408  0.00  0.00    +0.040 C 
ENDBRANCH   3   6
BRANCH   1  19
ATOM     18  N   UNL     1       4.890   4.149  -0.030  0.00  0.00    -0.205 N 
ATOM     19  C   UNL     1       4.854   5.497  -0.015  0.00  0.00    +0.263 C 
ATOM     20  O   UNL     1       3.788   6.075   0.010  0.00  0.00    -0.271 OA
ATOM     21  H   UNL     1       5.742   3.687  -0.051  0.00  0.00    +0.177 HD
BRANCH  18  23
ATOM     22  C   UNL     1       3.730   2.120  -0.032  0.00  0.00    +0.138 C 
ATOM     23  N   UNL     1       3.696   3.417  -0.017  0.00  0.00    -0.188 NA
BRANCH  22  26
ATOM     24  C   UNL     1       0.072   1.282   0.023  0.00  0.00    +0.003 A 
ATOM     25  C   UNL     1       1.244   2.010   0.011  0.00  0.00    +0.009 A 
ATOM     26  C   UNL     1       2.473   1.348  -0.018  0.00  0.00    -0.003 A 
ATOM     27  C   UNL     1       2.507  -0.048  -0.034  0.00  0.00    +0.042 A 
ATOM     28  C   UNL     1       1.327  -0.763  -0.022  0.00  0.00    +0.127 A 
ATOM     29  C   UNL     1       0.113  -0.100   0.007  0.00  0.00    +0.033 A 
BRANCH  28  30
ATOM     30  N   UNL     1       1.361  -2.243  -0.039  0.00  0.00    +0.056 N 
ATOM     31  O   UNL     1       2.421  -2.823  -0.064  0.00  0.00    -0.126 OA
ATOM     32  O   UNL     1       0.328  -2.871  -0.028  0.00  0.00    -0.126 OA
ENDBRANCH  28  30
ENDBRANCH  22  26
ENDBRANCH  18  23
ENDBRANCH   1  19
TORSDOF 5
