REMARK  Name = ZINC35486452
REMARK  10 active torsions:
REMARK  status: ('A' for Active; 'I' for Inactive)
REMARK    1  A    between atoms: C_1  and  C_2
REMARK    2  A    between atoms: C_2  and  N_3
REMARK    3  A    between atoms: N_3  and  C_4
REMARK    4  A    between atoms: N_3  and  C_6
REMARK    5  A    between atoms: C_4  and  C_5
REMARK    6  A    between atoms: C_6  and  C_7
REMARK    7  A    between atoms: C_7  and  N_8
REMARK    8  A    between atoms: C_9  and  C_25
REMARK    9  A    between atoms: C_29  and  O_31
REMARK   10  A    between atoms: O_31  and  C_32
REMARK                            x       y       z     vdW  Elec       q    Type
REMARK                         _______ _______ _______ _____ _____    ______ ____
ROOT
ATOM      1  N   UNL     1      -2.744  -3.824   0.267  0.00  0.00    -0.285 N 
ATOM      2  C   UNL     1      -2.848  -4.877  -0.757  0.00  0.00    +0.145 C 
ATOM      3  C   UNL     1      -2.890  -6.169  -0.010  0.00  0.00    +0.072 A 
ATOM      4  C   UNL     1      -2.999  -7.554  -0.480  0.00  0.00    +0.199 A 
ATOM      5  O   UNL     1      -2.901  -7.870  -1.653  0.00  0.00    -0.287 OA
ATOM      6  C   UNL     1      -3.242  -8.534   0.609  0.00  0.00    +0.066 A 
ATOM      7  C   UNL     1      -3.566  -9.857   0.308  0.00  0.00    +0.035 A 
ATOM      8  C   UNL     1      -3.793 -10.751   1.331  0.00  0.00    +0.042 A 
ATOM      9  C   UNL     1      -3.699 -10.335   2.653  0.00  0.00    +0.023 A 
ATOM     10  C   UNL     1      -3.378  -9.032   2.961  0.00  0.00    +0.048 A 
ATOM     11  C   UNL     1      -3.142  -8.108   1.943  0.00  0.00    +0.140 A 
ATOM     12  O   UNL     1      -2.818  -6.837   2.274  0.00  0.00    -0.450 OA
ATOM     13  C   UNL     1      -2.812  -5.882   1.323  0.00  0.00    +0.199 A 
ATOM     14  C   UNL     1      -2.719  -4.420   1.476  0.00  0.00    +0.283 C 
ATOM     15  O   UNL     1      -2.635  -3.835   2.538  0.00  0.00    -0.267 OA
ATOM     16 CL   UNL     1      -4.196 -12.400   0.968  0.00  0.00    -0.084 Cl
ENDROOT
BRANCH   2  17
ATOM     17  C   UNL     1      -4.110  -4.697  -1.561  0.00  0.00    -0.019 A 
ATOM     18  C   UNL     1      -5.281  -4.317  -0.932  0.00  0.00    +0.006 A 
ATOM     19  C   UNL     1      -6.441  -4.151  -1.666  0.00  0.00    +0.004 A 
ATOM     20  C   UNL     1      -6.432  -4.365  -3.031  0.00  0.00    +0.046 A 
ATOM     21  C   UNL     1      -5.258  -4.747  -3.665  0.00  0.00    +0.129 A 
ATOM     22  C   UNL     1      -4.094  -4.907  -2.926  0.00  0.00    +0.052 A 
BRANCH  21  23
ATOM     23  O   UNL     1      -5.247  -4.958  -5.007  0.00  0.00    -0.456 OA
BRANCH  23  24
ATOM     24  C   UNL     1      -4.107  -5.440  -5.567  0.00  0.00    +0.128 A 
ATOM     25  C   UNL     1      -3.778  -6.781  -5.428  0.00  0.00    +0.046 A 
ATOM     26  C   UNL     1      -2.618  -7.269  -5.998  0.00  0.00    +0.004 A 
ATOM     27  C   UNL     1      -1.786  -6.423  -6.708  0.00  0.00    +0.000 A 
ATOM     28  C   UNL     1      -2.111  -5.086  -6.848  0.00  0.00    +0.004 A 
ATOM     29  C   UNL     1      -3.273  -4.594  -6.285  0.00  0.00    +0.046 A 
ENDBRANCH  23  24
ENDBRANCH  21  23
ENDBRANCH   2  17
BRANCH   1  30
ATOM     30  C   UNL     1      -2.673  -2.383   0.015  0.00  0.00    +0.090 C 
BRANCH  30  31
ATOM     31  C   UNL     1      -1.210  -1.964  -0.142  0.00  0.00    -0.060 C 
BRANCH  31  32
ATOM     32  N   UNL     1      -1.145  -0.547  -0.525  0.00  0.00    +0.380 N 
ATOM     33  H   UNL     1      -1.697  -0.398  -1.356  0.00  0.00    -0.082 HD
BRANCH  32  35
ATOM     34  C   UNL     1      -1.720   1.744   0.123  0.00  0.00    -0.017 C 
ATOM     35  C   UNL     1      -1.672   0.281   0.568  0.00  0.00    -0.082 C 
ENDBRANCH  32  35
BRANCH  32  36
ATOM     36  C   UNL     1       0.251  -0.175  -0.792  0.00  0.00    -0.082 C 
ATOM     37  C   UNL     1       0.752  -0.926  -2.027  0.00  0.00    -0.017 C 
ENDBRANCH  32  36
ENDBRANCH  31  32
ENDBRANCH  30  31
ENDBRANCH   1  30
TORSDOF 8
