REMARK  Name = ZINC10213932
REMARK  5 active torsions:
REMARK  status: ('A' for Active; 'I' for Inactive)
REMARK    1  A    between atoms: C_1  and  C_2
REMARK    2  A    between atoms: C_2  and  C_3
REMARK    3  A    between atoms: C_2  and  N_55
REMARK    4  A    between atoms: C_13  and  C_15
REMARK    5  A    between atoms: C_20  and  O_21
REMARK                            x       y       z     vdW  Elec       q    Type
REMARK                         _______ _______ _______ _____ _____    ______ ____
ROOT
ATOM      1  C   UNL     1      -4.908  -0.028   0.686  0.00  0.00    -0.073 C 
ATOM      2  C   UNL     1      -5.213   0.803  -0.563  0.00  0.00    +0.052 C 
ATOM      3  C   UNL     1      -4.938   2.277  -0.271  0.00  0.00    +0.189 C 
ATOM      4  C   UNL     1      -5.767   2.730   0.929  0.00  0.00    +0.052 C 
ATOM      5  C   UNL     1      -5.444   1.842   2.133  0.00  0.00    -0.073 C 
ATOM      6  N   UNL     1      -3.512   2.477   0.001  0.00  0.00    -0.207 N 
ATOM      7  C   UNL     1      -2.965   3.837   0.210  0.00  0.00    +0.136 C 
ATOM      8  C   UNL     1      -1.456   3.628   0.035  0.00  0.00    +0.086 C 
ATOM      9  C   UNL     1      -1.301   2.121   0.020  0.00  0.00    +0.072 C 
ATOM     10  N   UNL     1      -2.470   1.567   0.023  0.00  0.00    -0.184 NA
ATOM     11  C   UNL     1      -3.549   4.702  -0.876  0.00  0.00    +0.017 A 
ATOM     12  C   UNL     1      -2.966   5.925  -1.151  0.00  0.00    +0.009 A 
ATOM     13  C   UNL     1      -3.492   6.745  -2.131  0.00  0.00    +0.001 A 
ATOM     14  C   UNL     1      -4.609   6.339  -2.837  0.00  0.00    +0.004 A 
ATOM     15  C   UNL     1      -5.189   5.118  -2.572  0.00  0.00    +0.046 A 
ATOM     16  C   UNL     1      -4.659   4.279  -1.591  0.00  0.00    +0.128 A 
ATOM     17  O   UNL     1      -5.255   3.072  -1.415  0.00  0.00    -0.467 OA
ATOM     18  N   UNL     1      -5.769   0.440   1.794  0.00  0.00    +0.381 N 
ATOM     19  H   UNL     1      -6.750   0.388   1.498  0.00  0.00    -0.081 HD
ENDROOT
BRANCH   9  20
ATOM     20  C   UNL     1      -0.017   1.397   0.010  0.00  0.00    +0.039 A 
ATOM     21  C   UNL     1       1.187   2.104   0.002  0.00  0.00    +0.013 A 
ATOM     22  C   UNL     1       2.385   1.421  -0.013  0.00  0.00    +0.001 A 
ATOM     23  C   UNL     1       2.399   0.037  -0.021  0.00  0.00    +0.004 A 
ATOM     24  C   UNL     1       1.214  -0.674  -0.013  0.00  0.00    +0.046 A 
ATOM     25  C   UNL     1       0.002  -0.004   0.002  0.00  0.00    +0.126 A 
BRANCH  25  26
ATOM     26  O   UNL     1      -1.163  -0.702   0.010  0.00  0.00    -0.506 OA
ATOM     27  H   UNL     1      -1.510  -0.899  -0.871  0.00  0.00    +0.292 HD
ENDBRANCH  25  26
ENDBRANCH   9  20
BRANCH  18  29
ATOM     28  C   UNL     1      -6.458   0.098   4.118  0.00  0.00    -0.014 C 
ATOM     29  C   UNL     1      -5.579  -0.422   2.979  0.00  0.00    -0.075 C 
ATOM     30  C   UNL     1      -5.997  -1.850   2.623  0.00  0.00    -0.014 C 
ENDBRANCH  18  29
TORSDOF 3
