REMARK  Name = ZINC59489411
REMARK  12 active torsions:
REMARK  status: ('A' for Active; 'I' for Inactive)
REMARK    1  A    between atoms: C_1  and  C_2
REMARK    2  A    between atoms: C_2  and  C_28
REMARK    3  A    between atoms: N_3  and  N_4
REMARK    4  A    between atoms: C_5  and  S_7
REMARK    5  A    between atoms: S_7  and  C_8
REMARK    6  A    between atoms: N_13  and  C_16
REMARK    7  A    between atoms: C_16  and  C_17
REMARK    8  A    between atoms: C_17  and  C_18
REMARK    9  A    between atoms: C_21  and  O_26
REMARK   10  A    between atoms: C_22  and  O_24
REMARK   11  A    between atoms: O_24  and  C_25
REMARK   12  A    between atoms: O_26  and  C_27
REMARK                            x       y       z     vdW  Elec       q    Type
REMARK                         _______ _______ _______ _____ _____    ______ ____
ROOT
ATOM      1  C   UNL     1       0.077  -1.099   6.313  0.00  0.00    +0.149 C 
ATOM      2  C   UNL     1       0.154  -0.495   7.730  0.00  0.00    +0.120 C 
ATOM      3  C   UNL     1      -1.120  -0.975   8.390  0.00  0.00    +0.223 C 
ATOM      4  O   UNL     1      -1.460  -0.724   9.526  0.00  0.00    -0.275 OA
ATOM      5  N   UNL     1      -1.813  -1.721   7.520  0.00  0.00    -0.241 N 
ATOM      6  C   UNL     1      -1.231  -1.860   6.319  0.00  0.00    +0.236 C 
ATOM      7  O   UNL     1      -1.680  -2.492   5.386  0.00  0.00    -0.274 OA
ENDROOT
BRANCH   1   8
ATOM      8  S   UNL     1       0.047   0.212   5.060  0.00  0.00    -0.078 S 
BRANCH   8  10
ATOM      9  N   UNL     1       0.024   0.034   2.341  0.00  0.00    -0.217 N 
ATOM     10  C   UNL     1       0.044  -0.661   3.529  0.00  0.00    +0.146 C 
ATOM     11  N   UNL     1       0.062  -1.965   3.522  0.00  0.00    -0.380 N 
ATOM     12  H   UNL     1       0.011   1.004   2.347  0.00  0.00    +0.176 HD
ATOM     13  H   UNL     1       0.077  -2.455   4.360  0.00  0.00    +0.158 HD
ATOM     14  H   UNL     1       0.061  -2.446   2.680  0.00  0.00    +0.158 HD
BRANCH   9  17
ATOM     15  C   UNL     1      -0.018   1.503   0.010  0.00  0.00    +0.068 C 
ATOM     16  C   UNL     1       0.002  -0.004   0.002  0.00  0.00    +0.070 C 
ATOM     17  N   UNL     1       0.022  -0.660   1.124  0.00  0.00    -0.185 NA
BRANCH  16  18
ATOM     18  C   UNL     1      -0.000  -0.731  -1.272  0.00  0.00    +0.035 A 
ATOM     19  C   UNL     1       0.011  -2.096  -1.498  0.00  0.00    +0.017 A 
ATOM     20  C   UNL     1       0.005  -2.543  -2.800  0.00  0.00    +0.008 A 
ATOM     21  C   UNL     1      -0.010  -1.639  -3.813  0.00  0.00    +0.046 A 
ATOM     22  S   UNL     1      -0.025  -0.085  -2.937  0.00  0.00    -0.095 S 
ENDBRANCH  16  18
ENDBRANCH   9  17
ENDBRANCH   8  10
ENDBRANCH   1   8
BRANCH   5  23
ATOM     23  C   UNL     1      -3.099  -2.338   7.853  0.00  0.00    +0.121 C 
BRANCH  23  24
ATOM     24  C   UNL     1      -4.233  -1.373   7.503  0.00  0.00    +0.054 C 
BRANCH  24  25
ATOM     25  C   UNL     1      -5.557  -2.007   7.845  0.00  0.00    -0.042 A 
ATOM     26  C   UNL     1      -6.219  -2.772   6.903  0.00  0.00    +0.007 A 
ATOM     27  C   UNL     1      -7.434  -3.356   7.213  0.00  0.00    +0.049 A 
ATOM     28  C   UNL     1      -7.989  -3.175   8.469  0.00  0.00    +0.161 A 
ATOM     29  C   UNL     1      -7.322  -2.406   9.418  0.00  0.00    +0.162 A 
ATOM     30  C   UNL     1      -6.103  -1.827   9.102  0.00  0.00    +0.053 A 
BRANCH  29  31
ATOM     31  O   UNL     1      -7.863  -2.226  10.652  0.00  0.00    -0.491 OA
ATOM     32  C   UNL     1      -7.122  -1.424  11.574  0.00  0.00    +0.277 C 
ENDBRANCH  29  31
BRANCH  28  33
ATOM     33  O   UNL     1      -9.184  -3.749   8.775  0.00  0.00    -0.491 OA
ATOM     34  C   UNL     1      -9.812  -4.525   7.753  0.00  0.00    +0.277 C 
ENDBRANCH  28  33
ENDBRANCH  24  25
ENDBRANCH  23  24
ENDBRANCH   5  23
TORSDOF 9
