REMARK  Name = ZINC20602326
REMARK  6 active torsions:
REMARK  status: ('A' for Active; 'I' for Inactive)
REMARK    1  A    between atoms: C_6  and  C_7
REMARK    2  A    between atoms: C_10  and  C_29
REMARK    3  A    between atoms: C_15  and  C_17
REMARK    4  A    between atoms: N_19  and  N_20
REMARK    5  A    between atoms: C_21  and  C_22
REMARK    6  A    between atoms: C_29  and  C_30
REMARK                            x       y       z     vdW  Elec       q    Type
REMARK                         _______ _______ _______ _____ _____    ______ ____
ROOT
ATOM      1  C   UNL     1      -1.935  -0.637  -0.225  0.00  0.00    +0.104 C 
ATOM      2  C   UNL     1      -1.952  -1.154   1.217  0.00  0.00    +0.060 C 
ATOM      3  C   UNL     1      -3.219  -1.982   1.460  0.00  0.00    +0.189 C 
ATOM      4  N   UNL     1      -3.354  -2.969   0.385  0.00  0.00    -0.241 N 
ATOM      5  C   UNL     1      -2.721  -2.867  -0.821  0.00  0.00    +0.119 A 
ATOM      6  C   UNL     1      -3.061  -3.937  -1.566  0.00  0.00    +0.078 A 
ATOM      7  C   UNL     1      -3.941  -4.731  -0.795  0.00  0.00    +0.151 A 
ATOM      8  N   UNL     1      -4.110  -4.140   0.375  0.00  0.00    -0.164 NA
ATOM      9  N   UNL     1      -1.884  -1.793  -1.142  0.00  0.00    -0.322 N 
ATOM     10  H   UNL     1      -1.302  -1.807  -1.918  0.00  0.00    +0.148 HD
ENDROOT
BRANCH   1  16
ATOM     11  C   UNL     1      -0.844   1.608  -0.407  0.00  0.00    +0.008 A 
ATOM     12  C   UNL     1       0.268   2.405  -0.602  0.00  0.00    +0.038 A 
ATOM     13  C   UNL     1       1.505   1.825  -0.826  0.00  0.00    +0.123 A 
ATOM     14  C   UNL     1       1.626   0.446  -0.856  0.00  0.00    +0.038 A 
ATOM     15  C   UNL     1       0.513  -0.349  -0.662  0.00  0.00    +0.008 A 
ATOM     16  C   UNL     1      -0.722   0.231  -0.437  0.00  0.00    -0.027 A 
ATOM     17  F   UNL     1       2.593   2.603  -1.017  0.00  0.00    -0.205 F 
ENDBRANCH   1  16
BRANCH   7  18
ATOM     18  C   UNL     1      -4.562  -6.001  -1.223  0.00  0.00    +0.283 C 
ATOM     19  O   UNL     1      -4.329  -6.449  -2.329  0.00  0.00    -0.267 OA
ATOM     20  N   UNL     1      -5.386  -6.663  -0.387  0.00  0.00    -0.202 N 
ATOM     21  H   UNL     1      -5.571  -6.305   0.495  0.00  0.00    +0.178 HD
BRANCH  20  22
ATOM     22  N   UNL     1      -5.975  -7.867  -0.793  0.00  0.00    -0.187 NA
ATOM     23  C   UNL     1      -6.769  -8.505   0.012  0.00  0.00    +0.138 C 
BRANCH  23  24
ATOM     24  C   UNL     1      -7.389  -9.773  -0.415  0.00  0.00    -0.003 A 
ATOM     25  C   UNL     1      -7.131 -10.310  -1.683  0.00  0.00    +0.029 A 
ATOM     26  C   UNL     1      -7.732 -11.498  -2.040  0.00  0.00    +0.111 A 
ATOM     27  N   UNL     1      -8.540 -12.127  -1.207  0.00  0.00    -0.263 NA
ATOM     28  C   UNL     1      -8.810 -11.656  -0.004  0.00  0.00    +0.111 A 
ATOM     29  C   UNL     1      -8.249 -10.477   0.438  0.00  0.00    +0.029 A 
ENDBRANCH  23  24
ENDBRANCH  20  22
ENDBRANCH   7  18
BRANCH   3  30
ATOM     30  C   UNL     1      -3.112  -2.700   2.807  0.00  0.00    +0.363 C 
ATOM     31  F   UNL     1      -4.224  -3.530   2.982  0.00  0.00    -0.193 F 
ATOM     32  F   UNL     1      -1.945  -3.471   2.833  0.00  0.00    -0.193 F 
BRANCH  30  33
ATOM     33  C   UNL     1      -3.066  -1.665   3.934  0.00  0.00    +0.456 C 
ATOM     34  F   UNL     1      -4.163  -0.805   3.822  0.00  0.00    -0.165 F 
ATOM     35  F   UNL     1      -3.109  -2.320   5.169  0.00  0.00    -0.165 F 
ATOM     36  F   UNL     1      -1.881  -0.926   3.839  0.00  0.00    -0.165 F 
ENDBRANCH  30  33
ENDBRANCH   3  30
TORSDOF 6
