REMARK  Name = ZINC27348282
REMARK  10 active torsions:
REMARK  status: ('A' for Active; 'I' for Inactive)
REMARK    1  A    between atoms: C_1  and  C_2
REMARK    2  A    between atoms: C_2  and  C_26
REMARK    3  A    between atoms: N_5  and  C_9
REMARK    4  A    between atoms: C_9  and  C_10
REMARK    5  A    between atoms: N_12  and  C_13
REMARK    6  A    between atoms: C_13  and  C_14
REMARK    7  A    between atoms: C_14  and  C_16
REMARK    8  A    between atoms: C_14  and  N_23
REMARK    9  A    between atoms: N_23  and  C_24
REMARK   10  A    between atoms: N_23  and  C_25
REMARK                            x       y       z     vdW  Elec       q    Type
REMARK                         _______ _______ _______ _____ _____    ______ ____
ROOT
ATOM      1  C   UNL     1       2.301   1.300   0.342  0.00  0.00    +0.213 C 
ENDROOT
BRANCH   1   6
ATOM      2  C   UNL     1       4.450   5.477   0.255  0.00  0.00    +0.047 C 
ATOM      3  C   UNL     1       4.850   4.002   0.322  0.00  0.00    +0.135 C 
ATOM      4  C   UNL     1       3.773   3.188   1.012  0.00  0.00    +0.251 C 
ATOM      5  O   UNL     1       3.378   3.313   2.151  0.00  0.00    -0.272 OA
ATOM      6  N   UNL     1       3.347   2.296   0.096  0.00  0.00    -0.215 N 
ATOM      7  C   UNL     1       4.001   2.428  -1.063  0.00  0.00    +0.310 C 
ATOM      8  O   UNL     1       3.795   1.734  -2.039  0.00  0.00    -0.252 OA
ATOM      9  N   UNL     1       4.911   3.419  -1.030  0.00  0.00    -0.281 N 
ATOM     10  H   UNL     1       5.618   3.821  -1.770  0.00  0.00    +0.152 HD
BRANCH   3  11
ATOM     11  C   UNL     1       6.171   3.841   1.029  0.00  0.00    -0.015 A 
ATOM     12  C   UNL     1       6.202   3.605   2.391  0.00  0.00    +0.009 A 
ATOM     13  C   UNL     1       7.413   3.452   3.039  0.00  0.00    +0.039 A 
ATOM     14  C   UNL     1       8.596   3.546   2.326  0.00  0.00    +0.123 A 
ATOM     15  C   UNL     1       8.564   3.788   0.963  0.00  0.00    +0.039 A 
ATOM     16  C   UNL     1       7.352   3.935   0.316  0.00  0.00    +0.009 A 
ATOM     17  F   UNL     1       9.780   3.403   2.960  0.00  0.00    -0.205 F 
ENDBRANCH   3  11
ENDBRANCH   1   6
BRANCH   1  18
ATOM     18  C   UNL     1       0.958   1.883  -0.017  0.00  0.00    +0.231 C 
ATOM     19  O   UNL     1       0.883   3.019  -0.436  0.00  0.00    -0.274 OA
ATOM     20  N   UNL     1      -0.158   1.143   0.129  0.00  0.00    -0.315 N 
ATOM     21  H   UNL     1      -0.090   0.114   0.513  0.00  0.00    +0.149 HD
BRANCH  20  22
ATOM     22  C   UNL     1      -1.463   1.708  -0.225  0.00  0.00    +0.093 C 
BRANCH  22  23
ATOM     23  C   UNL     1      -2.528   0.612  -0.159  0.00  0.00    -0.020 C 
BRANCH  23  24
ATOM     24  C   UNL     1      -3.889   1.218  -0.388  0.00  0.00    -0.041 A 
ATOM     25  C   UNL     1      -4.464   1.170  -1.644  0.00  0.00    +0.003 A 
ATOM     26  C   UNL     1      -5.713   1.723  -1.854  0.00  0.00    +0.000 A 
ATOM     27  C   UNL     1      -6.384   2.333  -0.810  0.00  0.00    +0.001 A 
ATOM     28  C   UNL     1      -5.808   2.386   0.445  0.00  0.00    +0.020 A 
ATOM     29  C   UNL     1      -4.559   1.829   0.656  0.00  0.00    +0.043 A 
ATOM     30 CL   UNL     1      -3.834   1.896   2.232  0.00  0.00    -0.083 Cl
ENDBRANCH  23  24
BRANCH  23  31
ATOM     31  N   UNL     1      -2.260  -0.395  -1.194  0.00  0.00    +0.382 N 
ATOM     32  C   UNL     1      -1.599   0.210  -2.358  0.00  0.00    -0.096 C 
ATOM     33  C   UNL     1      -1.464  -1.506  -0.655  0.00  0.00    -0.096 C 
ATOM     34  H   UNL     1      -3.226  -0.802  -1.528  0.00  0.00    -0.082 HD
ENDBRANCH  23  31
ENDBRANCH  22  23
ENDBRANCH  20  22
ENDBRANCH   1  18
TORSDOF 7
