REMARK  Name = ZINC44168807
REMARK  7 active torsions:
REMARK  status: ('A' for Active; 'I' for Inactive)
REMARK    1  A    between atoms: C_1  and  C_2
REMARK    2  A    between atoms: C_2  and  C_35
REMARK    3  A    between atoms: C_7  and  C_12
REMARK    4  A    between atoms: C_12  and  N_13
REMARK    5  A    between atoms: C_14  and  C_16
REMARK    6  A    between atoms: C_21  and  C_24
REMARK    7  A    between atoms: C_26  and  C_29
REMARK                            x       y       z     vdW  Elec       q    Type
REMARK                         _______ _______ _______ _____ _____    ______ ____
ROOT
ATOM      1  C   UNL     1       4.114   2.761   5.122  0.00  0.00    +0.027 C 
ATOM      2  C   UNL     1       4.830   1.546   5.723  0.00  0.00    +0.062 C 
ATOM      3  S   UNL     1       6.396   2.112   6.458  0.00  0.00    -0.163 S 
ATOM      4  C   UNL     1       5.869   3.523   7.480  0.00  0.00    +0.061 C 
ATOM      5  C   UNL     1       4.997   4.442   6.617  0.00  0.00    +0.010 C 
ATOM      6  N   UNL     1       3.798   3.723   6.180  0.00  0.00    +0.394 N 
ATOM      7  H   UNL     1       3.124   4.388   5.832  0.00  0.00    -0.084 HD
ATOM      8  H   UNL     1       3.401   3.232   6.966  0.00  0.00    -0.084 HD
ENDROOT
BRANCH   5   9
ATOM      9  C   UNL     1       4.590   5.649   7.423  0.00  0.00    +0.125 A 
ATOM     10  C   UNL     1       5.156   6.867   7.359  0.00  0.00    +0.074 A 
ATOM     11  C   UNL     1       4.482   7.712   8.273  0.00  0.00    +0.114 A 
ATOM     12  N   UNL     1       3.545   7.005   8.857  0.00  0.00    -0.078 NA
ATOM     13  O   UNL     1       3.597   5.694   8.324  0.00  0.00    -0.361 OA
BRANCH  11  14
ATOM     14  C   UNL     1       4.783   9.143   8.526  0.00  0.00    +0.004 A 
ATOM     15  C   UNL     1       5.809   9.776   7.827  0.00  0.00    +0.010 A 
ATOM     16  C   UNL     1       6.084  11.107   8.066  0.00  0.00    +0.001 A 
ATOM     17  C   UNL     1       5.344  11.813   8.997  0.00  0.00    +0.000 A 
ATOM     18  C   UNL     1       4.324  11.190   9.693  0.00  0.00    +0.001 A 
ATOM     19  C   UNL     1       4.036   9.861   9.458  0.00  0.00    +0.010 A 
ENDBRANCH  11  14
ENDBRANCH   5   9
BRANCH   1  21
ATOM     20  N   UNL     1       2.883   1.424   3.444  0.00  0.00    -0.316 N 
ATOM     21  C   UNL     1       2.839   2.313   4.457  0.00  0.00    +0.200 C 
ATOM     22  O   UNL     1       1.772   2.752   4.831  0.00  0.00    -0.278 OA
ATOM     23  H   UNL     1       3.736   1.073   3.145  0.00  0.00    +0.149 HD
BRANCH  20  24
ATOM     24  C   UNL     1       1.643   0.988   2.797  0.00  0.00    +0.108 C 
BRANCH  24  30
ATOM     25  C   UNL     1      -0.019   1.521   0.010  0.00  0.00    +0.011 C 
ATOM     26  C   UNL     1       0.002  -0.004   0.002  0.00  0.00    -0.029 C 
ATOM     27  C   UNL     1       1.110  -0.635  -0.859  0.00  0.00    -0.005 C 
ATOM     28  C   UNL     1       2.412   0.167  -0.822  0.00  0.00    +0.004 C 
ATOM     29  C   UNL     1       2.774   0.644   0.578  0.00  0.00    +0.005 C 
ATOM     30  C   UNL     1       1.972  -0.016   1.688  0.00  0.00    +0.010 C 
ATOM     31  C   UNL     1       0.704  -0.695   1.173  0.00  0.00    -0.000 C 
ATOM     32  C   UNL     1       1.105  -1.793   0.155  0.00  0.00    +0.008 C 
ATOM     33  C   UNL     1      -1.394  -0.579  -0.299  0.00  0.00    +0.011 C 
ENDBRANCH  24  30
ENDBRANCH  20  24
ENDBRANCH   1  21
TORSDOF 5
