REMARK  Name = ZINC20154838
REMARK  9 active torsions:
REMARK  status: ('A' for Active; 'I' for Inactive)
REMARK    1  A    between atoms: C_1  and  C_2
REMARK    2  A    between atoms: C_2  and  O_3
REMARK    3  A    between atoms: O_3  and  C_4
REMARK    4  A    between atoms: C_6  and  C_21
REMARK    5  A    between atoms: C_9  and  O_10
REMARK    6  A    between atoms: O_10  and  C_11
REMARK    7  A    between atoms: C_11  and  C_12
REMARK    8  A    between atoms: C_32  and  S_33
REMARK    9  A    between atoms: S_33  and  C_34
REMARK                            x       y       z     vdW  Elec       q    Type
REMARK                         _______ _______ _______ _____ _____    ______ ____
ROOT
ATOM      1  C   UNL     1       1.326  -2.069  -1.386  0.00  0.00    +0.162 A 
ATOM      2  C   UNL     1       0.551  -2.790  -0.501  0.00  0.00    +0.057 A 
ATOM      3  C   UNL     1       0.614  -4.191  -0.499  0.00  0.00    -0.021 A 
ATOM      4  C   UNL     1       1.466  -4.850  -1.397  0.00  0.00    +0.012 A 
ATOM      5  C   UNL     1       2.236  -4.122  -2.275  0.00  0.00    +0.050 A 
ATOM      6  C   UNL     1       2.167  -2.734  -2.279  0.00  0.00    +0.162 A 
ENDROOT
BRANCH   3   7
ATOM      7  C   UNL     1      -0.206  -4.962   0.438  0.00  0.00    +0.024 C 
ATOM      8  C   UNL     1      -0.757  -6.160   0.044  0.00  0.00    +0.079 C 
ATOM      9  C   UNL     1      -1.444  -7.066   1.010  0.00  0.00    +0.137 C 
ATOM     10  N   UNL     1      -2.112  -6.639   2.047  0.00  0.00    -0.284 NA
ATOM     11  N   UNL     1      -1.297  -8.431   0.690  0.00  0.00    -0.211 N 
ATOM     12  C   UNL     1      -1.021  -8.773  -0.619  0.00  0.00    +0.183 C 
ATOM     13  N   UNL     1      -0.773  -7.944  -1.609  0.00  0.00    -0.152 NA
ATOM     14  C   UNL     1      -0.708  -6.620  -1.366  0.00  0.00    +0.273 C 
ATOM     15  O   UNL     1      -0.606  -5.819  -2.281  0.00  0.00    -0.268 OA
ATOM     16  S   UNL     1      -1.063 -10.439  -0.599  0.00  0.00    +0.048 S 
ATOM     17  N   UNL     1      -1.315 -10.689   1.039  0.00  0.00    -0.185 NA
ATOM     18  C   UNL     1      -1.408  -9.486   1.537  0.00  0.00    +0.175 C 
ATOM     19  H   UNL     1      -2.181  -5.687   2.220  0.00  0.00    +0.188 HD
BRANCH  18  20
ATOM     20  S   UNL     1      -1.671  -9.238   3.261  0.00  0.00    -0.093 S 
ATOM     21  C   UNL     1      -1.746 -10.918   3.940  0.00  0.00    +0.093 C 
ENDBRANCH  18  20
ENDBRANCH   3   7
BRANCH   1  22
ATOM     22  O   UNL     1       1.267  -0.711  -1.391  0.00  0.00    -0.489 OA
BRANCH  22  24
ATOM     23  C   UNL     1       0.453   1.425  -0.604  0.00  0.00    +0.048 C 
ATOM     24  C   UNL     1       0.385  -0.096  -0.450  0.00  0.00    +0.226 C 
ENDBRANCH  22  24
ENDBRANCH   1  22
BRANCH   6  25
ATOM     25  O   UNL     1       2.925  -2.022  -3.152  0.00  0.00    -0.484 OA
BRANCH  25  26
ATOM     26  C   UNL     1       3.764  -2.765  -4.039  0.00  0.00    +0.264 C 
BRANCH  26  27
ATOM     27  C   UNL     1       4.524  -1.813  -4.927  0.00  0.00    -0.007 A 
ATOM     28  C   UNL     1       3.981  -1.415  -6.135  0.00  0.00    +0.011 A 
ATOM     29  C   UNL     1       4.674  -0.542  -6.953  0.00  0.00    +0.050 A 
ATOM     30  C   UNL     1       5.915  -0.064  -6.563  0.00  0.00    +0.166 A 
ATOM     31  C   UNL     1       6.461  -0.465  -5.347  0.00  0.00    +0.167 A 
ATOM     32  C   UNL     1       5.758  -1.336  -4.529  0.00  0.00    +0.056 A 
ATOM     33  O   UNL     1       7.676   0.137  -5.194  0.00  0.00    -0.453 OA
ATOM     34  C   UNL     1       8.050   0.587  -6.510  0.00  0.00    +0.466 C 
ATOM     35  O   UNL     1       6.788   0.789  -7.173  0.00  0.00    -0.453 OA
ENDBRANCH  26  27
ENDBRANCH  25  26
ENDBRANCH   6  25
TORSDOF 7
