REMARK  Name = ZINC13241721
REMARK  8 active torsions:
REMARK  status: ('A' for Active; 'I' for Inactive)
REMARK    1  A    between atoms: C_1  and  C_2
REMARK    2  A    between atoms: C_2  and  C_3
REMARK    3  A    between atoms: C_3  and  N_4
REMARK    4  A    between atoms: C_13  and  S_14
REMARK    5  A    between atoms: S_14  and  C_15
REMARK    6  A    between atoms: C_15  and  C_16
REMARK    7  A    between atoms: N_18  and  C_19
REMARK    8  A    between atoms: C_28  and  C_29
REMARK                            x       y       z     vdW  Elec       q    Type
REMARK                         _______ _______ _______ _____ _____    ______ ____
ROOT
ATOM      1  C   UNL     1      -1.410  -3.123  -3.894  0.00  0.00    +0.173 C 
ENDROOT
BRANCH   1   2
ATOM      2  C   UNL     1      -1.465  -2.554  -5.289  0.00  0.00    +0.228 C 
ATOM      3  O   UNL     1      -1.507  -1.353  -5.452  0.00  0.00    -0.275 OA
ATOM      4  N   UNL     1      -1.466  -3.380  -6.354  0.00  0.00    -0.284 N 
ATOM      5  H   UNL     1      -1.370  -4.337  -6.226  0.00  0.00    +0.155 HD
BRANCH   4   6
ATOM      6  C   UNL     1      -1.606  -2.859  -7.640  0.00  0.00    +0.048 A 
ATOM      7  C   UNL     1      -1.041  -1.655  -7.946  0.00  0.00    +0.032 A 
ATOM      8  C   UNL     1      -1.174  -1.126  -9.240  0.00  0.00    -0.016 A 
ATOM      9  C   UNL     1      -0.597   0.111  -9.579  0.00  0.00    +0.008 A 
ATOM     10  C   UNL     1      -0.746   0.602 -10.840  0.00  0.00    +0.001 A 
ATOM     11  C   UNL     1      -1.463  -0.103 -11.805  0.00  0.00    +0.001 A 
ATOM     12  C   UNL     1      -2.036  -1.303 -11.515  0.00  0.00    +0.008 A 
ATOM     13  C   UNL     1      -1.904  -1.844 -10.223  0.00  0.00    -0.017 A 
ATOM     14  C   UNL     1      -2.483  -3.077  -9.893  0.00  0.00    +0.025 A 
ATOM     15  C   UNL     1      -2.334  -3.581  -8.611  0.00  0.00    +0.085 A 
BRANCH  15  16
ATOM     16  C   UNL     1      -2.941  -4.878  -8.258  0.00  0.00    +0.388 C 
ATOM     17  O   UNL     1      -2.900  -5.275  -7.111  0.00  0.00    -0.241 OA
ATOM     18  O   UNL     1      -3.541  -5.622  -9.208  0.00  0.00    -0.241 OA
ENDBRANCH  15  16
ENDBRANCH   4   6
ENDBRANCH   1   2
BRANCH   1  19
ATOM     19  S   UNL     1      -1.422  -1.771  -2.690  0.00  0.00    -0.078 S 
BRANCH  19  29
ATOM     20  N   UNL     1      -1.344  -2.038   0.004  0.00  0.00    -0.287 N 
ATOM     21  C   UNL     1      -1.297  -2.710   1.170  0.00  0.00    +0.263 A 
ATOM     22  O   UNL     1      -1.294  -2.109   2.231  0.00  0.00    -0.267 OA
ATOM     23  C   UNL     1      -1.253  -4.139   1.144  0.00  0.00    +0.076 A 
ATOM     24  C   UNL     1      -1.198  -5.064   2.288  0.00  0.00    -0.023 A 
ATOM     25  C   UNL     1      -1.165  -6.376   2.006  0.00  0.00    -0.004 A 
ATOM     26  S   UNL     1      -1.200  -6.468   0.231  0.00  0.00    -0.073 S 
ATOM     27  C   UNL     1      -1.262  -4.732  -0.127  0.00  0.00    +0.117 A 
ATOM     28  N   UNL     1      -1.309  -4.012  -1.242  0.00  0.00    -0.216 NA
ATOM     29  C   UNL     1      -1.354  -2.696  -1.192  0.00  0.00    +0.173 A 
ATOM     30  C   UNL     1      -1.115  -7.223   3.250  0.00  0.00    +0.043 C 
ATOM     31  C   UNL     1      -1.556  -6.272   4.384  0.00  0.00    +0.010 C 
ATOM     32  C   UNL     1      -1.164  -4.897   3.809  0.00  0.00    +0.037 C 
BRANCH  20  33
ATOM     33  C   UNL     1      -1.390  -0.574   0.020  0.00  0.00    +0.127 C 
BRANCH  33  35
ATOM     34  C   UNL     1      -0.013   1.511   0.011  0.00  0.00    +0.005 C 
ATOM     35  C   UNL     1       0.035  -0.018  -0.006  0.00  0.00    +0.018 C 
ENDBRANCH  33  35
ENDBRANCH  20  33
ENDBRANCH  19  29
ENDBRANCH   1  19
TORSDOF 7
