REMARK  Name = ZINC59935929
REMARK  6 active torsions:
REMARK  status: ('A' for Active; 'I' for Inactive)
REMARK    1  A    between atoms: C_3  and  C_24
REMARK    2  A    between atoms: C_5  and  N_7
REMARK    3  A    between atoms: C_8  and  C_10
REMARK    4  A    between atoms: C_10  and  C_11
REMARK    5  A    between atoms: C_24  and  N_25
REMARK    6  A    between atoms: C_29  and  C_31
REMARK                            x       y       z     vdW  Elec       q    Type
REMARK                         _______ _______ _______ _____ _____    ______ ____
ROOT
ATOM      1  C   UNL     1       0.140   1.379  -0.616  0.00  0.00    +0.002 A 
ATOM      2  C   UNL     1       1.169   2.086  -0.021  0.00  0.00    +0.002 A 
ATOM      3  C   UNL     1       2.221   1.413   0.573  0.00  0.00    -0.062 A 
ATOM      4  C   UNL     1       2.246   0.032   0.575  0.00  0.00    +0.025 A 
ATOM      5  C   UNL     1       1.214  -0.681  -0.021  0.00  0.00    +0.034 A 
ATOM      6  C   UNL     1       0.159  -0.002  -0.617  0.00  0.00    +0.023 A 
ENDROOT
BRANCH   5   7
ATOM      7  N   UNL     1       1.237  -2.080  -0.021  0.00  0.00    -0.285 N 
ATOM      8  C   UNL     1       0.087  -2.773   0.087  0.00  0.00    +0.218 C 
ATOM      9  O   UNL     1      -0.975  -2.187   0.101  0.00  0.00    -0.275 OA
ATOM     10  H   UNL     1       2.082  -2.551  -0.100  0.00  0.00    +0.155 HD
BRANCH   8  11
ATOM     11  C   UNL     1       0.119  -4.276   0.192  0.00  0.00    +0.103 C 
BRANCH  11  12
ATOM     12  C   UNL     1      -1.310  -4.810   0.304  0.00  0.00    -0.019 C 
ATOM     13  C   UNL     1      -2.106  -4.403  -0.937  0.00  0.00    +0.011 C 
ATOM     14  C   UNL     1      -3.535  -4.937  -0.825  0.00  0.00    -0.009 C 
ATOM     15  C   UNL     1      -3.502  -6.463  -0.718  0.00  0.00    +0.007 C 
ATOM     16  C   UNL     1      -2.706  -6.871   0.523  0.00  0.00    -0.009 C 
ATOM     17  C   UNL     1      -1.277  -6.336   0.411  0.00  0.00    +0.011 C 
ATOM     18  C   UNL     1      -3.372  -6.287   1.770  0.00  0.00    +0.021 C 
ATOM     19  C   UNL     1      -3.405  -4.761   1.664  0.00  0.00    +0.027 C 
ATOM     20  C   UNL     1      -4.201  -4.353   0.423  0.00  0.00    +0.021 C 
ATOM     21  C   UNL     1      -1.976  -4.226   1.552  0.00  0.00    +0.025 C 
ATOM     22 BR   UNL     1      -4.261  -4.011   3.267  0.00  0.00    -0.084 Br
ENDBRANCH  11  12
ENDBRANCH   8  11
ENDBRANCH   5   7
BRANCH   3  23
ATOM     23  C   UNL     1       3.340   2.188   1.219  0.00  0.00    -0.042 C 
BRANCH  23  24
ATOM     24  N   UNL     1       3.018   2.429   2.632  0.00  0.00    +0.390 N 
ATOM     25  C   UNL     1       3.049   1.151   3.389  0.00  0.00    -0.077 C 
ATOM     26  C   UNL     1       3.259   1.613   4.853  0.00  0.00    -0.020 C 
ATOM     27  C   UNL     1       4.225   2.810   4.703  0.00  0.00    -0.008 C 
ATOM     28  C   UNL     1       4.049   3.290   3.251  0.00  0.00    +0.019 C 
ATOM     29  H   UNL     1       2.109   2.860   2.713  0.00  0.00    -0.080 HD
BRANCH  28  30
ATOM     30  C   UNL     1       3.594   4.726   3.236  0.00  0.00    +0.197 C 
ATOM     31  O   UNL     1       2.517   5.017   2.759  0.00  0.00    -0.278 OA
ATOM     32  N   UNL     1       4.383   5.688   3.753  0.00  0.00    -0.331 N 
ATOM     33  H   UNL     1       5.245   5.456   4.135  0.00  0.00    +0.145 HD
ATOM     34  H   UNL     1       4.091   6.613   3.744  0.00  0.00    +0.145 HD
ENDBRANCH  28  30
ENDBRANCH  23  24
ENDBRANCH   3  23
TORSDOF 6
