REMARK  Name = ZINC10211179
REMARK  7 active torsions:
REMARK  status: ('A' for Active; 'I' for Inactive)
REMARK    1  A    between atoms: C_1  and  C_2
REMARK    2  A    between atoms: C_6  and  N_9
REMARK    3  A    between atoms: C_7  and  C_8
REMARK    4  A    between atoms: C_13  and  S_15
REMARK    5  A    between atoms: S_15  and  C_16
REMARK    6  A    between atoms: C_16  and  C_17
REMARK    7  A    between atoms: N_19  and  N_20
REMARK                            x       y       z     vdW  Elec       q    Type
REMARK                         _______ _______ _______ _____ _____    ______ ____
ROOT
ATOM      1  C   UNL     1       0.232   1.521  -0.025  0.00  0.00    +0.173 C 
ENDROOT
BRANCH   1   2
ATOM      2  C   UNL     1      -0.470   2.011   1.214  0.00  0.00    +0.240 C 
ATOM      3  O   UNL     1      -1.584   2.485   1.133  0.00  0.00    -0.273 OA
ATOM      4  N   UNL     1       0.139   1.923   2.413  0.00  0.00    -0.223 N 
ATOM      5  H   UNL     1       1.029   1.544   2.478  0.00  0.00    +0.174 HD
BRANCH   4   6
ATOM      6  N   UNL     1      -0.514   2.380   3.566  0.00  0.00    -0.137 N 
ATOM      7  C   UNL     1      -1.066   1.572   4.495  0.00  0.00    +0.263 C 
ATOM      8  O   UNL     1      -1.091   0.359   4.492  0.00  0.00    -0.271 OA
ATOM      9  C   UNL     1      -1.647   2.496   5.540  0.00  0.00    +0.114 C 
ATOM     10  C   UNL     1      -0.982   2.255   6.891  0.00  0.00    +0.035 C 
ATOM     11  C   UNL     1      -1.563   3.219   7.928  0.00  0.00    +0.003 C 
ATOM     12  C   UNL     1      -3.073   2.998   8.038  0.00  0.00    +0.000 C 
ATOM     13  C   UNL     1      -3.729   3.267   6.682  0.00  0.00    +0.003 C 
ATOM     14  C   UNL     1      -3.156   2.304   5.640  0.00  0.00    +0.035 C 
ATOM     15  N   UNL     1      -1.331   3.841   5.042  0.00  0.00    -0.284 N 
ATOM     16  C   UNL     1      -0.662   3.671   3.885  0.00  0.00    +0.326 C 
ATOM     17  O   UNL     1      -0.244   4.588   3.206  0.00  0.00    -0.251 OA
ATOM     18  H   UNL     1      -1.555   4.684   5.465  0.00  0.00    +0.151 HD
ENDBRANCH   4   6
ENDBRANCH   1   2
BRANCH   1  19
ATOM     19  S   UNL     1      -0.839   1.774  -1.467  0.00  0.00    -0.088 S 
BRANCH  19  24
ATOM     20  N   UNL     1       1.586  -0.018  -6.419  0.00  0.00    -0.292 N 
ATOM     21  C   UNL     1       1.213   0.336  -5.128  0.00  0.00    +0.187 A 
ATOM     22  N   UNL     1       1.884   0.211  -4.000  0.00  0.00    -0.125 NA
ATOM     23  N   UNL     1       1.323   0.636  -2.818  0.00  0.00    -0.133 NA
ATOM     24  C   UNL     1       0.111   1.159  -2.817  0.00  0.00    +0.160 A 
ATOM     25  S   UNL     1      -0.305   1.083  -4.553  0.00  0.00    -0.024 S 
ATOM     26  H   UNL     1       1.018   0.215  -7.170  0.00  0.00    +0.154 HD
BRANCH  20  32
ATOM     27  C   UNL     1       4.942  -1.789  -9.544  0.00  0.00    +0.044 C 
ATOM     28  C   UNL     1       4.431  -1.583  -8.141  0.00  0.00    -0.046 A 
ATOM     29  C   UNL     1       5.146  -2.080  -7.066  0.00  0.00    +0.004 A 
ATOM     30  C   UNL     1       4.681  -1.893  -5.777  0.00  0.00    +0.002 A 
ATOM     31  C   UNL     1       3.504  -1.205  -5.559  0.00  0.00    +0.023 A 
ATOM     32  C   UNL     1       2.781  -0.710  -6.636  0.00  0.00    +0.036 A 
ATOM     33  C   UNL     1       3.251  -0.899  -7.930  0.00  0.00    -0.026 A 
ATOM     34  C   UNL     1       2.472  -0.359  -9.102  0.00  0.00    +0.046 C 
ENDBRANCH  20  32
ENDBRANCH  19  24
ENDBRANCH   1  19
TORSDOF 5
