REMARK  Name = ZINC08438661
REMARK  12 active torsions:
REMARK  status: ('A' for Active; 'I' for Inactive)
REMARK    1  A    between atoms: C_1  and  C_2
REMARK    2  A    between atoms: C_2  and  O_3
REMARK    3  A    between atoms: O_3  and  C_4
REMARK    4  A    between atoms: C_6  and  C_12
REMARK    5  A    between atoms: C_9  and  O_10
REMARK    6  A    between atoms: O_10  and  C_11
REMARK    7  A    between atoms: C_14  and  C_32
REMARK    8  A    between atoms: C_15  and  C_31
REMARK    9  A    between atoms: C_22  and  C_23
REMARK   10  A    between atoms: C_32  and  O_34
REMARK   11  A    between atoms: O_34  and  C_35
REMARK   12  A    between atoms: C_35  and  C_36
REMARK                            x       y       z     vdW  Elec       q    Type
REMARK                         _______ _______ _______ _____ _____    ______ ____
ROOT
ATOM      1  C   UNL     1       2.460   1.569   0.156  0.00  0.00    +0.162 C 
ATOM      2  C   UNL     1       3.152   1.459   1.495  0.00  0.00    +0.085 C 
ATOM      3  C   UNL     1       4.488   1.740   1.555  0.00  0.00    +0.053 C 
ATOM      4  N   UNL     1       5.151   2.100   0.463  0.00  0.00    -0.228 NA
ATOM      5  C   UNL     1       4.621   2.217  -0.728  0.00  0.00    +0.178 A 
ATOM      6  N   UNL     1       3.295   1.981  -1.008  0.00  0.00    -0.275 N 
ATOM      7  C   UNL     1       2.866   2.134  -2.268  0.00  0.00    +0.268 A 
ATOM      8  O   UNL     1       1.703   1.936  -2.563  0.00  0.00    -0.266 OA
ATOM      9  C   UNL     1       3.846   2.548  -3.284  0.00  0.00    +0.081 A 
ATOM     10  C   UNL     1       3.671   2.769  -4.611  0.00  0.00    +0.028 C 
ATOM     11  S   UNL     1       5.329   2.680  -2.297  0.00  0.00    -0.046 S 
ATOM     12  C   UNL     1       5.214   1.641   2.872  0.00  0.00    +0.066 C 
ENDROOT
BRANCH  10  13
ATOM     13  C   UNL     1       4.765   3.334  -5.413  0.00  0.00    -0.024 A 
ATOM     14  C   UNL     1       5.760   4.105  -4.801  0.00  0.00    +0.009 A 
ATOM     15  C   UNL     1       6.786   4.627  -5.558  0.00  0.00    +0.020 A 
ATOM     16  C   UNL     1       6.829   4.399  -6.924  0.00  0.00    +0.041 A 
ATOM     17  C   UNL     1       5.845   3.641  -7.538  0.00  0.00    +0.020 A 
ATOM     18  C   UNL     1       4.815   3.108  -6.793  0.00  0.00    +0.009 A 
ATOM     19 CL   UNL     1       8.121   5.067  -7.871  0.00  0.00    -0.084 Cl
ENDBRANCH  10  13
BRANCH   1  22
ATOM     20  C   UNL     1       0.588   4.827   0.550  0.00  0.00    +0.162 A 
ATOM     21  C   UNL     1       1.620   3.911   0.417  0.00  0.00    +0.055 A 
ATOM     22  C   UNL     1       1.337   2.564   0.295  0.00  0.00    -0.016 A 
ATOM     23  C   UNL     1       0.025   2.126   0.300  0.00  0.00    +0.010 A 
ATOM     24  C   UNL     1      -1.009   3.035   0.426  0.00  0.00    +0.050 A 
ATOM     25  C   UNL     1      -0.733   4.387   0.549  0.00  0.00    +0.162 A 
BRANCH  25  26
ATOM     26  O   UNL     1      -1.749   5.282   0.674  0.00  0.00    -0.491 OA
ATOM     27  C   UNL     1      -3.078   4.758   0.671  0.00  0.00    +0.277 C 
ENDBRANCH  25  26
BRANCH  20  28
ATOM     28  O   UNL     1       0.865   6.152   0.676  0.00  0.00    -0.489 OA
BRANCH  28  30
ATOM     29  C   UNL     1       2.360   8.046   0.812  0.00  0.00    +0.048 C 
ATOM     30  C   UNL     1       2.233   6.544   0.552  0.00  0.00    +0.226 C 
ENDBRANCH  28  30
ENDBRANCH  20  28
ENDBRANCH   1  22
BRANCH   2  31
ATOM     31  C   UNL     1       2.442   1.079   2.646  0.00  0.00    +0.339 C 
ATOM     32  O   UNL     1       3.028   0.942   3.705  0.00  0.00    -0.245 OA
BRANCH  31  33
ATOM     33  O   UNL     1       1.110   0.866   2.578  0.00  0.00    -0.462 OA
BRANCH  33  34
ATOM     34  C   UNL     1       0.434   0.589   3.806  0.00  0.00    +0.229 C 
ATOM     35  C   UNL     1      -1.031   0.254   3.518  0.00  0.00    +0.048 C 
ENDBRANCH  33  34
ENDBRANCH  31  33
ENDBRANCH   2  31
TORSDOF 8
