REMARK  Name = ZINC36875503
REMARK  9 active torsions:
REMARK  status: ('A' for Active; 'I' for Inactive)
REMARK    1  A    between atoms: C_1  and  C_2
REMARK    2  A    between atoms: C_2  and  C_3
REMARK    3  A    between atoms: C_3  and  C_4
REMARK    4  A    between atoms: C_4  and  C_28
REMARK    5  A    between atoms: N_7  and  C_11
REMARK    6  A    between atoms: C_11  and  C_12
REMARK    7  A    between atoms: N_17  and  C_18
REMARK    8  A    between atoms: C_28  and  C_29
REMARK    9  A    between atoms: C_29  and  C_30
REMARK                            x       y       z     vdW  Elec       q    Type
REMARK                         _______ _______ _______ _____ _____    ______ ____
ROOT
ATOM      1  C   UNL     1       0.902  -5.387   1.832  0.00  0.00    +0.238 C 
ATOM      2  O   UNL     1      -0.141  -5.783   1.357  0.00  0.00    -0.274 OA
ATOM      3  N   UNL     1       1.655  -6.213   2.585  0.00  0.00    -0.239 N 
ATOM      4  C   UNL     1       1.249  -7.479   2.809  0.00  0.00    +0.306 C 
ATOM      5  O   UNL     1       0.204  -7.875   2.333  0.00  0.00    -0.252 OA
ATOM      6  N   UNL     1       2.002  -8.305   3.562  0.00  0.00    -0.294 N 
ATOM      7  H   UNL     1       2.490  -5.897   2.966  0.00  0.00    +0.159 HD
ATOM      8  H   UNL     1       2.837  -7.989   3.942  0.00  0.00    +0.151 HD
ENDROOT
BRANCH   6   9
ATOM      9  C   UNL     1       1.561  -9.680   3.806  0.00  0.00    +0.037 C 
ATOM     10  C   UNL     1       0.207  -9.663   4.518  0.00  0.00    +0.029 C 
ATOM     11  C   UNL     1      -0.254 -11.100   4.772  0.00  0.00    -0.008 C 
ATOM     12  C   UNL     1       0.775 -11.817   5.649  0.00  0.00    +0.007 C 
ATOM     13  C   UNL     1       2.129 -11.835   4.937  0.00  0.00    -0.008 C 
ATOM     14  C   UNL     1       2.590 -10.398   4.682  0.00  0.00    +0.029 C 
ATOM     15  C   UNL     1       1.994 -12.571   3.602  0.00  0.00    +0.007 C 
ATOM     16  C   UNL     1       0.966 -11.853   2.726  0.00  0.00    -0.008 C 
ATOM     17  C   UNL     1      -0.389 -11.836   3.438  0.00  0.00    +0.007 C 
ATOM     18  C   UNL     1       1.426 -10.416   2.471  0.00  0.00    +0.029 C 
ENDBRANCH   6   9
BRANCH   1  19
ATOM     19  C   UNL     1       1.356  -3.972   1.582  0.00  0.00    +0.214 C 
BRANCH  19  23
ATOM     20  C   UNL     1      -1.413  -2.063   0.004  0.00  0.00    +0.113 C 
ATOM     21  C   UNL     1      -0.682  -2.594   1.222  0.00  0.00    +0.247 C 
ATOM     22  O   UNL     1      -0.982  -2.430   2.385  0.00  0.00    -0.273 OA
ATOM     23  N   UNL     1       0.371  -3.285   0.742  0.00  0.00    -0.215 N 
ATOM     24  C   UNL     1       0.407  -3.266  -0.595  0.00  0.00    +0.310 C 
ATOM     25  O   UNL     1       1.263  -3.820  -1.256  0.00  0.00    -0.252 OA
ATOM     26  N   UNL     1      -0.612  -2.565  -1.126  0.00  0.00    -0.285 N 
ATOM     27  H   UNL     1      -0.785  -2.418  -2.069  0.00  0.00    +0.151 HD
BRANCH  20  28
ATOM     28  C   UNL     1      -1.433  -0.534   0.013  0.00  0.00    +0.035 C 
BRANCH  28  30
ATOM     29  C   UNL     1      -0.019   1.526   0.010  0.00  0.00    +0.004 C 
ATOM     30  C   UNL     1       0.002  -0.004   0.002  0.00  0.00    -0.001 C 
ENDBRANCH  28  30
ENDBRANCH  20  28
BRANCH  20  31
ATOM     31  C   UNL     1      -2.837  -2.619  -0.057  0.00  0.00    +0.035 C 
BRANCH  31  32
ATOM     32  C   UNL     1      -2.788  -4.148  -0.064  0.00  0.00    -0.001 C 
ATOM     33  C   UNL     1      -4.212  -4.704  -0.125  0.00  0.00    +0.004 C 
ENDBRANCH  31  32
ENDBRANCH  20  31
ENDBRANCH  19  23
ENDBRANCH   1  19
TORSDOF 7
