REMARK  Name = ZINC12790850
REMARK  7 active torsions:
REMARK  status: ('A' for Active; 'I' for Inactive)
REMARK    1  A    between atoms: C_1  and  C_2
REMARK    2  A    between atoms: C_8  and  N_10
REMARK    3  A    between atoms: N_13  and  C_14
REMARK    4  A    between atoms: C_14  and  C_15
REMARK    5  A    between atoms: C_15  and  C_16
REMARK    6  A    between atoms: C_19  and  S_22
REMARK    7  A    between atoms: S_22  and  N_25
REMARK                            x       y       z     vdW  Elec       q    Type
REMARK                         _______ _______ _______ _____ _____    ______ ____
ROOT
ATOM      1  C   UNL     1       0.734   0.735  -5.970  0.00  0.00    +0.110 C 
ENDROOT
BRANCH   1   5
ATOM      2  N   UNL     1       0.010  -0.012  -2.444  0.00  0.00    -0.296 N 
ATOM      3  C   UNL     1       0.669   0.132  -3.610  0.00  0.00    +0.300 C 
ATOM      4  O   UNL     1       1.852  -0.141  -3.678  0.00  0.00    -0.253 OA
ATOM      5  N   UNL     1       0.017   0.578  -4.702  0.00  0.00    -0.299 N 
ATOM      6  H   UNL     1      -0.934   0.205  -2.390  0.00  0.00    +0.151 HD
ATOM      7  H   UNL     1      -0.926   0.796  -4.648  0.00  0.00    +0.150 HD
BRANCH   2  14
ATOM      8  C   UNL     1      -0.019   1.526   0.010  0.00  0.00    +0.009 C 
ATOM      9  C   UNL     1       0.002  -0.004   0.002  0.00  0.00    +0.006 C 
ATOM     10  C   UNL     1       0.742  -0.511   1.242  0.00  0.00    +0.005 C 
ATOM     11  C   UNL     1       0.763  -2.041   1.233  0.00  0.00    +0.000 C 
ATOM     12  C   UNL     1       1.479  -2.534  -0.026  0.00  0.00    +0.002 C 
ATOM     13  C   UNL     1       0.739  -2.027  -1.265  0.00  0.00    +0.022 C 
ATOM     14  C   UNL     1       0.718  -0.497  -1.257  0.00  0.00    +0.077 C 
ENDBRANCH   2  14
ENDBRANCH   1   5
BRANCH   1  15
ATOM     15  C   UNL     1      -0.230   1.252  -7.040  0.00  0.00    +0.054 C 
BRANCH  15  16
ATOM     16  C   UNL     1       0.508   1.413  -8.345  0.00  0.00    -0.046 A 
ATOM     17  C   UNL     1       1.118   2.616  -8.650  0.00  0.00    +0.005 A 
ATOM     18  C   UNL     1       1.798   2.762  -9.844  0.00  0.00    +0.029 A 
ATOM     19  C   UNL     1       1.860   1.709 -10.738  0.00  0.00    +0.105 A 
ATOM     20  C   UNL     1       1.245   0.508 -10.435  0.00  0.00    +0.029 A 
ATOM     21  C   UNL     1       0.569   0.361  -9.238  0.00  0.00    +0.005 A 
BRANCH  19  22
ATOM     22  S   UNL     1       2.722   1.897 -12.263  0.00  0.00    +0.056 S 
ATOM     23  O   UNL     1       3.672   2.936 -12.067  0.00  0.00    -0.153 OA
ATOM     24  O   UNL     1       3.096   0.592 -12.682  0.00  0.00    -0.153 OA
BRANCH  22  25
ATOM     25  N   UNL     1       1.632   2.457 -13.376  0.00  0.00    -0.204 NA
ATOM     26  H   UNL     1       1.930   3.022 -14.106  0.00  0.00    +0.144 HD
ATOM     27  H   UNL     1       0.694   2.221 -13.298  0.00  0.00    +0.144 HD
ENDBRANCH  22  25
ENDBRANCH  19  22
ENDBRANCH  15  16
ENDBRANCH   1  15
TORSDOF 6
