REMARK  Name = ZINC09252869
REMARK  8 active torsions:
REMARK  status: ('A' for Active; 'I' for Inactive)
REMARK    1  A    between atoms: C_1  and  C_2
REMARK    2  A    between atoms: C_2  and  C_3
REMARK    3  A    between atoms: C_2  and  N_4
REMARK    4  A    between atoms: N_4  and  S_5
REMARK    5  A    between atoms: S_5  and  C_8
REMARK    6  A    between atoms: C_18  and  C_19
REMARK    7  A    between atoms: C_18  and  C_26
REMARK    8  A    between atoms: C_18  and  N_63
REMARK                            x       y       z     vdW  Elec       q    Type
REMARK                         _______ _______ _______ _____ _____    ______ ____
ROOT
ATOM      1  C   UNL     1      -2.630   2.724  -1.666  0.00  0.00    +0.121 A 
ATOM      2  C   UNL     1      -3.246   2.259  -2.820  0.00  0.00    +0.033 A 
ATOM      3  C   UNL     1      -3.136   3.011  -3.976  0.00  0.00    +0.043 A 
ATOM      4  C   UNL     1      -2.417   4.202  -3.943  0.00  0.00    +0.099 A 
ATOM      5  C   UNL     1      -1.936   3.917  -1.703  0.00  0.00    +0.112 A 
ATOM      6  N   UNL     1      -2.298   4.967  -5.097  0.00  0.00    -0.320 N 
ATOM      7  C   UNL     1      -1.722   4.179  -6.195  0.00  0.00    +0.088 C 
ATOM      8  C   UNL     1      -1.682   5.032  -7.465  0.00  0.00    -0.058 C 
ATOM      9  C   UNL     1      -1.464   7.030  -6.117  0.00  0.00    -0.058 C 
ATOM     10  C   UNL     1      -1.503   6.177  -4.847  0.00  0.00    +0.088 C 
ATOM     11  N   UNL     1      -1.803   4.679  -2.822  0.00  0.00    -0.348 N 
ATOM     12  H   UNL     1      -1.273   5.559  -2.823  0.00  0.00    +0.167 HD
ATOM     13  N   UNL     1      -0.862   6.234  -7.207  0.00  0.00    +0.389 N 
ATOM     14  H   UNL     1       0.081   5.940  -6.925  0.00  0.00    -0.080 HD
ENDROOT
BRANCH   1  15
ATOM     15  S   UNL     1      -2.738   1.805  -0.167  0.00  0.00    +0.060 S 
ATOM     16  O   UNL     1      -3.907   1.003  -0.266  0.00  0.00    -0.153 OA
ATOM     17  O   UNL     1      -2.537   2.730   0.893  0.00  0.00    -0.153 OA
BRANCH  15  18
ATOM     18  N   UNL     1      -1.451   0.764  -0.137  0.00  0.00    -0.187 NA
ATOM     19  H   UNL     1      -1.601  -0.194  -0.168  0.00  0.00    +0.148 HD
BRANCH  18  21
ATOM     20  C   UNL     1       0.783   0.348   0.768  0.00  0.00    +0.025 C 
ATOM     21  C   UNL     1      -0.085   1.289  -0.069  0.00  0.00    +0.070 C 
ATOM     22  C   UNL     1       0.492   1.393  -1.482  0.00  0.00    +0.025 C 
ENDBRANCH  18  21
ENDBRANCH  15  18
ENDBRANCH   1  15
BRANCH  13  23
ATOM     23  C   UNL     1      -0.762   7.051  -8.435  0.00  0.00    -0.007 C 
BRANCH  23  24
ATOM     24  C   UNL     1       0.080   8.267  -8.147  0.00  0.00    -0.057 A 
ATOM     25  C   UNL     1       1.241   8.144  -7.406  0.00  0.00    +0.005 A 
ATOM     26  C   UNL     1       2.016   9.258  -7.146  0.00  0.00    +0.038 A 
ATOM     27  C   UNL     1       1.625  10.499  -7.618  0.00  0.00    +0.123 A 
ATOM     28  C   UNL     1       0.460  10.622  -8.355  0.00  0.00    +0.038 A 
ATOM     29  C   UNL     1      -0.311   9.506  -8.619  0.00  0.00    +0.005 A 
ATOM     30  F   UNL     1       2.380  11.589  -7.360  0.00  0.00    -0.205 F 
ENDBRANCH  23  24
BRANCH  23  31
ATOM     31  C   UNL     1      -0.107   6.231  -9.517  0.00  0.00    -0.057 A 
ATOM     32  C   UNL     1       1.000   5.458  -9.223  0.00  0.00    +0.005 A 
ATOM     33  C   UNL     1       1.599   4.702 -10.213  0.00  0.00    +0.038 A 
ATOM     34  C   UNL     1       1.095   4.728 -11.502  0.00  0.00    +0.123 A 
ATOM     35  C   UNL     1      -0.011   5.507 -11.797  0.00  0.00    +0.038 A 
ATOM     36  C   UNL     1      -0.611   6.258 -10.804  0.00  0.00    +0.005 A 
ATOM     37  F   UNL     1       1.682   3.993 -12.472  0.00  0.00    -0.205 F 
ENDBRANCH  23  31
ENDBRANCH  13  23
TORSDOF 6
