REMARK  Name = ZINC37037190
REMARK  5 active torsions:
REMARK  status: ('A' for Active; 'I' for Inactive)
REMARK    1  A    between atoms: C_3  and  S_9
REMARK    2  A    between atoms: C_4  and  N_8
REMARK    3  A    between atoms: S_9  and  C_10
REMARK    4  A    between atoms: C_10  and  C_11
REMARK    5  A    between atoms: N_13  and  C_14
REMARK                            x       y       z     vdW  Elec       q    Type
REMARK                         _______ _______ _______ _____ _____    ______ ____
ROOT
ATOM      1  C   UNL     1       3.368   4.058  -0.029  0.00  0.00    +0.170 C 
ENDROOT
BRANCH   1   2
ATOM      2  C   UNL     1       4.581   4.951  -0.024  0.00  0.00    +0.227 C 
ATOM      3  O   UNL     1       5.693   4.465  -0.034  0.00  0.00    -0.275 OA
ATOM      4  N   UNL     1       4.432   6.290  -0.009  0.00  0.00    -0.283 N 
ATOM      5  H   UNL     1       3.545   6.680  -0.066  0.00  0.00    +0.155 HD
BRANCH   4   6
ATOM      6  C   UNL     1       5.556   7.120   0.090  0.00  0.00    +0.069 A 
ATOM      7  C   UNL     1       6.749   6.749  -0.514  0.00  0.00    +0.027 A 
ATOM      8  C   UNL     1       7.857   7.568  -0.415  0.00  0.00    +0.017 A 
ATOM      9  C   UNL     1       7.779   8.758   0.286  0.00  0.00    +0.021 A 
ATOM     10  C   UNL     1       6.592   9.132   0.890  0.00  0.00    +0.055 A 
ATOM     11  C   UNL     1       5.478   8.319   0.790  0.00  0.00    +0.146 A 
ATOM     12  F   UNL     1       4.317   8.687   1.375  0.00  0.00    -0.204 F 
ATOM     13 BR   UNL     1       9.299   9.876   0.419  0.00  0.00    -0.050 Br
ENDBRANCH   4   6
ENDBRANCH   1   2
BRANCH   1  14
ATOM     14  S   UNL     1       3.895   2.322  -0.051  0.00  0.00    -0.114 S 
BRANCH  14  17
ATOM     15  C   UNL     1      -0.015   1.377  -0.046  0.00  0.00    +0.021 A 
ATOM     16  C   UNL     1       1.171   2.089  -0.042  0.00  0.00    +0.018 A 
ATOM     17  C   UNL     1       2.384   1.417  -0.055  0.00  0.00    +0.029 A 
ATOM     18  C   UNL     1       2.403   0.022  -0.071  0.00  0.00    +0.040 A 
ATOM     19  C   UNL     1       1.211  -0.684  -0.075  0.00  0.00    +0.043 A 
ATOM     20  C   UNL     1       0.004  -0.005  -0.062  0.00  0.00    +0.043 A 
ATOM     21 CL   UNL     1      -1.488  -0.892  -0.066  0.00  0.00    -0.083 Cl
BRANCH  18  22
ATOM     22  N   UNL     1       3.624  -0.663  -0.084  0.00  0.00    -0.357 N 
ATOM     23  H   UNL     1       4.458  -0.167  -0.082  0.00  0.00    +0.142 HD
ATOM     24  H   UNL     1       3.637  -1.633  -0.095  0.00  0.00    +0.142 HD
ENDBRANCH  18  22
ENDBRANCH  14  17
ENDBRANCH   1  14
TORSDOF 5
