REMARK  Name = ZINC64650028
REMARK  4 active torsions:
REMARK  status: ('A' for Active; 'I' for Inactive)
REMARK    1  A    between atoms: C_1  and  C_2
REMARK    2  A    between atoms: C_4  and  C_7
REMARK    3  A    between atoms: C_11  and  C_13
REMARK    4  A    between atoms: C_16  and  C_19
REMARK                            x       y       z     vdW  Elec       q    Type
REMARK                         _______ _______ _______ _____ _____    ______ ____
ROOT
ATOM      1  C   UNL     1      -5.746  -2.976   0.000  0.00  0.00    +0.168 C 
ATOM      2  N   UNL     1      -6.064  -1.723  -0.003  0.00  0.00    -0.067 NA
ATOM      3  O   UNL     1      -7.469  -1.557   0.001  0.00  0.00    -0.367 OA
ATOM      4  C   UNL     1      -8.036  -2.876   0.007  0.00  0.00    +0.318 C 
ATOM      5  N   UNL     1      -6.873  -3.777   0.001  0.00  0.00    -0.288 N 
ATOM      6  H   UNL     1      -6.893  -4.747  -0.001  0.00  0.00    +0.151 HD
ENDROOT
BRANCH   4   7
ATOM      7  C   UNL     1      -8.887  -3.098  -1.245  0.00  0.00    +0.165 C 
ATOM      8  C   UNL     1      -8.032  -2.970  -2.486  0.00  0.00    +0.012 C 
ATOM      9  C   UNL     1      -8.553  -1.944  -3.196  0.00  0.00    -0.004 A 
ATOM     10  C   UNL     1      -8.181  -1.331  -4.477  0.00  0.00    +0.010 A 
ATOM     11  C   UNL     1      -8.910  -0.292  -4.943  0.00  0.00    +0.001 A 
ATOM     12  C   UNL     1     -10.010   0.213  -4.236  0.00  0.00    +0.002 A 
ATOM     13  C   UNL     1     -10.413  -0.297  -3.053  0.00  0.00    +0.026 A 
ATOM     14  C   UNL     1      -9.719  -1.392  -2.469  0.00  0.00    +0.043 A 
ATOM     15  N   UNL     1      -9.912  -2.053  -1.351  0.00  0.00    -0.373 N 
ATOM     16  H   UNL     1     -10.613  -1.880  -0.704  0.00  0.00    +0.160 HD
ENDBRANCH   4   7
BRANCH   1  21
ATOM     17  C   UNL     1      -1.982  -3.083  -0.006  0.00  0.00    +0.002 A 
ATOM     18  C   UNL     1      -1.756  -4.459  -0.008  0.00  0.00    +0.010 A 
ATOM     19  C   UNL     1      -2.821  -5.338  -0.007  0.00  0.00    +0.001 A 
ATOM     20  C   UNL     1      -4.117  -4.861  -0.004  0.00  0.00    +0.011 A 
ATOM     21  C   UNL     1      -4.356  -3.486  -0.002  0.00  0.00    +0.019 A 
ATOM     22  C   UNL     1      -3.285  -2.596   0.003  0.00  0.00    +0.021 A 
BRANCH  17  26
ATOM     23  C   UNL     1      -0.018   1.503   0.010  0.00  0.00    +0.073 C 
ATOM     24  C   UNL     1       0.002  -0.004   0.002  0.00  0.00    +0.076 A 
ATOM     25  N   UNL     1      -1.013  -0.828   0.002  0.00  0.00    -0.244 NA
ATOM     26  C   UNL     1      -0.837  -2.141  -0.006  0.00  0.00    +0.078 A 
ATOM     27  C   UNL     1       0.460  -2.583  -0.014  0.00  0.00    +0.075 A 
ATOM     28  S   UNL     1       1.337  -1.028  -0.017  0.00  0.00    -0.080 S 
ENDBRANCH  17  26
ENDBRANCH   1  21
TORSDOF 3
