REMARK  Name = ZINC50440466
REMARK  4 active torsions:
REMARK  status: ('A' for Active; 'I' for Inactive)
REMARK    1  A    between atoms: C_2  and  N_17
REMARK    2  A    between atoms: C_5  and  O_8
REMARK    3  A    between atoms: O_8  and  C_9
REMARK    4  A    between atoms: C_9  and  C_10
REMARK                            x       y       z     vdW  Elec       q    Type
REMARK                         _______ _______ _______ _____ _____    ______ ____
ROOT
ATOM      1  C   UNL     1      -0.017   1.378   0.010  0.00  0.00    +0.056 A 
ATOM      2  C   UNL     1       1.170   2.087   0.002  0.00  0.00    +0.129 A 
ATOM      3  C   UNL     1       2.379   1.416  -0.013  0.00  0.00    +0.056 A 
ATOM      4  C   UNL     1       2.404   0.034  -0.021  0.00  0.00    +0.086 A 
ATOM      5  C   UNL     1       1.214  -0.680  -0.014  0.00  0.00    +0.158 A 
ATOM      6  C   UNL     1       0.002  -0.004   0.002  0.00  0.00    +0.086 A 
ATOM      7 CL   UNL     1      -1.489  -0.893   0.012  0.00  0.00    -0.080 Cl
ATOM      8 CL   UNL     1       3.922  -0.808  -0.042  0.00  0.00    -0.080 Cl
ENDROOT
BRANCH   2   9
ATOM      9  N   UNL     1       1.147   3.567   0.010  0.00  0.00    +0.057 N 
ATOM     10  O   UNL     1       0.091   4.155   0.023  0.00  0.00    -0.126 OA
ATOM     11  O   UNL     1       2.184   4.188   0.004  0.00  0.00    -0.126 OA
ENDBRANCH   2   9
BRANCH   5  12
ATOM     12  O   UNL     1       1.236  -2.039  -0.022  0.00  0.00    -0.483 OA
BRANCH  12  13
ATOM     13  C   UNL     1       1.259  -2.696   1.247  0.00  0.00    +0.285 C 
BRANCH  13  14
ATOM     14  C   UNL     1       1.280  -4.188   1.041  0.00  0.00    +0.088 A 
ATOM     15  C   UNL     1       1.282  -4.731  -0.201  0.00  0.00    +0.075 A 
ATOM     16  S   UNL     1       1.311  -6.471   0.196  0.00  0.00    -0.061 S 
ATOM     17  C   UNL     1       1.319  -6.328   1.873  0.00  0.00    +0.156 A 
ATOM     18  N   UNL     1       1.304  -5.026   2.062  0.00  0.00    -0.227 NA
ATOM     19  N   UNL     1       1.340  -7.337   2.823  0.00  0.00    -0.338 N 
ATOM     20  H   UNL     1       1.353  -8.266   2.544  0.00  0.00    +0.144 HD
ATOM     21  H   UNL     1       1.342  -7.114   3.767  0.00  0.00    +0.144 HD
ENDBRANCH  13  14
ENDBRANCH  12  13
ENDBRANCH   5  12
TORSDOF 4
