REMARK  Name = ZINC39668708
REMARK  7 active torsions:
REMARK  status: ('A' for Active; 'I' for Inactive)
REMARK    1  A    between atoms: C_1  and  C_2
REMARK    2  A    between atoms: C_2  and  C_4
REMARK    3  A    between atoms: C_2  and  O_32
REMARK    4  A    between atoms: C_4  and  N_5
REMARK    5  A    between atoms: C_6  and  C_8
REMARK    6  A    between atoms: C_19  and  C_21
REMARK    7  A    between atoms: O_32  and  C_33
REMARK                            x       y       z     vdW  Elec       q    Type
REMARK                         _______ _______ _______ _____ _____    ______ ____
ROOT
ATOM      1  C   UNL     1      -2.563  -4.155   0.162  0.00  0.00    +0.100 C 
ATOM      2  C   UNL     1      -1.755  -4.760  -1.008  0.00  0.00    +0.121 C 
ATOM      3  N   UNL     1      -2.500  -5.984  -1.383  0.00  0.00    -0.297 N 
ATOM      4  C   UNL     1      -3.927  -5.597  -1.272  0.00  0.00    +0.115 C 
ATOM      5  C   UNL     1      -3.988  -4.706  -0.015  0.00  0.00    -0.004 C 
ATOM      6  C   UNL     1      -4.974  -3.562  -0.228  0.00  0.00    -0.010 C 
ATOM      7  C   UNL     1      -6.391  -4.130  -0.343  0.00  0.00    -0.082 C 
ATOM      8  N   UNL     1      -6.725  -4.870   0.880  0.00  0.00    +0.379 N 
ATOM      9  C   UNL     1      -5.830  -6.023   1.028  0.00  0.00    -0.082 C 
ATOM     10  C   UNL     1      -4.389  -5.535   1.201  0.00  0.00    -0.010 C 
ATOM     11  C   UNL     1      -1.995  -7.180  -1.745  0.00  0.00    +0.260 C 
ATOM     12  O   UNL     1      -2.741  -8.094  -2.027  0.00  0.00    -0.271 OA
ATOM     13  H   UNL     1      -6.621  -4.261   1.679  0.00  0.00    -0.086 HD
ATOM     14  H   UNL     1      -7.680  -5.191   0.827  0.00  0.00    -0.086 HD
ENDROOT
BRANCH  11  15
ATOM     15  C   UNL     1      -0.502  -7.383  -1.799  0.00  0.00    +0.296 C 
ATOM     16  C   UNL     1       0.100  -6.503  -2.903  0.00  0.00    +0.283 C 
ATOM     17  O   UNL     1       1.513  -6.730  -2.937  0.00  0.00    -0.484 OA
ATOM     18  C   UNL     1       1.925  -8.027  -2.901  0.00  0.00    +0.162 A 
ATOM     19  C   UNL     1       3.219  -8.341  -3.288  0.00  0.00    +0.049 A 
ATOM     20  C   UNL     1       3.654  -9.652  -3.254  0.00  0.00    +0.004 A 
ATOM     21  C   UNL     1       2.799 -10.655  -2.834  0.00  0.00    +0.004 A 
ATOM     22  C   UNL     1       1.508 -10.349  -2.448  0.00  0.00    +0.049 A 
ATOM     23  C   UNL     1       1.065  -9.035  -2.481  0.00  0.00    +0.163 A 
ATOM     24  O   UNL     1      -0.211  -8.751  -2.105  0.00  0.00    -0.473 OA
ENDBRANCH  11  15
BRANCH   1  26
ATOM     25  N   UNL     1      -2.646  -1.910   1.198  0.00  0.00    -0.312 N 
ATOM     26  C   UNL     1      -2.567  -2.651   0.075  0.00  0.00    +0.218 C 
ATOM     27  O   UNL     1      -2.500  -2.106  -1.007  0.00  0.00    -0.275 OA
ATOM     28  H   UNL     1      -2.699  -2.346   2.063  0.00  0.00    +0.149 HD
BRANCH  25  29
ATOM     29  C   UNL     1      -2.650  -0.448   1.113  0.00  0.00    +0.148 C 
BRANCH  29  31
ATOM     30  C   UNL     1      -2.876   1.667   2.425  0.00  0.00    +0.053 C 
ATOM     31  C   UNL     1      -2.746   0.145   2.520  0.00  0.00    +0.187 C 
BRANCH  31  32
ATOM     32  O   UNL     1      -1.568  -0.187   3.258  0.00  0.00    -0.486 OA
BRANCH  32  33
ATOM     33  C   UNL     1      -1.668  -0.186   4.613  0.00  0.00    +0.139 A 
ATOM     34  C   UNL     1      -2.895   0.039   5.230  0.00  0.00    +0.049 A 
ATOM     35  C   UNL     1      -2.947   0.031   6.614  0.00  0.00    +0.023 A 
ATOM     36  C   UNL     1      -1.788  -0.198   7.332  0.00  0.00    +0.111 A 
ATOM     37  N   UNL     1      -0.641  -0.408   6.717  0.00  0.00    -0.260 NA
ATOM     38  C   UNL     1      -0.550  -0.414   5.402  0.00  0.00    +0.156 A 
ENDBRANCH  32  33
ENDBRANCH  31  32
ENDBRANCH  29  31
ENDBRANCH  25  29
ENDBRANCH   1  26
TORSDOF 6
