REMARK  Name = ZINC26504975
REMARK  5 active torsions:
REMARK  status: ('A' for Active; 'I' for Inactive)
REMARK    1  A    between atoms: N_9  and  C1*_10
REMARK    2  A    between atoms: C2*_12  and  O2*_22
REMARK    3  A    between atoms: C3*_14  and  O3*_21
REMARK    4  A    between atoms: C4*_16  and  C5*_19
REMARK    5  A    between atoms: C5*_19  and  O5*_20
REMARK                            x       y       z     vdW  Elec       q    Type
REMARK                         _______ _______ _______ _____ _____    ______ ____
ROOT
ATOM      1  C   UNL     1      -0.241  -0.926   2.486  0.00  0.00    +0.203 A 
ATOM      2  N   UNL     1      -0.145  -1.876   3.370  0.00  0.00    -0.231 NA
ATOM      3  C   UNL     1       0.528  -1.417   4.453  0.00  0.00    +0.147 A 
ATOM      4  C   UNL     1       0.918  -1.974   5.683  0.00  0.00    +0.148 A 
ATOM      5  N   UNL     1       1.589  -1.211   6.540  0.00  0.00    -0.206 NA
ATOM      6  C   UNL     1       1.888   0.043   6.250  0.00  0.00    +0.195 A 
ATOM      7  N   UNL     1       1.543   0.606   5.111  0.00  0.00    -0.203 NA
ATOM      8  C   UNL     1       0.869  -0.080   4.193  0.00  0.00    +0.168 A 
ATOM      9  N   UNL     1       0.374   0.201   2.944  0.00  0.00    -0.285 N 
ATOM     10  I   UNL     1       2.949   1.177   7.655  0.00  0.00    +0.001 I 
ATOM     11  N   UNL     1       0.611  -3.287   5.995  0.00  0.00    -0.341 N 
ATOM     12  H   UNL     1       0.922  -3.710   6.962  0.00  0.00    +0.144 HD
ATOM     13  H   UNL     1       0.055  -3.907   5.277  0.00  0.00    +0.144 HD
ENDROOT
BRANCH   9  14
ATOM     14  C1* UNL     1       0.482   1.479   2.236  0.00  0.00    +0.253 C 
ATOM     15  C2* UNL     1       1.828   1.553   1.490  0.00  0.00    +0.195 C 
ATOM     16  C3* UNL     1       1.430   1.651  -0.003  0.00  0.00    +0.178 C 
ATOM     17  C4* UNL     1      -0.013   1.086   0.008  0.00  0.00    +0.177 C 
ATOM     18  O4* UNL     1      -0.559   1.580   1.250  0.00  0.00    -0.346 OA
BRANCH  16  19
ATOM     19  O3* UNL     1       1.442   3.010  -0.445  0.00  0.00    -0.386 OA
ATOM     20  H3* UNL     1       1.182   3.252  -1.486  0.00  0.00    +0.210 HD
ENDBRANCH  16  19
BRANCH  15  21
ATOM     21  O2* UNL     1       2.596   0.371   1.726  0.00  0.00    -0.385 OA
ATOM     22  H2* UNL     1       3.589   0.259   1.266  0.00  0.00    +0.210 HD
ENDBRANCH  15  21
BRANCH  17  23
ATOM     23  C5* UNL     1      -0.809   1.619  -1.185  0.00  0.00    +0.190 C 
BRANCH  23  24
ATOM     24  O5* UNL     1      -2.112   1.032  -1.188  0.00  0.00    -0.392 OA
ATOM     25  H5* UNL     1      -2.832   1.297  -1.976  0.00  0.00    +0.210 HD
ENDBRANCH  23  24
ENDBRANCH  17  23
ENDBRANCH   9  14
TORSDOF 5
