REMARK  Name = ZINC59110018
REMARK  18 active torsions:
REMARK  status: ('A' for Active; 'I' for Inactive)
REMARK    1  A    between atoms: C_1  and  C_2
REMARK    2  A    between atoms: C_2  and  C_3
REMARK    3  A    between atoms: C_2  and  C_4
REMARK    4  A    between atoms: C_7  and  N_10
REMARK    5  A    between atoms: N_10  and  C_11
REMARK    6  A    between atoms: C_11  and  N_13
REMARK    7  A    between atoms: N_13  and  C_14
REMARK    8  A    between atoms: C_14  and  C_15
REMARK    9  A    between atoms: C_15  and  C_37
REMARK   10  A    between atoms: C_17  and  N_24
REMARK   11  A    between atoms: C_20  and  C_22
REMARK   12  A    between atoms: C_20  and  C_23
REMARK   13  A    between atoms: N_24  and  C_25
REMARK   14  A    between atoms: C_25  and  N_27
REMARK   15  A    between atoms: N_27  and  C_28
REMARK   16  A    between atoms: C_31  and  C_34
REMARK   17  A    between atoms: C_34  and  C_35
REMARK   18  A    between atoms: C_34  and  C_36
REMARK                            x       y       z     vdW  Elec       q    Type
REMARK                         _______ _______ _______ _____ _____    ______ ____
ROOT
ATOM      1  C   UNL     1       5.494  -3.469  -6.984  0.00  0.00    -0.014 C 
ATOM      2  C   UNL     1       5.998  -2.198  -7.659  0.00  0.00    +0.030 C 
ATOM      3  C   UNL     1       6.695  -2.524  -8.977  0.00  0.00    +0.073 C 
ATOM      4  C   UNL     1       7.904  -3.411  -8.689  0.00  0.00    +0.028 C 
ATOM      5  C   UNL     1       7.471  -4.726  -8.050  0.00  0.00    -0.033 C 
ATOM      6  C   UNL     1       6.578  -4.522  -6.841  0.00  0.00    +0.014 C 
ATOM      7  C   UNL     1       8.747  -5.460  -7.581  0.00  0.00    +0.011 C 
ATOM      8  C   UNL     1       6.792  -5.617  -9.094  0.00  0.00    +0.011 C 
ATOM      9  C   UNL     1       4.285  -4.021  -7.744  0.00  0.00    +0.013 C 
ENDROOT
BRANCH   3  10
ATOM     10  N   UNL     1       7.154  -1.275  -9.600  0.00  0.00    -0.323 N 
ATOM     11  H   UNL     1       7.329  -0.495  -9.051  0.00  0.00    +0.148 HD
BRANCH  10  12
ATOM     12  C   UNL     1       7.330  -1.213 -10.935  0.00  0.00    +0.135 C 
ATOM     13  S   UNL     1       7.022  -2.590 -11.904  0.00  0.00    -0.019 S 
BRANCH  12  14
ATOM     14  N   UNL     1       7.751  -0.067 -11.506  0.00  0.00    -0.297 N 
ATOM     15  H   UNL     1       8.005   0.687 -10.951  0.00  0.00    +0.154 HD
BRANCH  14  16
ATOM     16  C   UNL     1       7.820   0.035 -12.900  0.00  0.00    +0.033 A 
ATOM     17  C   UNL     1       6.809  -0.499 -13.688  0.00  0.00    +0.023 A 
ATOM     18  C   UNL     1       6.880  -0.397 -15.063  0.00  0.00    +0.006 A 
ATOM     19  C   UNL     1       7.957   0.237 -15.656  0.00  0.00    -0.045 A 
ATOM     20  C   UNL     1       8.966   0.770 -14.874  0.00  0.00    +0.006 A 
ATOM     21  C   UNL     1       8.897   0.676 -13.498  0.00  0.00    +0.023 A 
BRANCH  19  22
ATOM     22  C   UNL     1       8.032   0.347 -17.157  0.00  0.00    +0.013 C 
ATOM     23  C   UNL     1       8.072   1.822 -17.559  0.00  0.00    +0.012 C 
ATOM     24  C   UNL     1       9.298  -0.352 -17.657  0.00  0.00    +0.012 C 
ENDBRANCH  19  22
ENDBRANCH  14  16
ENDBRANCH  12  14
ENDBRANCH  10  12
ENDBRANCH   3  10
BRANCH   1  25
ATOM     25  C   UNL     1       5.012  -3.087  -5.567  0.00  0.00    +0.110 C 
BRANCH  25  26
ATOM     26  N   UNL     1       3.962  -2.070  -5.666  0.00  0.00    -0.326 N 
ATOM     27  H   UNL     1       3.680  -1.747  -6.537  0.00  0.00    +0.148 HD
BRANCH  26  28
ATOM     28  C   UNL     1       3.388  -1.582  -4.549  0.00  0.00    +0.135 C 
ATOM     29  S   UNL     1       3.886  -2.152  -3.013  0.00  0.00    -0.019 S 
BRANCH  28  30
ATOM     30  N   UNL     1       2.423  -0.646  -4.640  0.00  0.00    -0.297 N 
ATOM     31  H   UNL     1       2.083  -0.384  -5.510  0.00  0.00    +0.154 HD
BRANCH  30  35
ATOM     32  C   UNL     1       0.901   1.121  -1.188  0.00  0.00    -0.045 A 
ATOM     33  C   UNL     1       2.259   0.886  -1.302  0.00  0.00    +0.006 A 
ATOM     34  C   UNL     1       2.767   0.300  -2.445  0.00  0.00    +0.023 A 
ATOM     35  C   UNL     1       1.912  -0.053  -3.481  0.00  0.00    +0.033 A 
ATOM     36  C   UNL     1       0.548   0.184  -3.364  0.00  0.00    +0.023 A 
ATOM     37  C   UNL     1       0.046   0.765  -2.216  0.00  0.00    +0.006 A 
BRANCH  32  39
ATOM     38  C   UNL     1       0.683   0.885   1.271  0.00  0.00    +0.012 C 
ATOM     39  C   UNL     1       0.350   1.760   0.060  0.00  0.00    +0.013 C 
ATOM     40  C   UNL     1       0.977   3.144   0.244  0.00  0.00    +0.012 C 
ENDBRANCH  32  39
ENDBRANCH  30  35
ENDBRANCH  28  30
ENDBRANCH  26  28
ENDBRANCH  25  26
ENDBRANCH   1  25
TORSDOF 11
