REMARK  Name = ZINC39686973
REMARK  9 active torsions:
REMARK  status: ('A' for Active; 'I' for Inactive)
REMARK    1  A    between atoms: C_1  and  C_2
REMARK    2  A    between atoms: C_2  and  C_4
REMARK    3  A    between atoms: C_2  and  N_12
REMARK    4  A    between atoms: C_4  and  C_5
REMARK    5  A    between atoms: C_13  and  C_15
REMARK    6  A    between atoms: C_26  and  C_28
REMARK    7  A    between atoms: C_28  and  C_30
REMARK    8  A    between atoms: C_28  and  O_31
REMARK    9  A    between atoms: O_31  and  C_32
REMARK                            x       y       z     vdW  Elec       q    Type
REMARK                         _______ _______ _______ _____ _____    ______ ____
ROOT
ATOM      1  C   UNL     1       2.811  -0.175   2.312  0.00  0.00    +0.100 C 
ATOM      2  C   UNL     1       2.631  -1.707   2.394  0.00  0.00    +0.121 C 
ATOM      3  N   UNL     1       3.826  -2.261   1.714  0.00  0.00    -0.297 N 
ATOM      4  C   UNL     1       4.937  -1.377   2.143  0.00  0.00    +0.115 C 
ATOM      5  C   UNL     1       4.325   0.038   2.151  0.00  0.00    -0.004 C 
ATOM      6  C   UNL     1       4.874   0.844   3.325  0.00  0.00    -0.010 C 
ATOM      7  C   UNL     1       6.370   1.092   3.113  0.00  0.00    -0.082 C 
ATOM      8  N   UNL     1       6.574   1.821   1.855  0.00  0.00    +0.379 N 
ATOM      9  C   UNL     1       6.128   1.000   0.723  0.00  0.00    -0.082 C 
ATOM     10  C   UNL     1       4.622   0.748   0.833  0.00  0.00    -0.010 C 
ATOM     11  C   UNL     1       3.889  -3.327   0.892  0.00  0.00    +0.256 C 
ATOM     12  O   UNL     1       2.871  -3.897   0.559  0.00  0.00    -0.272 OA
ATOM     13  H   UNL     1       6.043   2.679   1.875  0.00  0.00    -0.086 HD
ATOM     14  H   UNL     1       7.553   2.037   1.748  0.00  0.00    -0.086 HD
ENDROOT
BRANCH   1  16
ATOM     15  N   UNL     1       1.705   1.673   1.094  0.00  0.00    -0.312 N 
ATOM     16  C   UNL     1       2.074   0.377   1.119  0.00  0.00    +0.218 C 
ATOM     17  O   UNL     1       1.812  -0.346   0.181  0.00  0.00    -0.275 OA
ATOM     18  H   UNL     1       1.850   2.233   1.873  0.00  0.00    +0.149 HD
BRANCH  15  20
ATOM     19  C   UNL     1       2.176   2.643  -1.101  0.00  0.00    +0.028 C 
ATOM     20  C   UNL     1       1.086   2.235  -0.108  0.00  0.00    +0.074 C 
BRANCH  20  21
ATOM     21  C   UNL     1       0.257   3.464   0.272  0.00  0.00    +0.060 C 
BRANCH  21  22
ATOM     22  C   UNL     1      -0.901   3.040   1.139  0.00  0.00    -0.010 A 
ATOM     23  C   UNL     1      -2.127   2.761   0.566  0.00  0.00    +0.006 A 
ATOM     24  C   UNL     1      -3.189   2.372   1.361  0.00  0.00    +0.000 A 
ATOM     25  C   UNL     1      -3.026   2.263   2.729  0.00  0.00    +0.003 A 
ATOM     26  C   UNL     1      -1.801   2.541   3.304  0.00  0.00    +0.038 A 
ATOM     27  C   UNL     1      -0.735   2.926   2.509  0.00  0.00    +0.127 A 
ATOM     28  F   UNL     1       0.465   3.194   3.069  0.00  0.00    -0.205 F 
ENDBRANCH  21  22
ENDBRANCH  20  21
ENDBRANCH  15  20
ENDBRANCH   1  16
BRANCH  11  29
ATOM     29  C   UNL     1       5.223  -3.811   0.386  0.00  0.00    +0.256 C 
ATOM     30  C   UNL     1       6.040  -4.369   1.554  0.00  0.00    +0.062 C 
BRANCH  29  31
ATOM     31  O   UNL     1       5.020  -4.838  -0.586  0.00  0.00    -0.480 OA
BRANCH  31  32
ATOM     32  C   UNL     1       6.005  -5.023  -1.503  0.00  0.00    +0.122 A 
ATOM     33  C   UNL     1       5.831  -5.931  -2.538  0.00  0.00    +0.045 A 
ATOM     34  C   UNL     1       6.834  -6.117  -3.469  0.00  0.00    +0.004 A 
ATOM     35  C   UNL     1       8.011  -5.400  -3.371  0.00  0.00    +0.000 A 
ATOM     36  C   UNL     1       8.188  -4.494  -2.341  0.00  0.00    +0.004 A 
ATOM     37  C   UNL     1       7.186  -4.300  -1.411  0.00  0.00    +0.045 A 
ENDBRANCH  31  32
ENDBRANCH  29  31
ENDBRANCH  11  29
TORSDOF 7
