REMARK  Name = ZINC65620910
REMARK  7 active torsions:
REMARK  status: ('A' for Active; 'I' for Inactive)
REMARK    1  A    between atoms: C_1  and  C_2
REMARK    2  A    between atoms: C_6  and  C_7
REMARK    3  A    between atoms: N_9  and  C_10
REMARK    4  A    between atoms: C_13  and  S_16
REMARK    5  A    between atoms: S_16  and  C_17
REMARK    6  A    between atoms: C_23  and  C_27
REMARK    7  A    between atoms: C_23  and  C_28
REMARK                            x       y       z     vdW  Elec       q    Type
REMARK                         _______ _______ _______ _____ _____    ______ ____
ROOT
ATOM      1  C   UNL     1      -0.135  -0.339   2.498  0.00  0.00    +0.284 C 
ATOM      2  O   UNL     1      -0.325   0.825   2.798  0.00  0.00    -0.266 OA
ATOM      3  N   UNL     1       0.075  -1.257   3.462  0.00  0.00    -0.279 N 
ATOM      4  H   UNL     1       0.151  -2.196   3.230  0.00  0.00    +0.155 HD
ENDROOT
BRANCH   1  10
ATOM      5  C   UNL     1      -0.592   1.573   0.071  0.00  0.00    +0.048 C 
ATOM      6  C   UNL     1      -0.334   0.089   0.024  0.00  0.00    +0.011 A 
ATOM      7  C   UNL     1      -0.245  -0.715  -1.123  0.00  0.00    +0.062 A 
ATOM      8  C   UNL     1       0.000  -2.014  -0.696  0.00  0.00    +0.117 A 
ATOM      9  O   UNL     1       0.061  -2.001   0.629  0.00  0.00    -0.454 OA
ATOM     10  C   UNL     1      -0.135  -0.743   1.087  0.00  0.00    +0.193 A 
ATOM     11  C   UNL     1       0.153  -3.173  -1.648  0.00  0.00    +0.082 C 
ATOM     12  C   UNL     1      -0.488  -2.812  -2.991  0.00  0.00    -0.021 C 
ATOM     13  C   UNL     1       0.060  -1.479  -3.511  0.00  0.00    +0.086 C 
ATOM     14  C   UNL     1      -0.365  -0.378  -2.550  0.00  0.00    +0.167 C 
ATOM     15  O   UNL     1      -0.772   0.699  -2.933  0.00  0.00    -0.292 OA
ATOM     16  C   UNL     1      -2.003  -2.698  -2.812  0.00  0.00    +0.012 C 
ATOM     17  C   UNL     1      -0.183  -3.913  -4.008  0.00  0.00    +0.012 C 
ENDBRANCH   1  10
BRANCH   3  18
ATOM     18  C   UNL     1       0.182  -0.857   4.800  0.00  0.00    +0.034 A 
ATOM     19  C   UNL     1      -0.273  -1.690   5.813  0.00  0.00    +0.024 A 
ATOM     20  C   UNL     1      -0.168  -1.295   7.132  0.00  0.00    +0.017 A 
ATOM     21  C   UNL     1       0.395  -0.064   7.445  0.00  0.00    +0.015 A 
ATOM     22  C   UNL     1       0.850   0.770   6.431  0.00  0.00    +0.017 A 
ATOM     23  C   UNL     1       0.749   0.372   5.113  0.00  0.00    +0.024 A 
BRANCH  21  24
ATOM     24  S   UNL     1       0.529   0.441   9.128  0.00  0.00    -0.061 S 
BRANCH  24  25
ATOM     25  C   UNL     1       2.151  -0.065   9.596  0.00  0.00    +0.163 A 
ATOM     26  N   UNL     1       3.056  -0.762   8.921  0.00  0.00    -0.135 NA
ATOM     27  N   UNL     1       4.184  -1.040   9.414  0.00  0.00    -0.149 NA
ATOM     28  C   UNL     1       4.535  -0.656  10.624  0.00  0.00    +0.182 A 
ATOM     29  S   UNL     1       3.054   0.223  11.115  0.00  0.00    -0.047 S 
ENDBRANCH  24  25
ENDBRANCH  21  24
ENDBRANCH   3  18
TORSDOF 4
