REMARK  Name = ZINC36365136
REMARK  2 active torsions:
REMARK  status: ('A' for Active; 'I' for Inactive)
REMARK    1  A    between atoms: C_9  and  N_14
REMARK    2  A    between atoms: C_11  and  O_13
REMARK                            x       y       z     vdW  Elec       q    Type
REMARK                         _______ _______ _______ _____ _____    ______ ____
ROOT
ATOM      1  C   UNL     1       4.522   2.376   0.973  0.00  0.00    +0.000 A 
ATOM      2  C   UNL     1       5.815   1.973   0.687  0.00  0.00    +0.002 A 
ATOM      3  C   UNL     1       6.061   0.664   0.356  0.00  0.00    +0.028 A 
ATOM      4  C   UNL     1       5.021  -0.289   0.302  0.00  0.00    +0.071 A 
ATOM      5  C   UNL     1       3.731   0.124   0.599  0.00  0.00    -0.022 A 
ATOM      6  C   UNL     1       3.498   1.457   0.926  0.00  0.00    +0.006 A 
ATOM      7  C   UNL     1       2.531  -0.769   0.613  0.00  0.00    +0.040 C 
ATOM      8  C   UNL     1       2.530  -1.861  -0.411  0.00  0.00    +0.039 C 
ATOM      9  C   UNL     1       3.449  -3.006  -0.061  0.00  0.00    +0.177 C 
ATOM     10  C   UNL     1       4.880  -2.651  -0.251  0.00  0.00    +0.211 C 
ATOM     11  N   UNL     1       5.406  -1.530  -0.048  0.00  0.00    -0.215 NA
ENDROOT
BRANCH   9  12
ATOM     12  N   UNL     1       3.234  -3.378   1.339  0.00  0.00    -0.286 N 
ATOM     13  C   UNL     1       3.616  -2.539   2.338  0.00  0.00    +0.203 A 
ATOM     14  N   UNL     1       3.453  -2.811   3.593  0.00  0.00    -0.236 NA
ATOM     15  C   UNL     1       2.874  -3.983   4.014  0.00  0.00    +0.085 A 
ATOM     16  C   UNL     1       2.632  -4.416   5.325  0.00  0.00    +0.036 A 
ATOM     17  C   UNL     1       2.046  -5.612   5.548  0.00  0.00    +0.048 A 
ATOM     18  S   UNL     1       1.784  -6.236   3.896  0.00  0.00    -0.090 S 
ATOM     19  C   UNL     1       2.470  -4.869   2.999  0.00  0.00    +0.102 A 
ATOM     20  C   UNL     1       2.648  -4.559   1.651  0.00  0.00    +0.269 A 
ATOM     21  O   UNL     1       2.290  -5.331   0.777  0.00  0.00    -0.266 OA
ENDBRANCH   9  12
BRANCH  10  22
ATOM     22  O   UNL     1       5.696  -3.634  -0.685  0.00  0.00    -0.494 OA
ATOM     23  H   UNL     1       6.617  -3.361  -0.794  0.00  0.00    +0.293 HD
ENDBRANCH  10  22
TORSDOF 2
