REMARK  Name = ZINC22429785
REMARK  10 active torsions:
REMARK  status: ('A' for Active; 'I' for Inactive)
REMARK    1  A    between atoms: C_1  and  C_2
REMARK    2  A    between atoms: C_5  and  C_8
REMARK    3  A    between atoms: C_8  and  C_10
REMARK    4  A    between atoms: C_8  and  N_16
REMARK    5  A    between atoms: C_17  and  C_19
REMARK    6  A    between atoms: C_19  and  N_20
REMARK    7  A    between atoms: N_20  and  C_21
REMARK    8  A    between atoms: N_20  and  S_30
REMARK    9  A    between atoms: C_25  and  N_27
REMARK   10  A    between atoms: S_30  and  C_33
REMARK                            x       y       z     vdW  Elec       q    Type
REMARK                         _______ _______ _______ _____ _____    ______ ____
ROOT
ATOM      1  C   UNL     1      -0.081  -0.729   1.272  0.00  0.00    +0.227 C 
ENDROOT
BRANCH   1   3
ATOM      2  N   UNL     1      -1.849  -1.535   2.804  0.00  0.00    -0.303 N 
ATOM      3  C   UNL     1      -1.528  -0.894   1.662  0.00  0.00    +0.233 C 
ATOM      4  O   UNL     1      -2.402  -0.450   0.949  0.00  0.00    -0.274 OA
ATOM      5  H   UNL     1      -1.056  -1.938   3.451  0.00  0.00    +0.150 HD
BRANCH   2   6
ATOM      6  C   UNL     1      -3.255  -1.696   3.183  0.00  0.00    +0.134 C 
BRANCH   6  11
ATOM      7  C   UNL     1      -3.646  -2.310   8.915  0.00  0.00    +0.044 C 
ATOM      8  C   UNL     1      -3.544  -2.150   7.420  0.00  0.00    -0.050 A 
ATOM      9  C   UNL     1      -4.476  -1.386   6.742  0.00  0.00    +0.004 A 
ATOM     10  C   UNL     1      -4.382  -1.239   5.371  0.00  0.00    +0.006 A 
ATOM     11  C   UNL     1      -3.357  -1.856   4.678  0.00  0.00    -0.023 A 
ATOM     12  C   UNL     1      -2.429  -2.624   5.356  0.00  0.00    +0.006 A 
ATOM     13  C   UNL     1      -2.520  -2.767   6.727  0.00  0.00    +0.004 A 
ENDBRANCH   6  11
BRANCH   6  14
ATOM     14  C   UNL     1      -3.821  -2.918   2.507  0.00  0.00    -0.023 A 
ATOM     15  C   UNL     1      -3.055  -4.064   2.396  0.00  0.00    +0.006 A 
ATOM     16  C   UNL     1      -3.576  -5.186   1.780  0.00  0.00    +0.000 A 
ATOM     17  C   UNL     1      -4.859  -5.160   1.266  0.00  0.00    +0.000 A 
ATOM     18  C   UNL     1      -5.623  -4.013   1.372  0.00  0.00    +0.000 A 
ATOM     19  C   UNL     1      -5.104  -2.892   1.992  0.00  0.00    +0.006 A 
ENDBRANCH   6  14
ENDBRANCH   2   6
ENDBRANCH   1   3
BRANCH   1  20
ATOM     20  N   UNL     1       0.002  -0.004   0.002  0.00  0.00    -0.194 N 
BRANCH  20  21
ATOM     21  C   UNL     1      -0.105  -0.697  -1.206  0.00  0.00    +0.054 A 
ATOM     22  C   UNL     1       0.807  -1.697  -1.518  0.00  0.00    +0.025 A 
ATOM     23  C   UNL     1       0.696  -2.384  -2.711  0.00  0.00    +0.004 A 
ATOM     24  C   UNL     1      -0.318  -2.070  -3.599  0.00  0.00    +0.033 A 
ATOM     25  C   UNL     1      -1.225  -1.072  -3.293  0.00  0.00    +0.128 A 
ATOM     26  C   UNL     1      -1.122  -0.385  -2.099  0.00  0.00    +0.057 A 
BRANCH  25  27
ATOM     27  N   UNL     1      -2.307  -0.740  -4.246  0.00  0.00    +0.056 N 
ATOM     28  O   UNL     1      -3.106   0.139  -3.978  0.00  0.00    -0.126 OA
ATOM     29  O   UNL     1      -2.399  -1.345  -5.299  0.00  0.00    -0.126 OA
ENDBRANCH  25  27
ENDBRANCH  20  21
BRANCH  20  30
ATOM     30  S   UNL     1       0.224   1.637  -0.002  0.00  0.00    +0.075 S 
ATOM     31  O   UNL     1      -0.161   2.095  -1.291  0.00  0.00    -0.150 OA
ATOM     32  O   UNL     1      -0.371   2.130   1.190  0.00  0.00    -0.150 OA
BRANCH  30  33
ATOM     33  C   UNL     1       1.956   1.929   0.141  0.00  0.00    +0.109 A 
ATOM     34  C   UNL     1       2.533   2.066   1.389  0.00  0.00    +0.029 A 
ATOM     35  C   UNL     1       3.892   2.290   1.501  0.00  0.00    +0.002 A 
ATOM     36  C   UNL     1       4.673   2.388   0.364  0.00  0.00    +0.000 A 
ATOM     37  C   UNL     1       4.095   2.256  -0.884  0.00  0.00    +0.002 A 
ATOM     38  C   UNL     1       2.736   2.027  -0.996  0.00  0.00    +0.029 A 
ENDBRANCH  30  33
ENDBRANCH  20  30
ENDBRANCH   1  20
TORSDOF 9
