REMARK  Name = ZINC20906424
REMARK  5 active torsions:
REMARK  status: ('A' for Active; 'I' for Inactive)
REMARK    1  A    between atoms: C_3  and  C_8
REMARK    2  A    between atoms: C_8  and  C_9
REMARK    3  A    between atoms: C_15  and  C_17
REMARK    4  A    between atoms: C_21  and  C_23
REMARK    5  A    between atoms: C_23  and  N_24
REMARK                            x       y       z     vdW  Elec       q    Type
REMARK                         _______ _______ _______ _____ _____    ______ ____
ROOT
ATOM      1  C   UNL     1      -2.349  -2.803   0.009  0.00  0.00    +0.053 A 
ATOM      2  C   UNL     1      -3.564  -2.185   0.022  0.00  0.00    +0.093 A 
ATOM      3  C   UNL     1      -3.612  -0.777   0.030  0.00  0.00    +0.252 A 
ATOM      4  O   UNL     1      -4.681  -0.191   0.043  0.00  0.00    -0.268 OA
ATOM      5  N   UNL     1      -2.450  -0.089   0.030  0.00  0.00    -0.307 N 
ATOM      6  H   UNL     1      -2.461   1.010   0.045  0.00  0.00    +0.170 HD
ATOM      7  C   UNL     1      -1.265  -0.763   0.010  0.00  0.00    +0.141 A 
ATOM      8  N   UNL     1      -1.231  -2.080   0.002  0.00  0.00    -0.234 NA
ENDROOT
BRANCH   7   9
ATOM      9  C   UNL     1       0.002  -0.004   0.002  0.00  0.00    +0.018 A 
ATOM     10  C   UNL     1      -0.017   1.392   0.010  0.00  0.00    +0.011 A 
ATOM     11  C   UNL     1       1.170   2.095   0.002  0.00  0.00    +0.001 A 
ATOM     12  C   UNL     1       2.378   1.419  -0.013  0.00  0.00    +0.002 A 
ATOM     13  C   UNL     1       2.404   0.036  -0.021  0.00  0.00    -0.063 A 
ATOM     14  C   UNL     1       1.224  -0.679  -0.013  0.00  0.00    +0.013 A 
BRANCH  13  15
ATOM     15  C   UNL     1       3.724  -0.691  -0.037  0.00  0.00    -0.042 C 
BRANCH  15  16
ATOM     16  N   UNL     1       4.139  -0.920  -1.427  0.00  0.00    +0.389 N 
ATOM     17  C   UNL     1       5.311  -1.809  -1.487  0.00  0.00    -0.059 C 
ATOM     18  C   UNL     1       5.511  -2.261  -2.935  0.00  0.00    +0.085 C 
ATOM     19  N   UNL     1       5.502  -1.104  -3.826  0.00  0.00    -0.319 N 
ATOM     20  C   UNL     1       5.001   0.084  -3.470  0.00  0.00    +0.196 C 
ATOM     21  O   UNL     1       5.006   0.983  -4.283  0.00  0.00    -0.278 OA
ATOM     22  C   UNL     1       4.432   0.350  -2.105  0.00  0.00    +0.019 C 
ATOM     23  H   UNL     1       5.920  -1.187  -4.840  0.00  0.00    +0.149 HD
ATOM     24  H   UNL     1       3.302  -1.408  -1.947  0.00  0.00    -0.081 HD
ENDBRANCH  15  16
ENDBRANCH  13  15
ENDBRANCH   7   9
BRANCH   1  25
ATOM     25  C   UNL     1      -2.270  -4.308  -0.000  0.00  0.00    +0.090 C 
BRANCH  25  28
ATOM     26  C   UNL     1      -0.752  -5.405  -3.279  0.00  0.00    +0.003 A 
ATOM     27  C   UNL     1      -0.879  -4.958  -1.977  0.00  0.00    +0.004 A 
ATOM     28  C   UNL     1      -2.133  -4.796  -1.420  0.00  0.00    -0.039 A 
ATOM     29  C   UNL     1      -3.262  -5.086  -2.162  0.00  0.00    +0.042 A 
ATOM     30  C   UNL     1      -3.136  -5.529  -3.468  0.00  0.00    +0.124 A 
ATOM     31  C   UNL     1      -1.879  -5.691  -4.024  0.00  0.00    +0.038 A 
ATOM     32  F   UNL     1      -4.240  -5.809  -4.196  0.00  0.00    -0.205 F 
ENDBRANCH  25  28
ENDBRANCH   1  25
TORSDOF 5
