REMARK  Name = ZINC01291727
REMARK  12 active torsions:
REMARK  status: ('A' for Active; 'I' for Inactive)
REMARK    1  A    between atoms: C_1  and  C_2
REMARK    2  A    between atoms: C_2  and  O_3
REMARK    3  A    between atoms: O_3  and  C_4
REMARK    4  A    between atoms: C_6  and  C_14
REMARK    5  A    between atoms: C_9  and  O_10
REMARK    6  A    between atoms: O_10  and  C_11
REMARK    7  A    between atoms: C_11  and  C_12
REMARK    8  A    between atoms: C_11  and  C_13
REMARK    9  A    between atoms: C_16  and  C_25
REMARK   10  A    between atoms: C_17  and  C_24
REMARK   11  A    between atoms: C_25  and  O_27
REMARK   12  A    between atoms: O_27  and  C_28
REMARK                            x       y       z     vdW  Elec       q    Type
REMARK                         _______ _______ _______ _____ _____    ______ ____
ROOT
ATOM      1  C   UNL     1      -0.146  -5.146   0.662  0.00  0.00    +0.179 C 
ATOM      2  C   UNL     1       1.190  -5.782   0.937  0.00  0.00    +0.082 C 
ATOM      3  C   UNL     1       1.432  -7.089   0.752  0.00  0.00    +0.020 C 
ATOM      4  N   UNL     1       0.466  -7.955   0.306  0.00  0.00    -0.287 N 
ATOM      5  C   UNL     1      -0.846  -7.500   0.297  0.00  0.00    +0.218 A 
ATOM      6  N   UNL     1      -1.149  -6.189   0.467  0.00  0.00    -0.221 N 
ATOM      7  N   UNL     1      -2.539  -6.093   0.411  0.00  0.00    -0.156 NA
ATOM      8  C   UNL     1      -2.994  -7.305   0.211  0.00  0.00    +0.247 A 
ATOM      9  N   UNL     1      -1.964  -8.155   0.142  0.00  0.00    -0.201 NA
ATOM     10  C   UNL     1       2.810  -7.624   1.046  0.00  0.00    +0.061 C 
ATOM     11  H   UNL     1       0.690  -8.850   0.008  0.00  0.00    +0.155 HD
ENDROOT
BRANCH   1  14
ATOM     12  C   UNL     1      -0.234  -2.163  -1.654  0.00  0.00    +0.162 A 
ATOM     13  C   UNL     1      -0.319  -2.943  -0.512  0.00  0.00    +0.055 A 
ATOM     14  C   UNL     1      -0.054  -4.299  -0.580  0.00  0.00    -0.015 A 
ATOM     15  C   UNL     1       0.296  -4.878  -1.786  0.00  0.00    +0.010 A 
ATOM     16  C   UNL     1       0.383  -4.105  -2.929  0.00  0.00    +0.050 A 
ATOM     17  C   UNL     1       0.113  -2.747  -2.869  0.00  0.00    +0.162 A 
BRANCH  12  18
ATOM     18  O   UNL     1      -0.495  -0.830  -1.589  0.00  0.00    -0.489 OA
BRANCH  18  20
ATOM     19  C   UNL     1      -1.100   1.205  -0.434  0.00  0.00    +0.048 C 
ATOM     20  C   UNL     1      -0.844  -0.299  -0.309  0.00  0.00    +0.226 C 
ENDBRANCH  18  20
ENDBRANCH  12  18
BRANCH  17  21
ATOM     21  O   UNL     1       0.192  -1.986  -3.993  0.00  0.00    -0.486 OA
BRANCH  21  22
ATOM     22  C   UNL     1       0.579  -2.649  -5.199  0.00  0.00    +0.167 C 
ATOM     23  C   UNL     1       0.077  -1.850  -6.403  0.00  0.00    +0.051 C 
ATOM     24  C   UNL     1       2.104  -2.753  -5.255  0.00  0.00    +0.051 C 
ENDBRANCH  21  22
ENDBRANCH  17  21
ENDBRANCH   1  14
BRANCH   2  25
ATOM     25  C   UNL     1       2.240  -4.964   1.411  0.00  0.00    +0.339 C 
ATOM     26  O   UNL     1       2.276  -4.638   2.583  0.00  0.00    -0.245 OA
BRANCH  25  27
ATOM     27  O   UNL     1       3.203  -4.543   0.564  0.00  0.00    -0.458 OA
BRANCH  27  28
ATOM     28  C   UNL     1       4.234  -3.719   1.112  0.00  0.00    +0.177 C 
ATOM     29  C   UNL     1       3.822  -2.249   1.005  0.00  0.00    +0.044 C 
ATOM     30  C   UNL     1       4.926  -1.366   1.592  0.00  0.00    +0.004 C 
ATOM     31  C   UNL     1       6.225  -1.590   0.814  0.00  0.00    +0.000 C 
ATOM     32  C   UNL     1       6.636  -3.060   0.921  0.00  0.00    +0.004 C 
ATOM     33  C   UNL     1       5.533  -3.942   0.335  0.00  0.00    +0.044 C 
ENDBRANCH  27  28
ENDBRANCH  25  27
ENDBRANCH   2  25
TORSDOF 8
