REMARK  Name = ZINC62134780
REMARK  1 active torsions:
REMARK  status: ('A' for Active; 'I' for Inactive)
REMARK    1  A    between atoms: C_15  and  C_18
REMARK                            x       y       z     vdW  Elec       q    Type
REMARK                         _______ _______ _______ _____ _____    ______ ____
ROOT
ATOM      1  C   UNL     1       0.015   1.321   0.196  0.00  0.00    +0.013 A 
ATOM      2  C   UNL     1       1.193   1.979   0.282  0.00  0.00    +0.046 A 
ATOM      3  S   UNL     1       2.365   0.631   0.322  0.00  0.00    -0.101 S 
ATOM      4  C   UNL     1       1.200  -0.702   0.218  0.00  0.00    -0.004 A 
ATOM      5  C   UNL     1      -0.005  -0.072   0.163  0.00  0.00    -0.020 A 
ATOM      6  C   UNL     1      -1.293  -0.889   0.076  0.00  0.00    +0.145 C 
ATOM      7  N   UNL     1      -0.925  -2.275  -0.246  0.00  0.00    -0.281 N 
ATOM      8  C   UNL     1       0.164  -2.918   0.504  0.00  0.00    +0.115 C 
ATOM      9  C   UNL     1       1.471  -2.171   0.193  0.00  0.00    +0.062 C 
ATOM     10  C   UNL     1      -1.577  -2.947  -1.215  0.00  0.00    +0.305 C 
ATOM     11  O   UNL     1      -1.157  -4.022  -1.597  0.00  0.00    -0.252 OA
ATOM     12  N   UNL     1      -2.694  -2.428  -1.761  0.00  0.00    -0.285 N 
ATOM     13  C   UNL     1      -3.203  -1.066  -1.540  0.00  0.00    +0.110 C 
ATOM     14  C   UNL     1      -4.513  -0.930  -2.343  0.00  0.00    +0.035 C 
ATOM     15  C   UNL     1      -4.967  -2.403  -2.520  0.00  0.00    +0.121 C 
ATOM     16  C   UNL     1      -3.606  -3.128  -2.684  0.00  0.00    +0.124 C 
ENDROOT
BRANCH  15  17
ATOM     17  C   UNL     1      -5.815  -2.563  -3.755  0.00  0.00    +0.361 C 
ATOM     18  O   UNL     1      -6.077  -1.592  -4.444  0.00  0.00    -0.246 OA
ATOM     19  O   UNL     1      -6.239  -3.663  -4.066  0.00  0.00    -0.246 OA
ENDBRANCH  15  17
TORSDOF 1
