REMARK  Name = ZINC05522402
REMARK  3 active torsions:
REMARK  status: ('A' for Active; 'I' for Inactive)
REMARK    1  A    between atoms: C_13  and  S_16
REMARK    2  A    between atoms: S_16  and  C_17
REMARK    3  A    between atoms: C_17  and  C_18
REMARK                            x       y       z     vdW  Elec       q    Type
REMARK                         _______ _______ _______ _____ _____    ______ ____
ROOT
ATOM      1  C   UNL     1     -10.297  -3.679   1.750  0.00  0.00    +0.040 A 
ATOM      2  C   UNL     1      -9.448  -3.180   2.716  0.00  0.00    +0.029 A 
ATOM      3  C   UNL     1      -8.299  -2.490   2.344  0.00  0.00    +0.050 A 
ATOM      4  C   UNL     1      -8.015  -2.309   0.982  0.00  0.00    +0.032 A 
ATOM      5  C   UNL     1      -8.881  -2.817   0.016  0.00  0.00    +0.050 A 
ATOM      6  C   UNL     1     -10.017  -3.499   0.403  0.00  0.00    +0.124 A 
ATOM      7  F   UNL     1     -10.858  -3.993  -0.531  0.00  0.00    -0.205 F 
ATOM      8  C   UNL     1      -6.752  -1.555   0.917  0.00  0.00    +0.138 A 
ATOM      9  C   UNL     1      -6.356  -1.330   2.252  0.00  0.00    +0.162 A 
ATOM     10  N   UNL     1      -7.290  -1.895   3.085  0.00  0.00    -0.338 N 
ATOM     11  H   UNL     1      -7.323  -1.924   4.184  0.00  0.00    +0.167 HD
ATOM     12  N   UNL     1      -5.226  -0.665   2.472  0.00  0.00    -0.201 NA
ATOM     13  C   UNL     1      -4.518  -0.228   1.438  0.00  0.00    +0.212 A 
ATOM     14  N   UNL     1      -4.913  -0.453   0.188  0.00  0.00    -0.122 NA
ATOM     15  N   UNL     1      -5.998  -1.097  -0.071  0.00  0.00    -0.143 NA
ENDROOT
BRANCH  13  16
ATOM     16  S   UNL     1      -3.024   0.660   1.726  0.00  0.00    -0.080 S 
BRANCH  16  17
ATOM     17  C   UNL     1      -2.514   0.979   0.019  0.00  0.00    +0.114 C 
BRANCH  17  18
ATOM     18  C   UNL     1      -1.219   1.750   0.017  0.00  0.00    -0.019 A 
ATOM     19  C   UNL     1      -0.013   1.076   0.008  0.00  0.00    +0.007 A 
ATOM     20  C   UNL     1       1.175   1.783   0.000  0.00  0.00    +0.020 A 
ATOM     21  C   UNL     1       1.157   3.166   0.008  0.00  0.00    +0.042 A 
ATOM     22  C   UNL     1      -0.050   3.842   0.023  0.00  0.00    +0.040 A 
ATOM     23  C   UNL     1      -1.238   3.134   0.031  0.00  0.00    +0.046 A 
ATOM     24 CL   UNL     1      -2.754   3.981   0.049  0.00  0.00    -0.083 Cl
ATOM     25 CL   UNL     1       2.648   4.054  -0.001  0.00  0.00    -0.083 Cl
ENDBRANCH  17  18
ENDBRANCH  16  17
ENDBRANCH  13  16
TORSDOF 3
