REMARK  Name = ZINC63144754
REMARK  6 active torsions:
REMARK  status: ('A' for Active; 'I' for Inactive)
REMARK    1  A    between atoms: C_1  and  C_2
REMARK    2  A    between atoms: C_5  and  C_8
REMARK    3  A    between atoms: C_8  and  N_9
REMARK    4  A    between atoms: N_9  and  S_10
REMARK    5  A    between atoms: S_10  and  C_13
REMARK    6  A    between atoms: C_16  and  N_20
REMARK                            x       y       z     vdW  Elec       q    Type
REMARK                         _______ _______ _______ _____ _____    ______ ____
ROOT
ATOM      1  S   UNL     1       2.214  -6.134   1.554  0.00  0.00    +0.061 S 
ATOM      2  O   UNL     1       3.125  -6.295   2.633  0.00  0.00    -0.153 OA
ATOM      3  O   UNL     1       0.832  -6.440   1.671  0.00  0.00    -0.153 OA
ENDROOT
BRANCH   1   4
ATOM      4  C   UNL     1       2.834  -7.106   0.222  0.00  0.00    +0.142 A 
ATOM      5  C   UNL     1       1.974  -7.553  -0.766  0.00  0.00    +0.070 A 
ATOM      6  C   UNL     1       2.458  -8.316  -1.812  0.00  0.00    +0.044 A 
ATOM      7  C   UNL     1       3.808  -8.635  -1.871  0.00  0.00    +0.027 A 
ATOM      8  C   UNL     1       4.669  -8.185  -0.879  0.00  0.00    +0.044 A 
ATOM      9  C   UNL     1       4.181  -7.418   0.163  0.00  0.00    +0.070 A 
ATOM     10 CL   UNL     1       5.258  -6.850   1.400  0.00  0.00    -0.081 Cl
ATOM     11 CL   UNL     1       0.286  -7.154  -0.691  0.00  0.00    -0.081 Cl
BRANCH   7  12
ATOM     12  N   UNL     1       4.300  -9.406  -2.927  0.00  0.00    -0.358 N 
ATOM     13  H   UNL     1       3.697  -9.720  -3.619  0.00  0.00    +0.142 HD
ATOM     14  H   UNL     1       5.243  -9.628  -2.967  0.00  0.00    +0.142 HD
ENDBRANCH   7  12
ENDBRANCH   1   4
BRANCH   1  15
ATOM     15  N   UNL     1       2.309  -4.548   1.087  0.00  0.00    -0.190 NA
ATOM     16  H   UNL     1       2.901  -3.939   1.556  0.00  0.00    +0.148 HD
BRANCH  15  17
ATOM     17  C   UNL     1       1.500  -4.064  -0.034  0.00  0.00    +0.109 C 
BRANCH  17  22
ATOM     18  C   UNL     1      -0.019   1.526   0.010  0.00  0.00    +0.007 C 
ATOM     19  C   UNL     1       0.002  -0.004   0.002  0.00  0.00    -0.014 C 
ATOM     20  C   UNL     1       0.718  -0.497  -1.257  0.00  0.00    +0.003 C 
ATOM     21  C   UNL     1       0.739  -2.027  -1.265  0.00  0.00    +0.005 C 
ATOM     22  C   UNL     1       1.479  -2.534  -0.026  0.00  0.00    +0.005 C 
ATOM     23  C   UNL     1       0.763  -2.041   1.233  0.00  0.00    +0.005 C 
ATOM     24  C   UNL     1       0.742  -0.511   1.242  0.00  0.00    +0.003 C 
ENDBRANCH  17  22
ENDBRANCH  15  17
ENDBRANCH   1  15
TORSDOF 5
