REMARK  Name = ZINC00684059
REMARK  4 active torsions:
REMARK  status: ('A' for Active; 'I' for Inactive)
REMARK    1  A    between atoms: C_1  and  C_2
REMARK    2  A    between atoms: C_5  and  C_8
REMARK    3  A    between atoms: C_8  and  S_9
REMARK    4  A    between atoms: S_9  and  C_10
REMARK                            x       y       z     vdW  Elec       q    Type
REMARK                         _______ _______ _______ _____ _____    ______ ____
ROOT
ATOM      1  C   UNL     1       1.632  -6.614  -0.043  0.00  0.00    +0.213 A 
ATOM      2  N   UNL     1       2.732  -7.362  -0.048  0.00  0.00    -0.184 NA
ATOM      3  C   UNL     1       2.618  -8.678  -0.053  0.00  0.00    +0.248 A 
ATOM      4  C   UNL     1       1.325  -9.249  -0.049  0.00  0.00    +0.156 A 
ATOM      5  N   UNL     1       0.271  -8.448  -0.048  0.00  0.00    -0.141 NA
ATOM      6  N   UNL     1       0.427  -7.169  -0.039  0.00  0.00    -0.122 NA
ATOM      7  C   UNL     1       1.175 -10.719  -0.040  0.00  0.00    +0.028 A 
ATOM      8  C   UNL     1       0.309 -11.366  -0.913  0.00  0.00    +0.012 A 
ATOM      9  C   UNL     1       0.188 -12.741  -0.865  0.00  0.00    +0.001 A 
ATOM     10  C   UNL     1       0.922 -13.478   0.048  0.00  0.00    +0.002 A 
ATOM     11  C   UNL     1       1.791 -12.847   0.920  0.00  0.00    +0.024 A 
ATOM     12  C   UNL     1       1.929 -11.472   0.879  0.00  0.00    +0.040 A 
ATOM     13  N   UNL     1       2.824 -10.804   1.721  0.00  0.00    -0.295 N 
ATOM     14  C   UNL     1       4.010 -10.188   1.134  0.00  0.00    +0.283 C 
ATOM     15  O   UNL     1       3.709  -9.481  -0.064  0.00  0.00    -0.437 OA
ATOM     16  C   UNL     1       5.073 -11.216   0.891  0.00  0.00    +0.048 A 
ATOM     17  C   UNL     1       5.092 -12.331   0.081  0.00  0.00    +0.050 A 
ATOM     18  C   UNL     1       6.258 -13.093   0.083  0.00  0.00    +0.124 A 
ATOM     19  C   UNL     1       7.343 -12.743   0.864  0.00  0.00    +0.040 A 
ATOM     20  C   UNL     1       7.329 -11.623   1.681  0.00  0.00    +0.026 A 
ATOM     21  C   UNL     1       6.165 -10.852   1.687  0.00  0.00    +0.043 A 
ATOM     22  N   UNL     1       5.879  -9.699   2.398  0.00  0.00    -0.280 N 
ATOM     23  C   UNL     1       4.638  -9.240   2.138  0.00  0.00    +0.285 C 
ATOM     24  O   UNL     1       4.121  -8.253   2.618  0.00  0.00    -0.269 OA
ATOM     25  F   UNL     1       6.330 -14.196  -0.693  0.00  0.00    -0.205 F 
ATOM     26  H   UNL     1       2.659 -10.751   2.675  0.00  0.00    +0.151 HD
ATOM     27  H   UNL     1       6.498  -9.273   3.011  0.00  0.00    +0.155 HD
ENDROOT
BRANCH   1  28
ATOM     28  S   UNL     1       1.777  -4.858  -0.034  0.00  0.00    -0.080 S 
BRANCH  28  29
ATOM     29  C   UNL     1       0.059  -4.275  -0.021  0.00  0.00    +0.112 C 
BRANCH  29  34
ATOM     30  C   UNL     1      -0.018   1.503   0.010  0.00  0.00    +0.044 C 
ATOM     31  C   UNL     1       0.002  -0.004   0.002  0.00  0.00    -0.050 A 
ATOM     32  C   UNL     1       0.006  -0.689  -1.199  0.00  0.00    +0.003 A 
ATOM     33  C   UNL     1       0.025  -2.071  -1.206  0.00  0.00    +0.005 A 
ATOM     34  C   UNL     1       0.040  -2.768  -0.013  0.00  0.00    -0.037 A 
ATOM     35  C   UNL     1       0.037  -2.084   1.188  0.00  0.00    +0.005 A 
ATOM     36  C   UNL     1       0.023  -0.702   1.195  0.00  0.00    +0.003 A 
ENDBRANCH  29  34
ENDBRANCH  28  29
ENDBRANCH   1  28
TORSDOF 3
