REMARK  Name = ZINC15973363
REMARK  8 active torsions:
REMARK  status: ('A' for Active; 'I' for Inactive)
REMARK    1  A    between atoms: C_1  and  O_2
REMARK    2  A    between atoms: O_2  and  C_3
REMARK    3  A    between atoms: C_8  and  N_9
REMARK    4  A    between atoms: C_10  and  C_12
REMARK    5  A    between atoms: C_15  and  C_29
REMARK    6  A    between atoms: C_29  and  C_30
REMARK    7  A    between atoms: C_30  and  S_31
REMARK    8  A    between atoms: S_31  and  C_32
REMARK                            x       y       z     vdW  Elec       q    Type
REMARK                         _______ _______ _______ _____ _____    ______ ____
ROOT
ATOM      1  C   UNL     1      -0.502  -4.779   1.019  0.00  0.00    +0.110 C 
ATOM      2  C   UNL     1      -2.031  -4.536   1.044  0.00  0.00    +0.034 C 
ATOM      3  C   UNL     1      -2.592  -5.783   0.315  0.00  0.00    +0.056 C 
ATOM      4  N   UNL     1      -1.697  -6.879   0.770  0.00  0.00    -0.296 NA
ATOM      5  C   UNL     1      -0.346  -6.292   0.828  0.00  0.00    +0.135 C 
ATOM      6  C   UNL     1       0.465  -6.898   1.942  0.00  0.00    +0.005 A 
ATOM      7  C   UNL     1       0.298  -6.957   3.308  0.00  0.00    +0.008 A 
ATOM      8  C   UNL     1       1.238  -7.601   4.093  0.00  0.00    +0.002 A 
ATOM      9  C   UNL     1       2.345  -8.185   3.502  0.00  0.00    +0.022 A 
ATOM     10  C   UNL     1       2.516  -8.127   2.134  0.00  0.00    +0.062 A 
ATOM     11  C   UNL     1       1.574  -7.479   1.337  0.00  0.00    +0.057 A 
ATOM     12  N   UNL     1       1.525  -7.288  -0.046  0.00  0.00    -0.282 N 
ATOM     13  C   UNL     1       0.432  -6.600  -0.425  0.00  0.00    +0.243 C 
ATOM     14  O   UNL     1       0.131  -6.287  -1.558  0.00  0.00    -0.273 OA
ATOM     15 CL   UNL     1       3.909  -8.862   1.404  0.00  0.00    -0.082 Cl
ATOM     16  H   UNL     1      -1.979  -7.224   1.675  0.00  0.00    +0.123 HD
ATOM     17  H   UNL     1       2.201  -7.613  -0.662  0.00  0.00    +0.155 HD
ENDROOT
BRANCH   1  19
ATOM     18  N   UNL     1       1.447  -3.762  -0.114  0.00  0.00    -0.282 N 
ATOM     19  C   UNL     1       0.128  -4.037  -0.131  0.00  0.00    +0.223 C 
ATOM     20  O   UNL     1      -0.552  -3.688  -1.073  0.00  0.00    -0.275 OA
ATOM     21  H   UNL     1       2.006  -4.110   0.599  0.00  0.00    +0.155 HD
BRANCH  18  27
ATOM     22  C   UNL     1       3.366  -3.089  -1.427  0.00  0.00    +0.141 A 
ATOM     23  C   UNL     1       3.918  -2.311  -2.432  0.00  0.00    +0.049 A 
ATOM     24  C   UNL     1       3.126  -1.418  -3.129  0.00  0.00    +0.024 A 
ATOM     25  C   UNL     1       1.781  -1.298  -2.826  0.00  0.00    +0.043 A 
ATOM     26  C   UNL     1       1.223  -2.071  -1.825  0.00  0.00    +0.047 A 
ATOM     27  C   UNL     1       2.011  -2.973  -1.125  0.00  0.00    +0.077 A 
ATOM     28 CL   UNL     1       0.792  -0.174  -3.706  0.00  0.00    -0.083 Cl
BRANCH  22  30
ATOM     29  C   UNL     1       5.525  -4.034  -1.104  0.00  0.00    +0.277 C 
ATOM     30  O   UNL     1       4.144  -3.968  -0.741  0.00  0.00    -0.493 OA
ENDBRANCH  22  30
ENDBRANCH  18  27
ENDBRANCH   1  19
BRANCH   3  31
ATOM     31  C   UNL     1      -4.038  -6.051   0.740  0.00  0.00    +0.029 C 
BRANCH  31  32
ATOM     32  C   UNL     1      -4.606  -7.207  -0.085  0.00  0.00    +0.070 C 
BRANCH  32  33
ATOM     33  S   UNL     1      -6.319  -7.525   0.419  0.00  0.00    -0.164 S 
ATOM     34  C   UNL     1      -6.839  -8.904  -0.639  0.00  0.00    +0.084 C 
ENDBRANCH  32  33
ENDBRANCH  31  32
ENDBRANCH   3  31
TORSDOF 6
