REMARK  Name = ZINC19757561
REMARK  6 active torsions:
REMARK  status: ('A' for Active; 'I' for Inactive)
REMARK    1  A    between atoms: C_1  and  C_2
REMARK    2  A    between atoms: C_2  and  C_3
REMARK    3  A    between atoms: N_6  and  C_21
REMARK    4  A    between atoms: C_9  and  C_14
REMARK    5  A    between atoms: C_15  and  C_20
REMARK    6  A    between atoms: C_21  and  C_22
REMARK                            x       y       z     vdW  Elec       q    Type
REMARK                         _______ _______ _______ _____ _____    ______ ____
ROOT
ATOM      1  C   UNL     1       2.149   5.770  -0.128  0.00  0.00    +0.190 C 
ATOM      2  C   UNL     1       2.355   4.260  -0.307  0.00  0.00    +0.150 C 
ATOM      3  N   UNL     1       1.106   3.573   0.042  0.00  0.00    -0.315 N 
ATOM      4  C   UNL     1       0.606   3.985   1.281  0.00  0.00    +0.073 A 
ATOM      5  C   UNL     1      -0.299   3.160   1.938  0.00  0.00    +0.037 A 
ATOM      6  C   UNL     1      -0.821   3.538   3.172  0.00  0.00    +0.003 A 
ATOM      7  C   UNL     1      -0.434   4.747   3.748  0.00  0.00    +0.014 A 
ATOM      8  C   UNL     1       0.466   5.563   3.095  0.00  0.00    +0.048 A 
ATOM      9  C   UNL     1       0.990   5.188   1.865  0.00  0.00    +0.142 A 
ATOM     10  O   UNL     1       1.883   6.017   1.256  0.00  0.00    -0.485 OA
ENDROOT
BRANCH   6  11
ATOM     11  C   UNL     1      -1.788   2.657   3.871  0.00  0.00    +0.083 A 
ATOM     12  C   UNL     1      -1.781   2.569   5.234  0.00  0.00    +0.016 A 
ATOM     13  S   UNL     1      -3.111   1.405   5.500  0.00  0.00    -0.057 S 
ATOM     14  C   UNL     1      -3.539   1.154   3.783  0.00  0.00    +0.156 A 
ATOM     15  N   UNL     1      -2.675   1.948   3.177  0.00  0.00    -0.225 NA
ATOM     16  N   UNL     1      -4.521   0.346   3.234  0.00  0.00    -0.338 N 
ATOM     17  C   UNL     1      -0.895   3.262   6.237  0.00  0.00    +0.054 C 
ATOM     18  H   UNL     1      -4.655   0.306   2.143  0.00  0.00    +0.144 HD
ATOM     19  H   UNL     1      -5.168  -0.257   3.889  0.00  0.00    +0.144 HD
ENDBRANCH   6  11
BRANCH   1  21
ATOM     20  C   UNL     1       3.170   8.027  -0.455  0.00  0.00    +0.007 C 
ATOM     21  C   UNL     1       3.413   6.520  -0.554  0.00  0.00    +0.043 C 
ENDBRANCH   1  21
BRANCH   3  22
ATOM     22  C   UNL     1       1.278   2.115   0.001  0.00  0.00    +0.200 C 
BRANCH  22  23
ATOM     23  C   UNL     1       1.483   1.672  -1.425  0.00  0.00    +0.228 C 
ATOM     24  O   UNL     1       1.381   2.474  -2.329  0.00  0.00    -0.274 OA
ATOM     25  N   UNL     1       1.784   0.387  -1.695  0.00  0.00    -0.328 N 
ATOM     26  H   UNL     1       1.933   0.064  -2.736  0.00  0.00    +0.145 HD
ATOM     27  H   UNL     1       1.881  -0.340  -0.875  0.00  0.00    +0.145 HD
ENDBRANCH  22  23
ENDBRANCH   3  22
TORSDOF 4
