REMARK  Name = ZINC08758235
REMARK  8 active torsions:
REMARK  status: ('A' for Active; 'I' for Inactive)
REMARK    1  A    between atoms: C_1  and  C_2
REMARK    2  A    between atoms: C_2  and  C_4
REMARK    3  A    between atoms: C_2  and  O_16
REMARK    4  A    between atoms: N_6  and  C_7
REMARK    5  A    between atoms: C_10  and  N_13
REMARK    6  A    between atoms: O_16  and  C_17
REMARK    7  A    between atoms: C_17  and  C_19
REMARK    8  A    between atoms: C_24  and  N_25
REMARK                            x       y       z     vdW  Elec       q    Type
REMARK                         _______ _______ _______ _____ _____    ______ ____
ROOT
ATOM      1  C   UNL     1      -0.080   1.478  -0.760  0.00  0.00    +0.062 C 
ATOM      2  C   UNL     1      -0.117  -0.051  -0.734  0.00  0.00    +0.259 C 
ENDROOT
BRANCH   2   3
ATOM      3  C   UNL     1       0.413  -0.589  -2.038  0.00  0.00    +0.258 C 
ATOM      4  O   UNL     1      -0.320  -1.205  -2.782  0.00  0.00    -0.271 OA
ATOM      5  N   UNL     1       1.701  -0.385  -2.378  0.00  0.00    -0.282 N 
ATOM      6  H   UNL     1       2.271   0.162  -1.814  0.00  0.00    +0.155 HD
BRANCH   5   7
ATOM      7  C   UNL     1       2.217  -0.962  -3.544  0.00  0.00    +0.034 A 
ATOM      8  C   UNL     1       3.531  -1.409  -3.575  0.00  0.00    +0.025 A 
ATOM      9  C   UNL     1       4.038  -1.978  -4.728  0.00  0.00    +0.034 A 
ATOM     10  C   UNL     1       3.238  -2.102  -5.849  0.00  0.00    +0.126 A 
ATOM     11  C   UNL     1       1.929  -1.657  -5.820  0.00  0.00    +0.034 A 
ATOM     12  C   UNL     1       1.415  -1.093  -4.669  0.00  0.00    +0.025 A 
BRANCH  10  13
ATOM     13  N   UNL     1       3.784  -2.713  -7.082  0.00  0.00    +0.056 N 
ATOM     14  O   UNL     1       4.928  -3.102  -7.108  0.00  0.00    -0.126 OA
ATOM     15  O   UNL     1       3.085  -2.822  -8.062  0.00  0.00    -0.126 OA
ENDBRANCH  10  13
ENDBRANCH   5   7
ENDBRANCH   2   3
BRANCH   2  16
ATOM     16  O   UNL     1      -1.463  -0.493  -0.548  0.00  0.00    -0.449 OA
BRANCH  16  17
ATOM     17  C   UNL     1      -1.881  -0.665   0.722  0.00  0.00    +0.342 C 
ATOM     18  O   UNL     1      -1.123  -0.446   1.646  0.00  0.00    -0.245 OA
BRANCH  17  19
ATOM     19  C   UNL     1      -3.256  -1.118   0.989  0.00  0.00    +0.081 A 
ATOM     20  C   UNL     1      -4.096  -1.479  -0.069  0.00  0.00    +0.032 A 
ATOM     21  C   UNL     1      -5.382  -1.903   0.189  0.00  0.00    +0.019 A 
ATOM     22  C   UNL     1      -5.849  -1.973   1.493  0.00  0.00    +0.017 A 
ATOM     23  C   UNL     1      -5.032  -1.620   2.547  0.00  0.00    +0.024 A 
ATOM     24  C   UNL     1      -3.731  -1.196   2.308  0.00  0.00    +0.039 A 
ATOM     25 BR   UNL     1      -6.516  -2.390  -1.244  0.00  0.00    -0.050 Br
BRANCH  24  26
ATOM     26  N   UNL     1      -2.905  -0.846   3.369  0.00  0.00    -0.357 N 
ATOM     27  H   UNL     1      -1.975  -0.621   3.205  0.00  0.00    +0.142 HD
ATOM     28  H   UNL     1      -3.257  -0.828   4.272  0.00  0.00    +0.142 HD
ENDBRANCH  24  26
ENDBRANCH  17  19
ENDBRANCH  16  17
ENDBRANCH   2  16
TORSDOF 7
