REMARK  Name = ZINC15953432
REMARK  2 active torsions:
REMARK  status: ('A' for Active; 'I' for Inactive)
REMARK    1  A    between atoms: C_1  and  C_2
REMARK    2  A    between atoms: N_21  and  C_24
REMARK                            x       y       z     vdW  Elec       q    Type
REMARK                         _______ _______ _______ _____ _____    ______ ____
ROOT
ATOM      1  C   UNL     1      -0.013   1.086   0.008  0.00  0.00    +0.035 C 
ATOM      2  C   UNL     1      -0.729   1.579   1.267  0.00  0.00    +0.121 C 
ATOM      3  C   UNL     1      -0.627   3.085   1.359  0.00  0.00    +0.041 A 
ATOM      4  C   UNL     1      -0.243   3.737   2.479  0.00  0.00    -0.015 A 
ATOM      5  C   UNL     1      -0.273   5.154   2.174  0.00  0.00    +0.003 A 
ATOM      6  C   UNL     1       0.015   6.293   2.933  0.00  0.00    +0.010 A 
ATOM      7  C   UNL     1      -0.121   7.506   2.305  0.00  0.00    +0.001 A 
ATOM      8  C   UNL     1      -0.525   7.611   0.984  0.00  0.00    +0.002 A 
ATOM      9  C   UNL     1      -0.817   6.500   0.211  0.00  0.00    +0.026 A 
ATOM     10  C   UNL     1      -0.688   5.255   0.822  0.00  0.00    +0.047 A 
ATOM     11  N   UNL     1      -0.891   3.985   0.363  0.00  0.00    -0.356 N 
ATOM     12  H   UNL     1      -1.181   3.755  -0.533  0.00  0.00    +0.166 HD
ATOM     13  C   UNL     1       0.135   3.069   3.776  0.00  0.00    +0.069 C 
ATOM     14  C   UNL     1      -0.387   1.625   3.762  0.00  0.00    +0.167 C 
ATOM     15  N   UNL     1      -0.078   1.016   2.469  0.00  0.00    -0.280 N 
ATOM     16  C   UNL     1       0.759  -0.015   2.329  0.00  0.00    +0.234 C 
ATOM     17  O   UNL     1       0.998  -0.400   1.204  0.00  0.00    -0.274 OA
ATOM     18  C   UNL     1       1.421  -0.725   3.464  0.00  0.00    +0.204 C 
ATOM     19  N   UNL     1       1.022  -0.185   4.753  0.00  0.00    -0.288 N 
ATOM     20  C   UNL     1       0.214   0.863   4.899  0.00  0.00    +0.237 C 
ATOM     21  O   UNL     1      -0.053   1.222   6.026  0.00  0.00    -0.274 OA
ENDROOT
BRANCH  19  22
ATOM     22  C   UNL     1       1.541  -0.830   5.962  0.00  0.00    +0.077 C 
ATOM     23  C   UNL     1       3.069  -0.764   5.960  0.00  0.00    +0.022 C 
ATOM     24  C   UNL     1       3.611  -1.438   7.222  0.00  0.00    +0.002 C 
ATOM     25  C   UNL     1       3.163  -2.901   7.251  0.00  0.00    +0.000 C 
ATOM     26  C   UNL     1       1.635  -2.966   7.253  0.00  0.00    +0.002 C 
ATOM     27  C   UNL     1       1.093  -2.293   5.991  0.00  0.00    +0.022 C 
ENDBRANCH  19  22
TORSDOF 1
