REMARK  Name = ZINC43465807
REMARK  10 active torsions:
REMARK  status: ('A' for Active; 'I' for Inactive)
REMARK    1  A    between atoms: C_1  and  C_2
REMARK    2  A    between atoms: C_2  and  C_3
REMARK    3  A    between atoms: C_3  and  N_4
REMARK    4  A    between atoms: N_7  and  N_8
REMARK    5  A    between atoms: C_9  and  C_11
REMARK    6  A    between atoms: C_14  and  O_17
REMARK    7  A    between atoms: O_17  and  C_18
REMARK    8  A    between atoms: C_18  and  C_19
REMARK    9  A    between atoms: C_22  and  C_30
REMARK   10  A    between atoms: C_27  and  C_29
REMARK                            x       y       z     vdW  Elec       q    Type
REMARK                         _______ _______ _______ _____ _____    ______ ____
ROOT
ATOM      1  C   UNL     1       0.314  -6.798  -0.062  0.00  0.00    +0.038 A 
ATOM      2  C   UNL     1      -0.315  -6.112   0.980  0.00  0.00    +0.016 A 
ATOM      3  C   UNL     1      -0.921  -6.815   1.997  0.00  0.00    +0.046 A 
ATOM      4  C   UNL     1      -0.907  -8.205   1.988  0.00  0.00    +0.121 A 
ATOM      5  C   UNL     1      -0.281  -8.891   0.954  0.00  0.00    +0.046 A 
ATOM      6  C   UNL     1       0.322  -8.195  -0.070  0.00  0.00    +0.016 A 
ENDROOT
BRANCH   1   8
ATOM      7  N   UNL     1       0.957  -4.700  -1.145  0.00  0.00    -0.229 N 
ATOM      8  C   UNL     1       0.965  -6.048  -1.155  0.00  0.00    +0.260 C 
ATOM      9  O   UNL     1       1.508  -6.646  -2.063  0.00  0.00    -0.269 OA
ATOM     10  H   UNL     1       0.523  -4.223  -0.420  0.00  0.00    +0.173 HD
BRANCH   7  14
ATOM     11  N   UNL     1       0.964  -1.978  -1.165  0.00  0.00    -0.298 N 
ATOM     12  C   UNL     1       1.566  -2.641  -2.172  0.00  0.00    +0.316 C 
ATOM     13  O   UNL     1       2.101  -2.023  -3.072  0.00  0.00    -0.251 OA
ATOM     14  N   UNL     1       1.574  -3.989  -2.182  0.00  0.00    -0.218 N 
ATOM     15  H   UNL     1       0.536  -2.471  -0.447  0.00  0.00    +0.150 HD
ATOM     16  H   UNL     1       2.007  -4.466  -2.907  0.00  0.00    +0.174 HD
BRANCH  11  17
ATOM     17  C   UNL     1       0.955  -0.513  -1.155  0.00  0.00    +0.105 C 
BRANCH  17  19
ATOM     18  C   UNL     1       0.204   1.514   0.099  0.00  0.00    +0.005 C 
ATOM     19  C   UNL     1       0.213  -0.016   0.088  0.00  0.00    +0.015 C 
ENDBRANCH  17  19
ENDBRANCH  11  17
ENDBRANCH   7  14
ENDBRANCH   1   8
BRANCH   4  20
ATOM     20  O   UNL     1      -1.505  -8.895   2.993  0.00  0.00    -0.483 OA
BRANCH  20  21
ATOM     21  C   UNL     1      -1.454 -10.321   2.921  0.00  0.00    +0.324 C 
BRANCH  21  22
ATOM     22  C   UNL     1      -2.164 -10.910   4.112  0.00  0.00    +0.254 C 
ATOM     23  O   UNL     1      -2.666 -10.180   4.941  0.00  0.00    -0.272 OA
ATOM     24  N   UNL     1      -2.243 -12.247   4.257  0.00  0.00    -0.293 N 
ATOM     25  C   UNL     1      -1.747 -13.144   3.204  0.00  0.00    +0.073 C 
ATOM     26  C   UNL     1      -0.757 -14.134   3.825  0.00  0.00    +0.022 C 
ATOM     27  C   UNL     1      -1.428 -14.853   4.998  0.00  0.00    +0.004 C 
ATOM     28  C   UNL     1      -1.823 -13.830   6.066  0.00  0.00    +0.022 C 
ATOM     29  C   UNL     1      -2.820 -12.836   5.473  0.00  0.00    +0.073 C 
ATOM     30  C   UNL     1      -3.108 -11.732   6.491  0.00  0.00    +0.028 C 
ATOM     31  C   UNL     1      -2.921 -13.908   2.586  0.00  0.00    +0.028 C 
ENDBRANCH  21  22
ENDBRANCH  20  21
ENDBRANCH   4  20
TORSDOF 7
