REMARK  Name = ZINC20527702
REMARK  16 active torsions:
REMARK  status: ('A' for Active; 'I' for Inactive)
REMARK    1  A    between atoms: C_1  and  C_2
REMARK    2  A    between atoms: C_2  and  N_3
REMARK    3  A    between atoms: N_3  and  C_4
REMARK    4  A    between atoms: N_3  and  C_6
REMARK    5  A    between atoms: C_4  and  C_5
REMARK    6  A    between atoms: C_9  and  C_12
REMARK    7  A    between atoms: N_13  and  N_14
REMARK    8  A    between atoms: C_18  and  S_21
REMARK    9  A    between atoms: N_19  and  N_20
REMARK   10  A    between atoms: S_21  and  C_22
REMARK   11  A    between atoms: C_22  and  C_23
REMARK   12  A    between atoms: N_25  and  C_26
REMARK   13  A    between atoms: C_29  and  O_34
REMARK   14  A    between atoms: C_30  and  O_32
REMARK   15  A    between atoms: O_32  and  C_33
REMARK   16  A    between atoms: O_34  and  C_35
REMARK                            x       y       z     vdW  Elec       q    Type
REMARK                         _______ _______ _______ _____ _____    ______ ____
ROOT
ATOM      1  N   UNL     1       0.061   0.011  -0.534  0.00  0.00    -0.204 N 
ATOM      2  C   UNL     1       0.034   1.394  -0.429  0.00  0.00    +0.254 A 
ATOM      3  N   UNL     1      -1.032   2.131  -0.232  0.00  0.00    -0.109 NA
ATOM      4  N   UNL     1      -0.629   3.472  -0.185  0.00  0.00    -0.119 NA
ATOM      5  C   UNL     1       0.670   3.511  -0.363  0.00  0.00    +0.210 A 
ATOM      6  N   UNL     1       1.113   2.228  -0.518  0.00  0.00    -0.211 N 
ATOM      7  H   UNL     1       1.015  -0.509  -0.706  0.00  0.00    +0.177 HD
ENDROOT
BRANCH   6   8
ATOM      8  N   UNL     1       2.408   1.846  -0.725  0.00  0.00    -0.294 N 
ATOM      9  H   UNL     1       3.204   2.604  -0.780  0.00  0.00    +0.163 HD
ATOM     10  H   UNL     1       2.656   0.780  -0.837  0.00  0.00    +0.163 HD
ENDBRANCH   6   8
BRANCH   1  12
ATOM     11  C   UNL     1      -1.102  -2.018  -0.522  0.00  0.00    +0.138 C 
ATOM     12  N   UNL     1      -1.127  -0.723  -0.423  0.00  0.00    -0.188 NA
BRANCH  11  16
ATOM     13  C   UNL     1      -4.702  -4.243  -0.183  0.00  0.00    +0.030 A 
ATOM     14  C   UNL     1      -3.497  -4.902  -0.400  0.00  0.00    +0.024 A 
ATOM     15  C   UNL     1      -2.326  -4.184  -0.510  0.00  0.00    +0.011 A 
ATOM     16  C   UNL     1      -2.352  -2.790  -0.404  0.00  0.00    -0.005 A 
ATOM     17  C   UNL     1      -3.564  -2.132  -0.181  0.00  0.00    +0.011 A 
ATOM     18  C   UNL     1      -4.731  -2.857  -0.077  0.00  0.00    +0.024 A 
BRANCH  13  19
ATOM     19  N   UNL     1      -5.885  -4.975  -0.072  0.00  0.00    -0.330 N 
BRANCH  19  21
ATOM     20  C   UNL     1      -7.797  -3.937  -1.189  0.00  0.00    +0.024 C 
ATOM     21  C   UNL     1      -7.156  -4.282   0.157  0.00  0.00    +0.102 C 
ENDBRANCH  19  21
BRANCH  19  22
ATOM     22  C   UNL     1      -5.856  -6.435  -0.183  0.00  0.00    +0.102 C 
ATOM     23  C   UNL     1      -5.647  -7.049   1.203  0.00  0.00    +0.024 C 
ENDBRANCH  19  22
ENDBRANCH  13  19
ENDBRANCH  11  16
ENDBRANCH   1  12
BRANCH   5  24
ATOM     24  S   UNL     1       1.668   4.963  -0.395  0.00  0.00    -0.075 S 
BRANCH  24  25
ATOM     25  C   UNL     1       0.486   6.314  -0.132  0.00  0.00    +0.173 C 
BRANCH  25  26
ATOM     26  C   UNL     1       1.219   7.630  -0.137  0.00  0.00    +0.227 C 
ATOM     27  O   UNL     1       2.421   7.655  -0.302  0.00  0.00    -0.275 OA
ATOM     28  N   UNL     1       0.539   8.781   0.041  0.00  0.00    -0.285 N 
ATOM     29  H   UNL     1      -0.559   8.767   0.104  0.00  0.00    +0.155 HD
BRANCH  28  30
ATOM     30  C   UNL     1       1.232   9.994   0.147  0.00  0.00    +0.037 A 
ATOM     31  C   UNL     1       2.483  10.029   0.747  0.00  0.00    +0.027 A 
ATOM     32  C   UNL     1       3.170  11.225   0.848  0.00  0.00    +0.051 A 
ATOM     33  C   UNL     1       2.606  12.392   0.359  0.00  0.00    +0.162 A 
ATOM     34  C   UNL     1       1.349  12.361  -0.238  0.00  0.00    +0.163 A 
ATOM     35  C   UNL     1       0.664  11.162  -0.344  0.00  0.00    +0.072 A 
BRANCH  34  36
ATOM     36  O   UNL     1       0.795  13.506  -0.718  0.00  0.00    -0.491 OA
ATOM     37  C   UNL     1      -0.497  13.400  -1.319  0.00  0.00    +0.277 C 
ENDBRANCH  34  36
BRANCH  33  38
ATOM     38  O   UNL     1       3.280  13.569   0.464  0.00  0.00    -0.491 OA
ATOM     39  C   UNL     1       4.565  13.527   1.088  0.00  0.00    +0.277 C 
ENDBRANCH  33  38
ENDBRANCH  28  30
ENDBRANCH  25  26
ENDBRANCH  24  25
ENDBRANCH   5  24
TORSDOF 12
