REMARK  Name = ZINC43764032
REMARK  4 active torsions:
REMARK  status: ('A' for Active; 'I' for Inactive)
REMARK    1  A    between atoms: C_1  and  C_2
REMARK    2  A    between atoms: C_13  and  O_15
REMARK    3  A    between atoms: C_20  and  C_27
REMARK    4  A    between atoms: C_23  and  O_26
REMARK                            x       y       z     vdW  Elec       q    Type
REMARK                         _______ _______ _______ _____ _____    ______ ____
ROOT
ATOM      1  C   UNL     1      -0.019   1.526   0.010  0.00  0.00    +0.014 C 
ATOM      2  C   UNL     1       0.002  -0.004   0.002  0.00  0.00    -0.003 C 
ATOM      3  C   UNL     1       0.629  -0.480  -1.288  0.00  0.00    +0.010 C 
ATOM      4  C   UNL     1       0.818  -1.997  -1.284  0.00  0.00    +0.005 C 
ATOM      5  C   UNL     1       1.722  -2.370  -0.104  0.00  0.00    +0.000 C 
ATOM      6  C   UNL     1       1.014  -1.988   1.194  0.00  0.00    -0.002 C 
ATOM      7  C   UNL     1       0.749  -0.500   1.253  0.00  0.00    +0.001 C 
ATOM      8  C   UNL     1      -0.322  -0.286   2.364  0.00  0.00    +0.007 C 
ATOM      9  C   UNL     1      -1.647  -0.698   1.684  0.00  0.00    +0.032 C 
ATOM     10  C   UNL     1      -1.433  -0.522   0.167  0.00  0.00    +0.121 C 
ATOM     11  C   UNL     1       1.874  -2.400   2.391  0.00  0.00    +0.025 C 
ATOM     12  C   UNL     1       2.100  -3.912   2.365  0.00  0.00    +0.102 C 
ATOM     13  C   UNL     1       1.403  -4.513   1.143  0.00  0.00    +0.069 C 
ATOM     14  C   UNL     1       1.987  -3.878  -0.139  0.00  0.00    -0.008 C 
ATOM     15  C   UNL     1       1.310  -4.482  -1.371  0.00  0.00    +0.011 C 
ATOM     16  C   UNL     1       1.568  -5.990  -1.408  0.00  0.00    +0.032 C 
ATOM     17  C   UNL     1       0.996  -6.635  -0.145  0.00  0.00    +0.116 C 
ATOM     18  C   UNL     1       1.643  -6.024   1.114  0.00  0.00    +0.056 C 
ATOM     19  C   UNL     1       3.495  -4.130  -0.209  0.00  0.00    +0.013 C 
ATOM     20 CL   UNL     1      -0.367  -4.187   1.239  0.00  0.00    -0.116 Cl
ATOM     21 CL   UNL     1       1.421  -4.647   3.866  0.00  0.00    -0.120 Cl
ENDROOT
BRANCH  10  22
ATOM     22  O   UNL     1      -1.583  -1.776  -0.501  0.00  0.00    -0.391 OA
ATOM     23  H   UNL     1      -2.471  -2.155  -0.432  0.00  0.00    +0.210 HD
ENDBRANCH  10  22
BRANCH  17  24
ATOM     24  O   UNL     1      -0.411  -6.391  -0.080  0.00  0.00    -0.392 OA
ATOM     25  H   UNL     1      -0.906  -6.745  -0.831  0.00  0.00    +0.210 HD
ENDBRANCH  17  24
TORSDOF 2
