REMARK  Name = ZINC66977287
REMARK  8 active torsions:
REMARK  status: ('A' for Active; 'I' for Inactive)
REMARK    1  A    between atoms: C_1  and  C_2
REMARK    2  A    between atoms: C_2  and  C_4
REMARK    3  A    between atoms: C_2  and  C_23
REMARK    4  A    between atoms: C_4  and  N_5
REMARK    5  A    between atoms: C_11  and  N_14
REMARK    6  A    between atoms: C_15  and  C_17
REMARK    7  A    between atoms: C_17  and  C_18
REMARK    8  A    between atoms: C_23  and  N_24
REMARK                            x       y       z     vdW  Elec       q    Type
REMARK                         _______ _______ _______ _____ _____    ______ ____
ROOT
ATOM      1  N   UNL     1       2.695  -0.995   3.317  0.00  0.00    -0.299 N 
ATOM      2  C   UNL     1       3.127  -0.312   2.239  0.00  0.00    +0.302 C 
ATOM      3  O   UNL     1       2.360  -0.064   1.329  0.00  0.00    -0.253 OA
ATOM      4  N   UNL     1       4.409   0.097   2.169  0.00  0.00    -0.286 N 
ATOM      5  C   UNL     1       4.923   0.748   0.956  0.00  0.00    +0.111 C 
ATOM      6  C   UNL     1       5.559   2.086   1.345  0.00  0.00    +0.041 C 
ATOM      7  C   UNL     1       6.616   1.847   2.426  0.00  0.00    +0.076 C 
ATOM      8  C   UNL     1       5.953   1.248   3.668  0.00  0.00    +0.041 C 
ATOM      9  C   UNL     1       5.319  -0.093   3.307  0.00  0.00    +0.111 C 
ATOM     10  H   UNL     1       3.286  -1.130   4.074  0.00  0.00    +0.150 HD
ENDROOT
BRANCH   7  11
ATOM     11  N   UNL     1       7.250   3.120   2.778  0.00  0.00    -0.312 N 
ATOM     12  C   UNL     1       8.496   3.133   3.293  0.00  0.00    +0.214 C 
ATOM     13  O   UNL     1       9.092   2.091   3.465  0.00  0.00    -0.276 OA
ATOM     14  H   UNL     1       6.774   3.954   2.640  0.00  0.00    +0.149 HD
BRANCH  12  15
ATOM     15  C   UNL     1       9.148   4.443   3.654  0.00  0.00    +0.099 C 
BRANCH  15  16
ATOM     16  C   UNL     1      10.548   4.178   4.213  0.00  0.00    -0.002 C 
ATOM     17  C   UNL     1      10.446   3.462   5.576  0.00  0.00    +0.004 C 
ATOM     18  C   UNL     1      11.599   4.070   6.412  0.00  0.00    +0.000 C 
ATOM     19  C   UNL     1      11.587   5.558   5.980  0.00  0.00    +0.000 C 
ATOM     20  C   UNL     1      11.273   5.511   4.470  0.00  0.00    +0.004 C 
ENDBRANCH  15  16
ENDBRANCH  12  15
ENDBRANCH   7  11
BRANCH   1  21
ATOM     21  C   UNL     1       1.333  -1.534   3.346  0.00  0.00    +0.107 C 
BRANCH  21  23
ATOM     22  C   UNL     1       2.020  -3.480   4.755  0.00  0.00    +0.007 C 
ATOM     23  C   UNL     1       1.100  -2.260   4.672  0.00  0.00    -0.014 C 
BRANCH  23  24
ATOM     24  C   UNL     1      -0.358  -2.715   4.755  0.00  0.00    -0.074 C 
BRANCH  24  25
ATOM     25  N   UNL     1      -0.612  -3.309   6.075  0.00  0.00    +0.380 N 
ATOM     26  C   UNL     1      -1.962  -3.884   6.099  0.00  0.00    -0.079 C 
ATOM     27  C   UNL     1      -2.202  -4.575   7.443  0.00  0.00    -0.019 C 
ATOM     28  C   UNL     1      -2.062  -3.548   8.571  0.00  0.00    -0.004 C 
ATOM     29  C   UNL     1      -0.677  -2.901   8.490  0.00  0.00    -0.019 C 
ATOM     30  C   UNL     1      -0.494  -2.272   7.107  0.00  0.00    -0.079 C 
ATOM     31  H   UNL     1       0.065  -4.036   6.251  0.00  0.00    -0.082 HD
ENDBRANCH  24  25
ENDBRANCH  23  24
ENDBRANCH  21  23
ENDBRANCH   1  21
TORSDOF 7
