REMARK  Name = ZINC63147891
REMARK  5 active torsions:
REMARK  status: ('A' for Active; 'I' for Inactive)
REMARK    1  A    between atoms: C_1  and  C_2
REMARK    2  A    between atoms: C_5  and  C_8
REMARK    3  A    between atoms: C_8  and  N_9
REMARK    4  A    between atoms: N_12  and  C_13
REMARK    5  A    between atoms: C_18  and  C_21
REMARK                            x       y       z     vdW  Elec       q    Type
REMARK                         _______ _______ _______ _____ _____    ______ ____
ROOT
ATOM      1  N   UNL     1       2.309  -4.548   1.087  0.00  0.00    -0.299 N 
ATOM      2  C   UNL     1       2.470  -5.872   1.280  0.00  0.00    +0.300 C 
ATOM      3  O   UNL     1       1.944  -6.665   0.524  0.00  0.00    -0.253 OA
ATOM      4  N   UNL     1       3.215  -6.316   2.312  0.00  0.00    -0.297 N 
ATOM      5  H   UNL     1       2.729  -3.915   1.690  0.00  0.00    +0.150 HD
ATOM      6  H   UNL     1       3.635  -5.684   2.915  0.00  0.00    +0.151 HD
ENDROOT
BRANCH   4   7
ATOM      7  C   UNL     1       3.390  -7.756   2.522  0.00  0.00    +0.075 C 
ATOM      8  C   UNL     1       2.211  -8.301   3.329  0.00  0.00    +0.022 C 
ATOM      9  C   UNL     1       2.149  -7.592   4.684  0.00  0.00    +0.003 C 
ATOM     10  C   UNL     1       3.450  -7.841   5.449  0.00  0.00    +0.015 C 
ATOM     11  C   UNL     1       4.630  -7.296   4.642  0.00  0.00    +0.104 C 
ATOM     12  C   UNL     1       4.691  -8.005   3.287  0.00  0.00    +0.037 C 
BRANCH  11  13
ATOM     13  C   UNL     1       5.911  -7.541   5.396  0.00  0.00    +0.359 C 
ATOM     14  O   UNL     1       5.883  -8.100   6.479  0.00  0.00    -0.246 OA
ATOM     15  O   UNL     1       6.975  -7.181   4.923  0.00  0.00    -0.246 OA
ENDBRANCH  11  13
ENDBRANCH   4   7
BRANCH   1  16
ATOM     16  C   UNL     1       1.500  -4.064  -0.034  0.00  0.00    +0.109 C 
BRANCH  16  21
ATOM     17  C   UNL     1      -0.019   1.526   0.010  0.00  0.00    +0.007 C 
ATOM     18  C   UNL     1       0.002  -0.004   0.002  0.00  0.00    -0.014 C 
ATOM     19  C   UNL     1       0.718  -0.497  -1.257  0.00  0.00    +0.003 C 
ATOM     20  C   UNL     1       0.739  -2.027  -1.265  0.00  0.00    +0.005 C 
ATOM     21  C   UNL     1       1.479  -2.534  -0.026  0.00  0.00    +0.006 C 
ATOM     22  C   UNL     1       0.763  -2.041   1.233  0.00  0.00    +0.005 C 
ATOM     23  C   UNL     1       0.742  -0.511   1.242  0.00  0.00    +0.003 C 
ENDBRANCH  16  21
ENDBRANCH   1  16
TORSDOF 4
