REMARK  Name = ZINC64136863
REMARK  7 active torsions:
REMARK  status: ('A' for Active; 'I' for Inactive)
REMARK    1  A    between atoms: C_1  and  O_2
REMARK    2  A    between atoms: O_2  and  C_3
REMARK    3  A    between atoms: C_10  and  C_18
REMARK    4  A    between atoms: C_20  and  O_38
REMARK    5  A    between atoms: C_22  and  O_37
REMARK    6  A    between atoms: N_24  and  C_27
REMARK    7  A    between atoms: C_31  and  C_33
REMARK                            x       y       z     vdW  Elec       q    Type
REMARK                         _______ _______ _______ _____ _____    ______ ____
ROOT
ATOM      1  C   UNL     1      -7.033  -5.201  -0.530  0.00  0.00    +0.179 C 
ATOM      2  C   UNL     1      -6.526  -6.084   0.573  0.00  0.00    +0.200 C 
ATOM      3  N   UNL     1      -6.176  -7.297   0.384  0.00  0.00    -0.204 NA
ATOM      4  C   UNL     1      -6.219  -7.969  -0.904  0.00  0.00    +0.338 C 
ATOM      5  N   UNL     1      -7.117  -7.307  -1.839  0.00  0.00    -0.225 N 
ATOM      6  C   UNL     1      -7.496  -6.035  -1.691  0.00  0.00    +0.237 C 
ATOM      7  O   UNL     1      -8.233  -5.541  -2.518  0.00  0.00    -0.274 OA
ENDROOT
BRANCH   1  14
ATOM      8  C   UNL     1      -4.131   1.053   0.186  0.00  0.00    +0.121 A 
ATOM      9  C   UNL     1      -5.441   1.190   0.677  0.00  0.00    +0.047 A 
ATOM     10  C   UNL     1      -6.267   0.136   0.843  0.00  0.00    +0.029 A 
ATOM     11  C   UNL     1      -5.806  -1.214   0.507  0.00  0.00    +0.043 A 
ATOM     12  N   UNL     1      -6.405  -2.382   0.552  0.00  0.00    -0.376 N 
ATOM     13  C   UNL     1      -5.438  -3.411   0.185  0.00  0.00    +0.124 C 
ATOM     14  C   UNL     1      -5.910  -4.271  -0.990  0.00  0.00    +0.101 C 
ATOM     15  N   UNL     1      -4.769  -5.068  -1.468  0.00  0.00    -0.310 NA
ATOM     16  C   UNL     1      -3.708  -4.256  -2.070  0.00  0.00    +0.085 C 
ATOM     17  C   UNL     1      -3.070  -3.346  -1.005  0.00  0.00    +0.048 C 
ATOM     18  C   UNL     1      -4.203  -2.654  -0.280  0.00  0.00    -0.036 C 
ATOM     19  C   UNL     1      -4.425  -1.361  -0.021  0.00  0.00    +0.003 A 
ATOM     20  C   UNL     1      -3.611  -0.147  -0.164  0.00  0.00    +0.055 A 
ATOM     21  H   UNL     1      -4.403  -5.653  -0.732  0.00  0.00    +0.122 HD
ATOM     22  H   UNL     1      -7.332  -2.534   0.790  0.00  0.00    +0.160 HD
BRANCH   8  24
ATOM     23  C   UNL     1      -3.949   3.411   0.432  0.00  0.00    +0.277 C 
ATOM     24  O   UNL     1      -3.361   2.165   0.052  0.00  0.00    -0.495 OA
ENDBRANCH   8  24
ENDBRANCH   1  14
BRANCH   5  25
ATOM     25  C   UNL     1      -7.601  -8.032  -2.933  0.00  0.00    +0.041 A 
ATOM     26  C   UNL     1      -8.771  -8.772  -2.816  0.00  0.00    +0.024 A 
ATOM     27  C   UNL     1      -9.246  -9.486  -3.898  0.00  0.00    +0.002 A 
ATOM     28  C   UNL     1      -8.558  -9.465  -5.098  0.00  0.00    +0.012 A 
ATOM     29  C   UNL     1      -7.393  -8.730  -5.218  0.00  0.00    +0.057 A 
ATOM     30  C   UNL     1      -6.916  -8.008  -4.141  0.00  0.00    +0.036 A 
BRANCH  29  31
ATOM     31  C   UNL     1      -6.646  -8.710  -6.527  0.00  0.00    +0.417 C 
ATOM     32  F   UNL     1      -7.321  -9.504  -7.460  0.00  0.00    -0.166 F 
ATOM     33  F   UNL     1      -6.570  -7.396  -7.001  0.00  0.00    -0.166 F 
ATOM     34  F   UNL     1      -5.355  -9.212  -6.335  0.00  0.00    -0.166 F 
ENDBRANCH  29  31
ENDBRANCH   5  25
BRANCH   4  35
ATOM     35  O   UNL     1      -4.903  -7.987  -1.462  0.00  0.00    -0.356 OA
ATOM     36  H   UNL     1      -4.251  -8.447  -0.916  0.00  0.00    +0.214 HD
ENDBRANCH   4  35
BRANCH   2  37
ATOM     37  O   UNL     1      -6.437  -5.573   1.818  0.00  0.00    -0.495 OA
ATOM     38  H   UNL     1      -6.103  -6.198   2.476  0.00  0.00    +0.293 HD
ENDBRANCH   2  37
TORSDOF 6
