REMARK  Name = ZINC11912075
REMARK  6 active torsions:
REMARK  status: ('A' for Active; 'I' for Inactive)
REMARK    1  A    between atoms: C_9  and  C_11
REMARK    2  A    between atoms: C_11  and  N_68
REMARK    3  A    between atoms: C_14  and  C_17
REMARK    4  A    between atoms: C_17  and  C_29
REMARK    5  A    between atoms: N_20  and  C_24
REMARK    6  A    between atoms: C_29  and  C_30
REMARK                            x       y       z     vdW  Elec       q    Type
REMARK                         _______ _______ _______ _____ _____    ______ ____
ROOT
ATOM      1  C   UNL     1      -2.944   0.710   1.463  0.00  0.00    +0.119 C 
ATOM      2  C   UNL     1      -1.838   0.012   2.229  0.00  0.00    +0.247 C 
ATOM      3  O   UNL     1      -1.351  -1.072   1.988  0.00  0.00    -0.273 OA
ATOM      4  N   UNL     1      -1.508   0.848   3.234  0.00  0.00    -0.221 N 
ATOM      5  C   UNL     1      -2.244   1.964   3.209  0.00  0.00    +0.310 C 
ATOM      6  O   UNL     1      -2.130   2.867   4.015  0.00  0.00    -0.252 OA
ATOM      7  N   UNL     1      -3.127   1.976   2.194  0.00  0.00    -0.284 N 
ATOM      8  H   UNL     1      -3.760   2.680   1.984  0.00  0.00    +0.151 HD
ENDROOT
BRANCH   1  11
ATOM      9  C   UNL     1      -5.960  -1.149   2.971  0.00  0.00    -0.078 C 
ATOM     10  C   UNL     1      -4.641  -0.371   2.947  0.00  0.00    -0.013 C 
ATOM     11  C   UNL     1      -4.230  -0.119   1.494  0.00  0.00    +0.018 C 
ATOM     12  C   UNL     1      -5.348   0.644   0.779  0.00  0.00    -0.013 C 
ATOM     13  C   UNL     1      -6.646  -0.162   0.867  0.00  0.00    -0.078 C 
ATOM     14  N   UNL     1      -7.000  -0.349   2.290  0.00  0.00    +0.384 N 
ATOM     15  H   UNL     1      -7.062   0.571   2.742  0.00  0.00    -0.081 HD
BRANCH  14  16
ATOM     16  C   UNL     1      -8.309  -1.026   2.400  0.00  0.00    -0.003 C 
BRANCH  16  25
ATOM     17  C   UNL     1     -12.110   1.240  -1.690  0.00  0.00    +0.002 A 
ATOM     18  C   UNL     1     -12.337   2.176  -0.690  0.00  0.00    +0.002 A 
ATOM     19  C   UNL     1     -11.678   2.095   0.504  0.00  0.00    +0.030 A 
ATOM     20  C   UNL     1     -10.765   1.061   0.726  0.00  0.00    +0.089 A 
ATOM     21  C   UNL     1     -10.534   0.113  -0.285  0.00  0.00    +0.066 A 
ATOM     22  C   UNL     1     -11.213   0.212  -1.492  0.00  0.00    +0.028 A 
ATOM     23  N   UNL     1      -9.595  -0.763   0.221  0.00  0.00    -0.343 N 
ATOM     24  H   UNL     1      -9.207  -1.555  -0.252  0.00  0.00    +0.167 HD
ATOM     25  C   UNL     1      -9.293  -0.350   1.481  0.00  0.00    +0.091 A 
ATOM     26  N   UNL     1      -9.975   0.719   1.776  0.00  0.00    -0.234 NA
ENDBRANCH  16  25
ENDBRANCH  14  16
ENDBRANCH   1  11
BRANCH   4  27
ATOM     27  C   UNL     1      -0.471   0.568   4.230  0.00  0.00    +0.086 C 
ATOM     28  C   UNL     1      -1.077   0.607   5.648  0.00  0.00    +0.023 C 
ATOM     29  C   UNL     1       0.035   1.248   6.518  0.00  0.00    +0.002 C 
ATOM     30  C   UNL     1       0.629   2.324   5.575  0.00  0.00    +0.002 C 
ATOM     31  C   UNL     1       0.614   1.658   4.184  0.00  0.00    +0.023 C 
ENDBRANCH   4  27
BRANCH   1  32
ATOM     32  C   UNL     1      -2.513   0.978   0.020  0.00  0.00    +0.070 C 
BRANCH  32  33
ATOM     33  C   UNL     1      -1.219   1.750   0.017  0.00  0.00    -0.045 A 
ATOM     34  C   UNL     1      -0.013   1.076   0.008  0.00  0.00    +0.006 A 
ATOM     35  C   UNL     1       1.175   1.783   0.000  0.00  0.00    +0.038 A 
ATOM     36  C   UNL     1       1.156   3.167   0.008  0.00  0.00    +0.123 A 
ATOM     37  C   UNL     1      -0.053   3.842   0.022  0.00  0.00    +0.038 A 
ATOM     38  C   UNL     1      -1.240   3.133   0.030  0.00  0.00    +0.006 A 
ATOM     39  F   UNL     1       2.316   3.859  -0.000  0.00  0.00    -0.205 F 
ENDBRANCH  32  33
ENDBRANCH   1  32
TORSDOF 6
