REMARK  Name = ZINC16650129
REMARK  3 active torsions:
REMARK  status: ('A' for Active; 'I' for Inactive)
REMARK    1  A    between atoms: C_8  and  C_10
REMARK    2  A    between atoms: C_11  and  N_22
REMARK    3  A    between atoms: N_12  and  C_15
REMARK                            x       y       z     vdW  Elec       q    Type
REMARK                         _______ _______ _______ _____ _____    ______ ____
ROOT
ATOM      1  C   UNL     1       4.490   0.512  -0.390  0.00  0.00    +0.159 A 
ATOM      2  C   UNL     1       3.545   1.489  -0.656  0.00  0.00    +0.150 A 
ATOM      3  N   UNL     1       2.405   1.103  -0.015  0.00  0.00    -0.198 N 
ATOM      4  N   UNL     1       2.693  -0.113   0.620  0.00  0.00    -0.058 NA
ATOM      5  N   UNL     1       3.917  -0.427   0.381  0.00  0.00    -0.125 NA
ENDROOT
BRANCH   1  13
ATOM      6  C   UNL     1      10.368  -0.881  -1.613  0.00  0.00    +0.002 A 
ATOM      7  C   UNL     1      10.559   0.264  -2.374  0.00  0.00    +0.001 A 
ATOM      8  C   UNL     1       9.510   1.149  -2.541  0.00  0.00    +0.017 A 
ATOM      9  C   UNL     1       8.298   0.883  -1.954  0.00  0.00    +0.040 A 
ATOM     10  C   UNL     1       8.067  -0.272  -1.172  0.00  0.00    +0.079 A 
ATOM     11  C   UNL     1       9.162  -1.155  -1.023  0.00  0.00    +0.029 A 
ATOM     12  N   UNL     1       6.825  -0.394  -0.661  0.00  0.00    -0.237 NA
ATOM     13  C   UNL     1       5.883   0.502  -0.873  0.00  0.00    +0.133 A 
ATOM     14  S   UNL     1       6.721   1.700  -1.901  0.00  0.00    -0.066 S 
ENDBRANCH   1  13
BRANCH   3  15
ATOM     15  C   UNL     1       1.180   1.787   0.000  0.00  0.00    +0.069 A 
ATOM     16  C   UNL     1      -0.013   1.076   0.008  0.00  0.00    +0.031 A 
ATOM     17  C   UNL     1      -1.218   1.750   0.017  0.00  0.00    +0.040 A 
ATOM     18  C   UNL     1      -1.237   3.135   0.030  0.00  0.00    +0.124 A 
ATOM     19  C   UNL     1      -0.048   3.846   0.022  0.00  0.00    +0.040 A 
ATOM     20  C   UNL     1       1.159   3.175   0.008  0.00  0.00    +0.031 A 
ATOM     21  F   UNL     1      -2.417   3.793   0.044  0.00  0.00    -0.205 F 
ENDBRANCH   3  15
BRANCH   2  22
ATOM     22  N   UNL     1       3.722   2.631  -1.418  0.00  0.00    -0.341 N 
ATOM     23  H   UNL     1       2.988   3.253  -1.538  0.00  0.00    +0.144 HD
ATOM     24  H   UNL     1       4.582   2.810  -1.832  0.00  0.00    +0.144 HD
ENDBRANCH   2  22
TORSDOF 3
