REMARK  Name = ZINC66120460
REMARK  5 active torsions:
REMARK  status: ('A' for Active; 'I' for Inactive)
REMARK    1  A    between atoms: C_3  and  N_24
REMARK    2  A    between atoms: C_6  and  C_7
REMARK    3  A    between atoms: C_7  and  N_8
REMARK    4  A    between atoms: C_14  and  N_17
REMARK    5  A    between atoms: C_18  and  C_20
REMARK                            x       y       z     vdW  Elec       q    Type
REMARK                         _______ _______ _______ _____ _____    ______ ____
ROOT
ATOM      1  N   UNL     1      -1.606  -0.940  -1.383  0.00  0.00    -0.295 N 
ATOM      2  C   UNL     1      -2.699  -1.636  -1.755  0.00  0.00    +0.302 C 
ATOM      3  O   UNL     1      -3.475  -2.044  -0.913  0.00  0.00    -0.253 OA
ATOM      4  N   UNL     1      -2.932  -1.878  -3.060  0.00  0.00    -0.286 N 
ATOM      5  C   UNL     1      -1.943  -1.501  -4.079  0.00  0.00    +0.111 C 
ATOM      6  C   UNL     1      -2.634  -0.639  -5.141  0.00  0.00    +0.041 C 
ATOM      7  C   UNL     1      -3.849  -1.389  -5.691  0.00  0.00    +0.076 C 
ATOM      8  C   UNL     1      -4.844  -1.651  -4.558  0.00  0.00    +0.041 C 
ATOM      9  C   UNL     1      -4.176  -2.530  -3.490  0.00  0.00    +0.111 C 
ATOM     10  H   UNL     1      -1.028  -0.549  -2.056  0.00  0.00    +0.151 HD
ENDROOT
BRANCH   7  11
ATOM     11  N   UNL     1      -4.492  -0.582  -6.729  0.00  0.00    -0.312 N 
ATOM     12  C   UNL     1      -5.229  -1.179  -7.687  0.00  0.00    +0.216 C 
ATOM     13  O   UNL     1      -5.359  -2.385  -7.689  0.00  0.00    -0.276 OA
ATOM     14  H   UNL     1      -4.388   0.383  -6.728  0.00  0.00    +0.149 HD
BRANCH  12  15
ATOM     15  C   UNL     1      -5.891  -0.348  -8.756  0.00  0.00    +0.075 C 
ATOM     16  C   UNL     1      -4.954   0.023  -9.917  0.00  0.00    +0.013 C 
ATOM     17  C   UNL     1      -5.395  -1.288 -10.588  0.00  0.00    +0.001 C 
ATOM     18  C   UNL     1      -6.694  -1.177  -9.772  0.00  0.00    +0.013 C 
ENDBRANCH  12  15
ENDBRANCH   7  11
BRANCH   1  19
ATOM     19  C   UNL     1      -1.291  -0.776   0.038  0.00  0.00    +0.142 C 
BRANCH  19  25
ATOM     20  C   UNL     1      -0.091   1.419   0.277  0.00  0.00    +0.010 A 
ATOM     21  C   UNL     1       1.091   2.126   0.409  0.00  0.00    +0.042 A 
ATOM     22  C   UNL     1       2.295   1.430   0.442  0.00  0.00    +0.099 A 
ATOM     23  N   UNL     1       2.313   0.109   0.348  0.00  0.00    -0.349 N 
ATOM     24  C   UNL     1       1.202  -0.591   0.222  0.00  0.00    +0.089 A 
ATOM     25  C   UNL     1      -0.029   0.035   0.182  0.00  0.00    -0.014 A 
ATOM     26  H   UNL     1       3.164  -0.355   0.373  0.00  0.00    +0.167 HD
BRANCH  22  27
ATOM     27  N   UNL     1       3.490   2.127   0.573  0.00  0.00    -0.317 N 
ATOM     28  C   UNL     1       4.762   1.410   0.731  0.00  0.00    +0.106 C 
ATOM     29  C   UNL     1       5.744   1.905  -0.336  0.00  0.00    +0.019 C 
ATOM     30  C   UNL     1       5.866   3.428  -0.243  0.00  0.00    +0.003 C 
ATOM     31  C   UNL     1       4.501   4.068  -0.508  0.00  0.00    +0.019 C 
ATOM     32  C   UNL     1       3.506   3.596   0.550  0.00  0.00    +0.106 C 
ENDBRANCH  22  27
ENDBRANCH  19  25
ENDBRANCH   1  19
TORSDOF 5
