REMARK  Name = ZINC20347563
REMARK  10 active torsions:
REMARK  status: ('A' for Active; 'I' for Inactive)
REMARK    1  A    between atoms: C_1  and  C_2
REMARK    2  A    between atoms: C_5  and  N_8
REMARK    3  A    between atoms: C_9  and  C_11
REMARK    4  A    between atoms: C_11  and  S_12
REMARK    5  A    between atoms: S_12  and  C_13
REMARK    6  A    between atoms: C_14  and  C_35
REMARK    7  A    between atoms: C_15  and  C_30
REMARK    8  A    between atoms: C_17  and  C_21
REMARK    9  A    between atoms: C_18  and  C_20
REMARK   10  A    between atoms: N_23  and  C_24
REMARK                            x       y       z     vdW  Elec       q    Type
REMARK                         _______ _______ _______ _____ _____    ______ ____
ROOT
ATOM      1  C   UNL     1      -2.824   2.408   2.943  0.00  0.00    +0.080 C 
ATOM      2  C   UNL     1      -2.147   2.203   4.105  0.00  0.00    +0.072 C 
ATOM      3  C   UNL     1      -0.796   1.545   4.114  0.00  0.00    +0.134 C 
ATOM      4  C   UNL     1      -0.196   1.538   2.737  0.00  0.00    +0.047 C 
ATOM      5  C   UNL     1      -0.939   1.764   1.642  0.00  0.00    +0.015 C 
ATOM      6  N   UNL     1      -2.278   2.025   1.740  0.00  0.00    -0.312 N 
ATOM      7  C   UNL     1      -0.286   1.736   0.284  0.00  0.00    +0.061 C 
ATOM      8  H   UNL     1      -2.919   1.929   0.851  0.00  0.00    +0.152 HD
ENDROOT
BRANCH   3   9
ATOM      9  C   UNL     1      -0.939   0.125   4.599  0.00  0.00    +0.118 A 
ATOM     10  C   UNL     1      -0.361  -0.393   5.698  0.00  0.00    +0.045 A 
ATOM     11  C   UNL     1      -0.763  -1.746   5.772  0.00  0.00    +0.041 A 
ATOM     12  C   UNL     1      -1.562  -1.974   4.715  0.00  0.00    +0.195 A 
ATOM     13  O   UNL     1      -1.670  -0.836   4.011  0.00  0.00    -0.467 OA
ENDBRANCH   3   9
BRANCH   4  14
ATOM     14  C   UNL     1       1.189   1.286   2.591  0.00  0.00    +0.247 C 
ATOM     15  O   UNL     1       1.711   1.374   1.494  0.00  0.00    -0.270 OA
ATOM     16  N   UNL     1       1.931   0.950   3.665  0.00  0.00    -0.282 N 
ATOM     17  H   UNL     1       1.447   0.797   4.641  0.00  0.00    +0.155 HD
BRANCH  16  18
ATOM     18  C   UNL     1       3.315   0.795   3.539  0.00  0.00    +0.034 A 
ATOM     19  C   UNL     1       3.851   0.241   2.383  0.00  0.00    +0.023 A 
ATOM     20  C   UNL     1       5.218   0.096   2.259  0.00  0.00    +0.002 A 
ATOM     21  C   UNL     1       6.053   0.489   3.289  0.00  0.00    +0.000 A 
ATOM     22  C   UNL     1       5.522   1.036   4.443  0.00  0.00    +0.002 A 
ATOM     23  C   UNL     1       4.156   1.190   4.571  0.00  0.00    +0.023 A 
ENDBRANCH  16  18
ENDBRANCH   4  14
BRANCH   2  24
ATOM     24  C   UNL     1      -2.732   2.622   5.343  0.00  0.00    +0.098 C 
ATOM     25  N   UNL     1      -3.196   2.955   6.325  0.00  0.00    -0.191 NA
ENDBRANCH   2  24
BRANCH   1  26
ATOM     26  S   UNL     1      -4.410   3.174   2.980  0.00  0.00    -0.100 S 
BRANCH  26  27
ATOM     27  C   UNL     1      -4.798   3.177   1.212  0.00  0.00    +0.171 C 
BRANCH  27  29
ATOM     28  N   UNL     1      -6.651   3.916  -0.251  0.00  0.00    -0.285 N 
ATOM     29  C   UNL     1      -6.151   3.805   0.995  0.00  0.00    +0.227 C 
ATOM     30  O   UNL     1      -6.790   4.210   1.943  0.00  0.00    -0.275 OA
ATOM     31  H   UNL     1      -6.111   3.474  -1.102  0.00  0.00    +0.155 HD
BRANCH  28  36
ATOM     32  C   UNL     1     -11.538   6.664  -1.114  0.00  0.00    +0.044 C 
ATOM     33  C   UNL     1     -10.240   5.934  -0.885  0.00  0.00    -0.050 A 
ATOM     34  C   UNL     1      -9.390   6.339   0.128  0.00  0.00    +0.005 A 
ATOM     35  C   UNL     1      -8.200   5.672   0.341  0.00  0.00    +0.023 A 
ATOM     36  C   UNL     1      -7.856   4.594  -0.464  0.00  0.00    +0.033 A 
ATOM     37  C   UNL     1      -8.710   4.193  -1.484  0.00  0.00    +0.023 A 
ATOM     38  C   UNL     1      -9.901   4.860  -1.688  0.00  0.00    +0.005 A 
ENDBRANCH  28  36
ENDBRANCH  27  29
ENDBRANCH  26  27
ENDBRANCH   1  26
TORSDOF 8
