REMARK  Name = ZINC39530246
REMARK  8 active torsions:
REMARK  status: ('A' for Active; 'I' for Inactive)
REMARK    1  A    between atoms: C_1  and  O_2
REMARK    2  A    between atoms: O_2  and  C_3
REMARK    3  A    between atoms: N_6  and  C_10
REMARK    4  A    between atoms: C_13  and  S_23
REMARK    5  A    between atoms: C_15  and  C_16
REMARK    6  A    between atoms: C_21  and  O_22
REMARK    7  A    between atoms: S_23  and  O_26
REMARK    8  A    between atoms: O_26  and  C_27
REMARK                            x       y       z     vdW  Elec       q    Type
REMARK                         _______ _______ _______ _____ _____    ______ ____
ROOT
ATOM      1  C   UNL     1      -3.039  -3.478   1.265  0.00  0.00    +0.038 A 
ATOM      2  C   UNL     1      -3.832  -2.876   2.232  0.00  0.00    +0.026 A 
ATOM      3  C   UNL     1      -4.371  -3.634   3.254  0.00  0.00    +0.032 A 
ATOM      4  C   UNL     1      -4.124  -4.994   3.321  0.00  0.00    +0.129 A 
ATOM      5  C   UNL     1      -3.337  -5.606   2.366  0.00  0.00    +0.041 A 
ATOM      6  C   UNL     1      -2.793  -4.854   1.328  0.00  0.00    +0.009 A 
ENDROOT
BRANCH   1   9
ATOM      7  C   UNL     1      -1.295  -0.603   0.011  0.00  0.00    +0.203 C 
ATOM      8  C   UNL     1      -1.171  -2.087   0.375  0.00  0.00    +0.152 C 
ATOM      9  N   UNL     1      -2.493  -2.715   0.232  0.00  0.00    -0.324 N 
ATOM     10  C   UNL     1      -3.225  -2.518  -1.028  0.00  0.00    +0.120 C 
ATOM     11  C   UNL     1      -3.269  -1.017  -1.336  0.00  0.00    +0.102 C 
ATOM     12  N   UNL     1      -1.903  -0.477  -1.320  0.00  0.00    -0.289 NA
ATOM     13  H   UNL     1      -1.889   0.482  -1.635  0.00  0.00    +0.124 HD
BRANCH   7  15
ATOM     14  C   UNL     1      -0.017   1.425   0.010  0.00  0.00    +0.196 C 
ATOM     15  O   UNL     1       0.002  -0.004   0.002  0.00  0.00    -0.363 OA
ENDBRANCH   7  15
ENDBRANCH   1   9
BRANCH   6  16
ATOM     16  C   UNL     1      -1.952  -5.508   0.296  0.00  0.00    +0.025 A 
ATOM     17  C   UNL     1      -2.509  -6.447  -0.569  0.00  0.00    +0.012 A 
ATOM     18  C   UNL     1      -1.722  -7.053  -1.527  0.00  0.00    +0.001 A 
ATOM     19  C   UNL     1      -0.380  -6.731  -1.632  0.00  0.00    +0.004 A 
ATOM     20  C   UNL     1       0.183  -5.801  -0.779  0.00  0.00    +0.046 A 
ATOM     21  C   UNL     1      -0.597  -5.181   0.184  0.00  0.00    +0.125 A 
BRANCH  21  22
ATOM     22  O   UNL     1      -0.046  -4.262   1.019  0.00  0.00    -0.506 OA
ATOM     23  H   UNL     1       0.316  -4.638   1.833  0.00  0.00    +0.292 HD
ENDBRANCH  21  22
ENDBRANCH   6  16
BRANCH   4  24
ATOM     24  S   UNL     1      -4.817  -5.948   4.630  0.00  0.00    +0.151 S 
ATOM     25  O   UNL     1      -3.993  -7.096   4.776  0.00  0.00    -0.131 OA
ATOM     26  O   UNL     1      -5.067  -5.048   5.700  0.00  0.00    -0.131 OA
BRANCH  24  27
ATOM     27  O   UNL     1      -6.175  -6.445   4.154  0.00  0.00    -0.342 OA
BRANCH  27  28
ATOM     28  C   UNL     1      -6.107  -7.463   3.256  0.00  0.00    +0.157 A 
ATOM     29  C   UNL     1      -6.043  -7.187   1.898  0.00  0.00    +0.048 A 
ATOM     30  C   UNL     1      -5.974  -8.223   0.986  0.00  0.00    +0.004 A 
ATOM     31  C   UNL     1      -5.969  -9.533   1.427  0.00  0.00    +0.000 A 
ATOM     32  C   UNL     1      -6.032  -9.811   2.780  0.00  0.00    +0.004 A 
ATOM     33  C   UNL     1      -6.096  -8.778   3.695  0.00  0.00    +0.048 A 
ENDBRANCH  27  28
ENDBRANCH  24  27
ENDBRANCH   4  24
TORSDOF 7
