REMARK  Name = ZINC34835773
REMARK  16 active torsions:
REMARK  status: ('A' for Active; 'I' for Inactive)
REMARK    1  A    between atoms: C_1  and  C_2
REMARK    2  A    between atoms: C_2  and  C_3
REMARK    3  A    between atoms: C_3  and  C_4
REMARK    4  A    between atoms: C_4  and  N_5
REMARK    5  A    between atoms: N_8  and  C_9
REMARK    6  A    between atoms: N_8  and  C_12
REMARK    7  A    between atoms: C_9  and  C_10
REMARK    8  A    between atoms: C_10  and  C_11
REMARK    9  A    between atoms: C_12  and  C_13
REMARK   10  A    between atoms: C_14  and  C_34
REMARK   11  A    between atoms: N_16  and  C_27
REMARK   12  A    between atoms: C_17  and  N_18
REMARK   13  A    between atoms: N_21  and  C_24
REMARK   14  A    between atoms: C_24  and  C_25
REMARK   15  A    between atoms: C_24  and  C_26
REMARK   16  A    between atoms: C_34  and  C_35
REMARK                            x       y       z     vdW  Elec       q    Type
REMARK                         _______ _______ _______ _____ _____    ______ ____
ROOT
ATOM      1  C   UNL     1       3.821  -6.792   3.462  0.00  0.00    +0.033 A 
ATOM      2  C   UNL     1       3.810  -6.942   2.072  0.00  0.00    +0.070 A 
ATOM      3  N   UNL     1       4.926  -6.453   1.594  0.00  0.00    -0.169 NA
ATOM      4  N   UNL     1       5.693  -5.972   2.662  0.00  0.00    -0.218 N 
ATOM      5  C   UNL     1       4.990  -6.185   3.808  0.00  0.00    +0.130 A 
ENDROOT
BRANCH   5   6
ATOM      6  N   UNL     1       5.394  -5.849   5.097  0.00  0.00    -0.318 N 
ATOM      7  C   UNL     1       6.450  -6.610   5.781  0.00  0.00    +0.088 C 
ATOM      8  C   UNL     1       7.486  -5.620   6.326  0.00  0.00    -0.059 C 
ATOM      9  N   UNL     1       6.813  -4.624   7.169  0.00  0.00    +0.383 N 
ATOM     10  C   UNL     1       5.890  -3.822   6.356  0.00  0.00    -0.059 C 
ATOM     11  C   UNL     1       4.780  -4.719   5.811  0.00  0.00    +0.088 C 
ATOM     12  H   UNL     1       6.297  -5.094   7.897  0.00  0.00    -0.081 HD
BRANCH   9  13
ATOM     13  C   UNL     1       7.818  -3.743   7.778  0.00  0.00    -0.075 C 
ATOM     14  C   UNL     1       7.119  -2.703   8.657  0.00  0.00    -0.014 C 
ATOM     15  C   UNL     1       8.774  -4.575   8.635  0.00  0.00    -0.014 C 
ENDBRANCH   9  13
ENDBRANCH   5   6
BRANCH   4  16
ATOM     16  C   UNL     1       6.957  -5.371   2.568  0.00  0.00    +0.068 A 
ATOM     17  C   UNL     1       7.284  -4.308   3.398  0.00  0.00    +0.030 A 
ATOM     18  C   UNL     1       8.530  -3.718   3.304  0.00  0.00    +0.040 A 
ATOM     19  C   UNL     1       9.451  -4.186   2.382  0.00  0.00    +0.124 A 
ATOM     20  C   UNL     1       9.125  -5.247   1.553  0.00  0.00    +0.040 A 
ATOM     21  C   UNL     1       7.883  -5.843   1.649  0.00  0.00    +0.030 A 
ATOM     22  F   UNL     1      10.668  -3.608   2.291  0.00  0.00    -0.205 F 
ENDBRANCH   4  16
BRANCH   2  23
ATOM     23  C   UNL     1       2.701  -7.563   1.262  0.00  0.00    +0.054 C 
ATOM     24  C   UNL     1       1.762  -6.465   0.758  0.00  0.00    +0.010 C 
ENDBRANCH   2  23
BRANCH   1  25
ATOM     25  C   UNL     1       2.729  -7.220   4.409  0.00  0.00    +0.149 C 
BRANCH  25  29
ATOM     26  N   UNL     1       3.868  -9.822   6.743  0.00  0.00    -0.299 N 
ATOM     27  C   UNL     1       3.642  -8.615   6.186  0.00  0.00    +0.302 C 
ATOM     28  O   UNL     1       3.963  -7.603   6.777  0.00  0.00    -0.253 OA
ATOM     29  N   UNL     1       3.059  -8.531   4.974  0.00  0.00    -0.281 N 
ATOM     30  H   UNL     1       3.611 -10.629   6.271  0.00  0.00    +0.150 HD
BRANCH  26  31
ATOM     31  C   UNL     1       4.501  -9.913   8.060  0.00  0.00    +0.106 C 
BRANCH  31  32
ATOM     32  C   UNL     1       4.641 -11.384   8.458  0.00  0.00    +0.018 C 
BRANCH  32  34
ATOM     33  C   UNL     1       5.443 -12.950  10.232  0.00  0.00    +0.004 C 
ATOM     34  C   UNL     1       5.303 -11.479   9.834  0.00  0.00    -0.002 C 
ENDBRANCH  32  34
ENDBRANCH  31  32
ENDBRANCH  26  31
BRANCH  29  35
ATOM     35  C   UNL     1       2.755  -9.750   4.221  0.00  0.00    +0.109 C 
BRANCH  35  36
ATOM     36  C   UNL     1       1.324 -10.197   4.529  0.00  0.00    +0.016 C 
ATOM     37  C   UNL     1       1.007 -11.470   3.743  0.00  0.00    +0.005 C 
ENDBRANCH  35  36
ENDBRANCH  29  35
ENDBRANCH  25  29
ENDBRANCH   1  25
TORSDOF 11
