REMARK  Name = ZINC24449420
REMARK  6 active torsions:
REMARK  status: ('A' for Active; 'I' for Inactive)
REMARK    1  A    between atoms: C_1  and  C_2
REMARK    2  A    between atoms: C_7  and  C_32
REMARK    3  A    between atoms: N_12  and  C_16
REMARK    4  A    between atoms: C_16  and  N_17
REMARK    5  A    between atoms: N_20  and  S_23
REMARK    6  A    between atoms: S_23  and  C_26
REMARK                            x       y       z     vdW  Elec       q    Type
REMARK                         _______ _______ _______ _____ _____    ______ ____
ROOT
ATOM      1  C   UNL     1      -4.211   1.402  -1.497  0.00  0.00    +0.205 C 
ENDROOT
BRANCH   1  11
ATOM      2  C   UNL     1      -0.019   1.526   0.010  0.00  0.00    +0.010 C 
ATOM      3  C   UNL     1       0.002  -0.004   0.002  0.00  0.00    +0.019 C 
ATOM      4  C   UNL     1       0.743  -0.511   1.242  0.00  0.00    +0.006 C 
ATOM      5  C   UNL     1       0.745  -2.041   1.243  0.00  0.00    +0.001 C 
ATOM      6  C   UNL     1      -0.695  -2.556   1.274  0.00  0.00    +0.006 C 
ATOM      7  C   UNL     1      -1.441  -2.056   0.034  0.00  0.00    +0.019 C 
ATOM      8  C   UNL     1      -1.429  -0.532   0.012  0.00  0.00    +0.118 C 
ATOM      9  C   UNL     1      -2.190  -0.015  -1.187  0.00  0.00    +0.248 C 
ATOM     10  O   UNL     1      -1.937  -0.210  -2.357  0.00  0.00    -0.273 OA
ATOM     11  N   UNL     1      -3.209   0.710  -0.682  0.00  0.00    -0.211 N 
ATOM     12  C   UNL     1      -3.192   0.719   0.657  0.00  0.00    +0.310 C 
ATOM     13  O   UNL     1      -4.009   1.304   1.339  0.00  0.00    -0.252 OA
ATOM     14  N   UNL     1      -2.167   0.006   1.162  0.00  0.00    -0.284 N 
ATOM     15  C   UNL     1      -0.754  -2.590  -1.224  0.00  0.00    +0.010 C 
ATOM     16  H   UNL     1      -1.829  -0.216   2.185  0.00  0.00    +0.151 HD
ENDBRANCH   1  11
BRANCH   1  17
ATOM     17  N   UNL     1      -3.749   2.766  -1.786  0.00  0.00    -0.284 NA
ATOM     18  C   UNL     1      -4.006   3.661  -0.650  0.00  0.00    +0.103 C 
ATOM     19  C   UNL     1      -3.352   5.021  -0.917  0.00  0.00    +0.125 C 
ATOM     20  N   UNL     1      -3.822   5.518  -2.219  0.00  0.00    -0.174 NA
ATOM     21  C   UNL     1      -3.724   4.623  -3.382  0.00  0.00    +0.125 C 
ATOM     22  C   UNL     1      -4.363   3.279  -3.018  0.00  0.00    +0.103 C 
BRANCH  20  23
ATOM     23  S   UNL     1      -4.445   7.045  -2.372  0.00  0.00    +0.067 S 
ATOM     24  O   UNL     1      -3.911   7.810  -1.300  0.00  0.00    -0.152 OA
ATOM     25  O   UNL     1      -4.277   7.418  -3.732  0.00  0.00    -0.152 OA
BRANCH  23  26
ATOM     26  C   UNL     1      -6.181   6.929  -2.092  0.00  0.00    +0.144 A 
ATOM     27  C   UNL     1      -6.867   7.039  -0.928  0.00  0.00    +0.038 A 
ATOM     28  C   UNL     1      -8.244   6.912  -0.946  0.00  0.00    +0.030 A 
ATOM     29  C   UNL     1      -8.867   6.682  -2.129  0.00  0.00    +0.080 A 
ATOM     30  S   UNL     1      -7.493   6.645  -3.269  0.00  0.00    -0.057 S 
ATOM     31 CL   UNL     1     -10.561   6.482  -2.452  0.00  0.00    -0.076 Cl
ENDBRANCH  23  26
ENDBRANCH  20  23
ENDBRANCH   1  17
TORSDOF 4
