REMARK  Name = ZINC15675841
REMARK  5 active torsions:
REMARK  status: ('A' for Active; 'I' for Inactive)
REMARK    1  A    between atoms: C_4  and  N_7
REMARK    2  A    between atoms: C_19  and  C_21
REMARK    3  A    between atoms: C_23  and  C_26
REMARK    4  A    between atoms: C_29  and  O_32
REMARK    5  A    between atoms: O_32  and  C_33
REMARK                            x       y       z     vdW  Elec       q    Type
REMARK                         _______ _______ _______ _____ _____    ______ ____
ROOT
ATOM      1  N   UNL     1       3.622  -0.651  -0.039  0.00  0.00    -0.269 N 
ATOM      2  C   UNL     1       3.645  -1.995   0.058  0.00  0.00    +0.307 C 
ATOM      3  O   UNL     1       2.603  -2.622   0.067  0.00  0.00    -0.252 OA
ATOM      4  N   UNL     1       4.823  -2.644   0.144  0.00  0.00    -0.267 N 
ATOM      5  C   UNL     1       6.090  -1.899   0.254  0.00  0.00    +0.165 C 
ATOM      6  C   UNL     1       7.076  -2.551  -0.686  0.00  0.00    +0.054 A 
ATOM      7  C   UNL     1       6.864  -3.740  -1.288  0.00  0.00    +0.040 A 
ATOM      8  N   UNL     1       7.963  -4.003  -2.048  0.00  0.00    -0.349 N 
ATOM      9  H   UNL     1       8.110  -4.787  -2.599  0.00  0.00    +0.166 HD
ATOM     10  C   UNL     1       8.813  -2.962  -1.889  0.00  0.00    +0.171 A 
ATOM     11  N   UNL     1       8.271  -2.098  -1.071  0.00  0.00    -0.348 N 
ATOM     12  C   UNL     1       5.623  -4.579  -1.124  0.00  0.00    +0.087 C 
ATOM     13  C   UNL     1       4.875  -4.114   0.138  0.00  0.00    +0.172 C 
ATOM     14  H   UNL     1       4.446  -0.161  -0.184  0.00  0.00    +0.156 HD
ATOM     15  H   UNL     1       8.673  -1.261  -0.789  0.00  0.00    +0.166 HD
ENDROOT
BRANCH   1  19
ATOM     16  C   UNL     1       0.010   1.400   0.286  0.00  0.00    +0.000 A 
ATOM     17  C   UNL     1       1.183   1.999   0.706  0.00  0.00    +0.002 A 
ATOM     18  C   UNL     1       2.382   1.321   0.600  0.00  0.00    +0.023 A 
ATOM     19  C   UNL     1       2.409   0.038   0.070  0.00  0.00    +0.035 A 
ATOM     20  C   UNL     1       1.228  -0.561  -0.350  0.00  0.00    +0.023 A 
ATOM     21  C   UNL     1       0.033   0.122  -0.241  0.00  0.00    +0.002 A 
ENDBRANCH   1  19
BRANCH  13  22
ATOM     22  C   UNL     1       5.601  -4.598   1.367  0.00  0.00    +0.249 A 
ATOM     23  N   UNL     1       5.224  -5.577   2.137  0.00  0.00    -0.190 NA
ATOM     24  C   UNL     1       6.106  -5.740   3.140  0.00  0.00    +0.202 A 
ATOM     25  N   UNL     1       7.059  -4.851   3.008  0.00  0.00    -0.056 NA
ATOM     26  O   UNL     1       6.747  -4.096   1.846  0.00  0.00    -0.336 OA
BRANCH  24  27
ATOM     27  C   UNL     1       6.013  -6.756   4.218  0.00  0.00    +0.023 A 
ATOM     28  C   UNL     1       4.946  -7.651   4.243  0.00  0.00    +0.015 A 
ATOM     29  C   UNL     1       4.862  -8.594   5.246  0.00  0.00    +0.046 A 
ATOM     30  C   UNL     1       5.841  -8.652   6.229  0.00  0.00    +0.130 A 
ATOM     31  C   UNL     1       6.906  -7.761   6.207  0.00  0.00    +0.046 A 
ATOM     32  C   UNL     1       6.997  -6.820   5.203  0.00  0.00    +0.015 A 
BRANCH  30  33
ATOM     33  O   UNL     1       5.756  -9.582   7.215  0.00  0.00    -0.406 OA
BRANCH  33  34
ATOM     34  C   UNL     1       6.797  -9.586   8.195  0.00  0.00    +0.575 C 
ATOM     35  F   UNL     1       6.828  -8.348   8.847  0.00  0.00    -0.133 F 
ATOM     36  F   UNL     1       6.555 -10.599   9.129  0.00  0.00    -0.133 F 
ATOM     37  F   UNL     1       8.027  -9.813   7.568  0.00  0.00    -0.133 F 
ENDBRANCH  33  34
ENDBRANCH  30  33
ENDBRANCH  24  27
ENDBRANCH  13  22
TORSDOF 5
