REMARK  Name = ZINC63216955
REMARK  5 active torsions:
REMARK  status: ('A' for Active; 'I' for Inactive)
REMARK    1  A    between atoms: C_1  and  O_2
REMARK    2  A    between atoms: O_2  and  C_3
REMARK    3  A    between atoms: C_6  and  C_11
REMARK    4  A    between atoms: C_8  and  O_9
REMARK    5  A    between atoms: O_9  and  C_10
REMARK                            x       y       z     vdW  Elec       q    Type
REMARK                         _______ _______ _______ _____ _____    ______ ____
ROOT
ATOM      1  C   UNL     1       2.507  -2.501  -4.386  0.00  0.00    +0.070 C 
ATOM      2  C   UNL     1       1.747  -2.184  -5.651  0.00  0.00    -0.010 A 
ATOM      3  C   UNL     1       0.373  -1.901  -5.592  0.00  0.00    -0.012 A 
ATOM      4  C   UNL     1      -0.322  -1.914  -4.371  0.00  0.00    +0.009 A 
ATOM      5  C   UNL     1      -1.654  -1.633  -4.351  0.00  0.00    +0.001 A 
ATOM      6  C   UNL     1      -2.341  -1.334  -5.525  0.00  0.00    +0.001 A 
ATOM      7  C   UNL     1      -1.701  -1.312  -6.726  0.00  0.00    +0.008 A 
ATOM      8  C   UNL     1      -0.326  -1.595  -6.787  0.00  0.00    -0.017 A 
ATOM      9  C   UNL     1       0.368  -1.579  -8.009  0.00  0.00    +0.010 A 
ATOM     10  C   UNL     1       1.696  -1.861  -8.039  0.00  0.00    +0.024 A 
ATOM     11  C   UNL     1       2.398  -2.168  -6.864  0.00  0.00    +0.036 A 
ATOM     12  N   UNL     1       3.761  -2.471  -6.939  0.00  0.00    -0.304 N 
ATOM     13  C   UNL     1       4.524  -2.472  -5.820  0.00  0.00    +0.106 C 
ATOM     14  N   UNL     1       5.753  -2.912  -5.871  0.00  0.00    -0.151 NA
ATOM     15  C   UNL     1       6.513  -3.045  -4.778  0.00  0.00    +0.331 C 
ATOM     16  O   UNL     1       7.683  -3.354  -4.906  0.00  0.00    -0.250 OA
ATOM     17  N   UNL     1       6.022  -2.848  -3.543  0.00  0.00    -0.238 N 
ATOM     18  C   UNL     1       4.782  -2.359  -3.362  0.00  0.00    +0.231 C 
ATOM     19  O   UNL     1       4.347  -2.231  -2.237  0.00  0.00    -0.275 OA
ATOM     20  C   UNL     1       3.934  -1.974  -4.529  0.00  0.00    +0.148 C 
ATOM     21  H   UNL     1       4.163  -2.681  -7.797  0.00  0.00    +0.153 HD
ATOM     22  H   UNL     1       6.570  -3.061  -2.771  0.00  0.00    +0.159 HD
ENDROOT
BRANCH   1  26
ATOM     23  C   UNL     1       0.605  -0.608  -1.057  0.00  0.00    +0.162 A 
ATOM     24  C   UNL     1       0.935   0.131  -2.182  0.00  0.00    +0.050 A 
ATOM     25  C   UNL     1       1.550  -0.484  -3.256  0.00  0.00    +0.008 A 
ATOM     26  C   UNL     1       1.837  -1.836  -3.212  0.00  0.00    -0.035 A 
ATOM     27  C   UNL     1       1.510  -2.578  -2.093  0.00  0.00    +0.053 A 
ATOM     28  C   UNL     1       0.899  -1.967  -1.010  0.00  0.00    +0.162 A 
BRANCH  23  30
ATOM     29  C   UNL     1      -0.271   1.394  -0.117  0.00  0.00    +0.277 C 
ATOM     30  O   UNL     1       0.000  -0.004   0.001  0.00  0.00    -0.491 OA
ENDBRANCH  23  30
BRANCH  28  31
ATOM     31  O   UNL     1       0.582  -2.695   0.094  0.00  0.00    -0.491 OA
ATOM     32  C   UNL     1       0.913  -4.085   0.072  0.00  0.00    +0.277 C 
ENDBRANCH  28  31
ENDBRANCH   1  26
TORSDOF 3
