REMARK  Name = ZINC63405509
REMARK  4 active torsions:
REMARK  status: ('A' for Active; 'I' for Inactive)
REMARK    1  A    between atoms: C_7  and  C_10
REMARK    2  A    between atoms: C_10  and  C_11
REMARK    3  A    between atoms: C_11  and  C_12
REMARK    4  A    between atoms: N_14  and  C_15
REMARK                            x       y       z     vdW  Elec       q    Type
REMARK                         _______ _______ _______ _____ _____    ______ ____
ROOT
ATOM      1  C   UNL     1      -0.482  -4.832  -1.460  0.00  0.00    +0.218 C 
ATOM      2  O   UNL     1      -0.927  -5.251  -0.412  0.00  0.00    -0.275 OA
ATOM      3  N   UNL     1      -0.837  -5.413  -2.623  0.00  0.00    -0.284 N 
ATOM      4  H   UNL     1      -0.546  -5.030  -3.465  0.00  0.00    +0.155 HD
ENDROOT
BRANCH   3   5
ATOM      5  C   UNL     1      -1.627  -6.570  -2.616  0.00  0.00    +0.055 A 
ATOM      6  C   UNL     1      -1.623  -7.405  -1.506  0.00  0.00    +0.072 A 
ATOM      7  C   UNL     1      -2.404  -8.547  -1.501  0.00  0.00    +0.144 A 
ATOM      8  C   UNL     1      -3.192  -8.856  -2.610  0.00  0.00    +0.077 A 
ATOM      9  C   UNL     1      -3.193  -8.022  -3.715  0.00  0.00    +0.048 A 
ATOM     10  C   UNL     1      -2.417  -6.878  -3.717  0.00  0.00    +0.064 A 
ATOM     11 CL   UNL     1      -2.423  -5.828  -5.099  0.00  0.00    -0.082 Cl
ATOM     12  N   UNL     1      -3.978 -10.019  -2.589  0.00  0.00    -0.280 N 
ATOM     13  C   UNL     1      -4.203 -10.636  -1.408  0.00  0.00    +0.255 C 
ATOM     14  O   UNL     1      -4.854 -11.659  -1.370  0.00  0.00    -0.272 OA
ATOM     15  C   UNL     1      -3.643 -10.047  -0.138  0.00  0.00    +0.325 C 
ATOM     16  O   UNL     1      -2.414  -9.374  -0.422  0.00  0.00    -0.481 OA
ATOM     17  H   UNL     1      -4.353 -10.375  -3.410  0.00  0.00    +0.155 HD
ENDBRANCH   3   5
BRANCH   1  18
ATOM     18  C   UNL     1       0.469  -3.663  -1.461  0.00  0.00    +0.100 C 
BRANCH  18  19
ATOM     19  C   UNL     1       0.704  -3.196  -0.023  0.00  0.00    +0.042 C 
BRANCH  19  26
ATOM     20  C   UNL     1       0.033   1.344   0.005  0.00  0.00    +0.001 A 
ATOM     21  C   UNL     1       1.221   2.087  -0.001  0.00  0.00    +0.002 A 
ATOM     22  C   UNL     1       2.442   1.512  -0.013  0.00  0.00    +0.026 A 
ATOM     23  C   UNL     1       2.568   0.095  -0.021  0.00  0.00    +0.043 A 
ATOM     24  N   UNL     1       3.620  -0.687  -0.034  0.00  0.00    -0.380 N 
ATOM     25  C   UNL     1       3.166  -2.082  -0.037  0.00  0.00    +0.144 C 
ATOM     26  C   UNL     1       1.654  -2.026  -0.024  0.00  0.00    -0.041 C 
ATOM     27  C   UNL     1       1.328  -0.713  -0.015  0.00  0.00    -0.001 A 
ATOM     28  C   UNL     1       0.041  -0.009  -0.001  0.00  0.00    +0.010 A 
ATOM     29  H   UNL     1       4.544  -0.393  -0.040  0.00  0.00    +0.160 HD
ENDBRANCH  19  26
ENDBRANCH  18  19
ENDBRANCH   1  18
TORSDOF 4
