REMARK  Name = ZINC36666677
REMARK  2 active torsions:
REMARK  status: ('A' for Active; 'I' for Inactive)
REMARK    1  A    between atoms: C_5  and  C_8
REMARK    2  A    between atoms: C_8  and  C_9
REMARK                            x       y       z     vdW  Elec       q    Type
REMARK                         _______ _______ _______ _____ _____    ______ ____
ROOT
ATOM      1  C   UNL     1      -0.017   1.379   0.010  0.00  0.00    +0.031 A 
ATOM      2  C   UNL     1       1.172   2.087   0.002  0.00  0.00    +0.020 A 
ATOM      3  C   UNL     1       2.379   1.411  -0.013  0.00  0.00    +0.031 A 
ATOM      4  C   UNL     1       2.397   0.029  -0.020  0.00  0.00    +0.023 A 
ATOM      5  C   UNL     1       1.209  -0.679  -0.012  0.00  0.00    -0.015 A 
ATOM      6  C   UNL     1       0.002  -0.004   0.002  0.00  0.00    +0.023 A 
ATOM      7 BR   UNL     1      -1.623  -0.972   0.013  0.00  0.00    -0.050 Br
ATOM      8 BR   UNL     1       4.048  -0.895  -0.042  0.00  0.00    -0.050 Br
ATOM      9 BR   UNL     1       1.146   3.978   0.012  0.00  0.00    -0.050 Br
ENDROOT
BRANCH   5  10
ATOM     10  C   UNL     1       1.230  -2.186  -0.020  0.00  0.00    +0.081 C 
BRANCH  10  11
ATOM     11  C   UNL     1       1.251  -2.696   1.397  0.00  0.00    +0.015 A 
ATOM     12  C   UNL     1       0.221  -3.008   2.219  0.00  0.00    +0.124 A 
ATOM     13  N   UNL     1       0.526  -3.440   3.430  0.00  0.00    -0.233 NA
ATOM     14  C   UNL     1       1.780  -3.558   3.812  0.00  0.00    +0.156 A 
ATOM     15  S   UNL     1       2.643  -3.064   2.454  0.00  0.00    -0.057 S 
ATOM     16  N   UNL     1       2.271  -3.990   5.034  0.00  0.00    -0.338 N 
ATOM     17  H   UNL     1       1.658  -4.253   5.738  0.00  0.00    +0.144 HD
ATOM     18  H   UNL     1       3.229  -4.029   5.186  0.00  0.00    +0.144 HD
ENDBRANCH  10  11
ENDBRANCH   5  10
TORSDOF 2
