REMARK  Name = ZINC38571590
REMARK  10 active torsions:
REMARK  status: ('A' for Active; 'I' for Inactive)
REMARK    1  A    between atoms: C_1  and  C_2
REMARK    2  A    between atoms: C_4  and  C_36
REMARK    3  A    between atoms: C_8  and  S_12
REMARK    4  A    between atoms: S_12  and  C_13
REMARK    5  A    between atoms: C_13  and  C_14
REMARK    6  A    between atoms: C_14  and  C_16
REMARK    7  A    between atoms: C_14  and  S_25
REMARK    8  A    between atoms: C_16  and  C_18
REMARK    9  A    between atoms: S_25  and  C_26
REMARK   10  A    between atoms: C_29  and  N_32
REMARK                            x       y       z     vdW  Elec       q    Type
REMARK                         _______ _______ _______ _____ _____    ______ ____
ROOT
ATOM      1  C   UNL     1      -4.636  -5.258   6.263  0.00  0.00    +0.084 C 
ENDROOT
BRANCH   1   2
ATOM      2  C   UNL     1      -5.506  -5.788   5.122  0.00  0.00    +0.124 C 
ATOM      3 CL   UNL     1      -4.451  -6.416   3.802  0.00  0.00    -0.116 Cl
BRANCH   2   4
ATOM      4  C   UNL     1      -6.368  -4.672   4.588  0.00  0.00    -0.029 A 
ATOM      5  C   UNL     1      -5.874  -3.821   3.617  0.00  0.00    +0.005 A 
ATOM      6  C   UNL     1      -6.664  -2.798   3.127  0.00  0.00    +0.000 A 
ATOM      7  C   UNL     1      -7.949  -2.627   3.608  0.00  0.00    +0.000 A 
ATOM      8  C   UNL     1      -8.443  -3.478   4.578  0.00  0.00    +0.000 A 
ATOM      9  C   UNL     1      -7.654  -4.504   5.065  0.00  0.00    +0.005 A 
ENDBRANCH   2   4
ENDBRANCH   1   2
BRANCH   1  10
ATOM     10  C   UNL     1      -3.689  -4.183   5.725  0.00  0.00    +0.093 C 
BRANCH  10  11
ATOM     11  S   UNL     1      -2.667  -3.544   7.081  0.00  0.00    -0.087 S 
BRANCH  11  18
ATOM     12  C   UNL     1       1.454   2.664   5.734  0.00  0.00    +0.024 C 
ATOM     13  C   UNL     1       1.728   1.162   5.633  0.00  0.00    +0.076 C 
ATOM     14  C   UNL     1       0.790   0.505   4.647  0.00  0.00    -0.045 C 
ATOM     15  C   UNL     1      -0.042  -0.437   5.108  0.00  0.00    +0.071 C 
ATOM     16  C   UNL     1       0.021  -0.762   6.551  0.00  0.00    +0.112 C 
ATOM     17  N   UNL     1      -0.766  -1.672   7.064  0.00  0.00    -0.217 NA
ATOM     18  C   UNL     1      -1.645  -2.333   6.311  0.00  0.00    +0.182 C 
ATOM     19  N   UNL     1      -1.786  -2.124   5.013  0.00  0.00    -0.151 NA
ATOM     20  C   UNL     1      -1.059  -1.230   4.344  0.00  0.00    +0.272 C 
ATOM     21  O   UNL     1      -1.215  -1.063   3.146  0.00  0.00    -0.268 OA
ATOM     22  S   UNL     1       1.285   0.305   7.199  0.00  0.00    -0.098 S 
ATOM     23  C   UNL     1       0.792   0.897   3.192  0.00  0.00    +0.041 C 
ENDBRANCH  11  18
ENDBRANCH  10  11
ENDBRANCH   1  10
BRANCH   1  24
ATOM     24  S   UNL     1      -3.667  -6.620   6.967  0.00  0.00    -0.119 S 
BRANCH  24  25
ATOM     25  C   UNL     1      -4.860  -7.595   7.822  0.00  0.00    +0.008 A 
ATOM     26  C   UNL     1      -6.174  -7.154   7.926  0.00  0.00    +0.017 A 
ATOM     27  C   UNL     1      -7.106  -7.920   8.597  0.00  0.00    +0.034 A 
ATOM     28  C   UNL     1      -6.734  -9.124   9.166  0.00  0.00    +0.126 A 
ATOM     29  C   UNL     1      -5.427  -9.566   9.065  0.00  0.00    +0.034 A 
ATOM     30  C   UNL     1      -4.491  -8.808   8.390  0.00  0.00    +0.017 A 
BRANCH  28  31
ATOM     31  N   UNL     1      -7.736  -9.943   9.884  0.00  0.00    +0.056 N 
ATOM     32  O   UNL     1      -8.879  -9.558   9.973  0.00  0.00    -0.126 OA
ATOM     33  O   UNL     1      -7.412 -10.996  10.382  0.00  0.00    -0.126 OA
ENDBRANCH  28  31
ENDBRANCH  24  25
ENDBRANCH   1  24
TORSDOF 8
