REMARK  Name = ZINC01171958
REMARK  10 active torsions:
REMARK  status: ('A' for Active; 'I' for Inactive)
REMARK    1  A    between atoms: C_1  and  C_2
REMARK    2  A    between atoms: C_5  and  N_9
REMARK    3  A    between atoms: C_6  and  C_8
REMARK    4  A    between atoms: C_10  and  C_12
REMARK    5  A    between atoms: C_13  and  C_30
REMARK    6  A    between atoms: C_18  and  C_20
REMARK    7  A    between atoms: C_22  and  O_28
REMARK    8  A    between atoms: C_25  and  O_26
REMARK    9  A    between atoms: O_26  and  C_27
REMARK   10  A    between atoms: O_28  and  C_29
REMARK                            x       y       z     vdW  Elec       q    Type
REMARK                         _______ _______ _______ _____ _____    ______ ____
ROOT
ATOM      1  C   UNL     1      -2.653   3.677   6.756  0.00  0.00    +0.056 C 
ATOM      2  C   UNL     1      -1.915   3.739   7.884  0.00  0.00    +0.017 C 
ATOM      3  N   UNL     1      -2.398   4.343   9.010  0.00  0.00    -0.300 N 
ATOM      4  C   UNL     1      -3.613   4.899   9.091  0.00  0.00    +0.135 C 
ATOM      5  S   UNL     1      -4.098   5.618  10.567  0.00  0.00    -0.019 S 
ATOM      6  N   UNL     1      -4.467   4.912   8.049  0.00  0.00    -0.315 N 
ATOM      7  C   UNL     1      -4.039   4.289   6.784  0.00  0.00    +0.143 C 
ATOM      8  C   UNL     1      -0.534   3.136   7.901  0.00  0.00    +0.061 C 
ATOM      9  H   UNL     1      -1.830   4.367   9.796  0.00  0.00    +0.154 HD
ATOM     10  H   UNL     1      -5.343   5.321   8.129  0.00  0.00    +0.149 HD
ENDROOT
BRANCH   7  11
ATOM     11  C   UNL     1      -4.105   5.338   5.704  0.00  0.00    +0.022 A 
ATOM     12  C   UNL     1      -3.950   6.673   6.027  0.00  0.00    +0.055 A 
ATOM     13  C   UNL     1      -4.010   7.638   5.033  0.00  0.00    +0.121 A 
ATOM     14  C   UNL     1      -4.228   7.263   3.715  0.00  0.00    +0.049 A 
ATOM     15  C   UNL     1      -4.382   5.929   3.393  0.00  0.00    +0.049 A 
ATOM     16  C   UNL     1      -4.317   4.964   4.386  0.00  0.00    +0.126 A 
BRANCH  16  17
ATOM     17  O   UNL     1      -4.465   3.650   4.068  0.00  0.00    -0.495 OA
ATOM     18  C   UNL     1      -4.587   3.328   2.681  0.00  0.00    +0.277 C 
ENDBRANCH  16  17
BRANCH  13  19
ATOM     19  O   UNL     1      -3.857   8.951   5.350  0.00  0.00    -0.495 OA
ATOM     20  C   UNL     1      -3.932   9.891   4.277  0.00  0.00    +0.277 C 
ENDBRANCH  13  19
ENDBRANCH   7  11
BRANCH   1  22
ATOM     21  N   UNL     1      -1.278   3.710   4.796  0.00  0.00    -0.281 N 
ATOM     22  C   UNL     1      -2.152   3.055   5.586  0.00  0.00    +0.248 C 
ATOM     23  O   UNL     1      -2.509   1.928   5.295  0.00  0.00    -0.270 OA
ATOM     24  H   UNL     1      -0.920   4.567   5.076  0.00  0.00    +0.155 HD
BRANCH  21  29
ATOM     25  C   UNL     1       0.302   1.457  -0.164  0.00  0.00    +0.044 C 
ATOM     26  C   UNL     1      -0.118   2.055   1.154  0.00  0.00    -0.050 A 
ATOM     27  C   UNL     1      -0.499   1.230   2.197  0.00  0.00    +0.005 A 
ATOM     28  C   UNL     1      -0.885   1.776   3.405  0.00  0.00    +0.024 A 
ATOM     29  C   UNL     1      -0.888   3.155   3.574  0.00  0.00    +0.037 A 
ATOM     30  C   UNL     1      -0.504   3.980   2.525  0.00  0.00    -0.029 A 
ATOM     31  C   UNL     1      -0.115   3.428   1.320  0.00  0.00    +0.008 A 
ATOM     32  C   UNL     1      -0.507   5.477   2.703  0.00  0.00    +0.045 C 
ENDBRANCH  21  29
ENDBRANCH   1  22
TORSDOF 5
