REMARK  Name = ZINC08936722
REMARK  7 active torsions:
REMARK  status: ('A' for Active; 'I' for Inactive)
REMARK    1  A    between atoms: C_1  and  C_2
REMARK    2  A    between atoms: C_2  and  C_20
REMARK    3  A    between atoms: N_5  and  C_9
REMARK    4  A    between atoms: C_9  and  C_10
REMARK    5  A    between atoms: N_12  and  C_13
REMARK    6  A    between atoms: C_23  and  O_26
REMARK    7  A    between atoms: O_26  and  C_27
REMARK                            x       y       z     vdW  Elec       q    Type
REMARK                         _______ _______ _______ _____ _____    ______ ____
ROOT
ATOM      1  C   UNL     1      -2.390   7.636   1.185  0.00  0.00    +0.047 C 
ATOM      2  C   UNL     1      -1.119   7.118   1.860  0.00  0.00    +0.135 C 
ATOM      3  C   UNL     1       0.106   7.816   1.305  0.00  0.00    +0.251 C 
ATOM      4  O   UNL     1       0.501   7.800   0.159  0.00  0.00    -0.272 OA
ATOM      5  N   UNL     1       0.666   8.456   2.350  0.00  0.00    -0.215 N 
ATOM      6  C   UNL     1      -0.029   8.262   3.477  0.00  0.00    +0.310 C 
ATOM      7  O   UNL     1       0.280   8.739   4.552  0.00  0.00    -0.252 OA
ATOM      8  N   UNL     1      -1.107   7.481   3.288  0.00  0.00    -0.281 N 
ATOM      9  H   UNL     1      -1.751   7.208   3.961  0.00  0.00    +0.152 HD
ENDROOT
BRANCH   2  10
ATOM     10  C   UNL     1      -1.002   5.625   1.691  0.00  0.00    -0.015 A 
ATOM     11  C   UNL     1      -1.532   4.779   2.647  0.00  0.00    +0.010 A 
ATOM     12  C   UNL     1      -1.426   3.410   2.495  0.00  0.00    +0.046 A 
ATOM     13  C   UNL     1      -0.787   2.885   1.381  0.00  0.00    +0.127 A 
ATOM     14  C   UNL     1      -0.251   3.736   0.426  0.00  0.00    +0.046 A 
ATOM     15  C   UNL     1      -0.364   5.105   0.581  0.00  0.00    +0.010 A 
BRANCH  13  16
ATOM     16  O   UNL     1      -0.681   1.538   1.228  0.00  0.00    -0.434 OA
BRANCH  16  17
ATOM     17  C   UNL     1      -0.010   1.069   0.057  0.00  0.00    +0.541 C 
ATOM     18  F   UNL     1       1.302   1.553   0.046  0.00  0.00    -0.166 F 
ATOM     19  F   UNL     1      -0.685   1.524  -1.081  0.00  0.00    -0.166 F 
ENDBRANCH  16  17
ENDBRANCH  13  16
ENDBRANCH   2  10
BRANCH   5  20
ATOM     20  C   UNL     1       1.885   9.264   2.264  0.00  0.00    +0.214 C 
BRANCH  20  21
ATOM     21  C   UNL     1       3.086   8.391   2.519  0.00  0.00    +0.235 C 
ATOM     22  O   UNL     1       2.938   7.210   2.751  0.00  0.00    -0.274 OA
ATOM     23  N   UNL     1       4.324   8.922   2.490  0.00  0.00    -0.284 N 
ATOM     24  H   UNL     1       4.447   9.851   2.240  0.00  0.00    +0.155 HD
BRANCH  23  25
ATOM     25  C   UNL     1       5.432   8.134   2.822  0.00  0.00    +0.033 A 
ATOM     26  C   UNL     1       6.514   8.699   3.485  0.00  0.00    +0.024 A 
ATOM     27  C   UNL     1       7.603   7.917   3.816  0.00  0.00    +0.017 A 
ATOM     28  C   UNL     1       7.622   6.576   3.479  0.00  0.00    +0.018 A 
ATOM     29  C   UNL     1       6.548   6.012   2.814  0.00  0.00    +0.017 A 
ATOM     30  C   UNL     1       5.454   6.787   2.485  0.00  0.00    +0.024 A 
ATOM     31 BR   UNL     1       9.119   5.511   3.928  0.00  0.00    -0.050 Br
ENDBRANCH  23  25
ENDBRANCH  20  21
ENDBRANCH   5  20
TORSDOF 6
