REMARK  Name = ZINC20033570
REMARK  6 active torsions:
REMARK  status: ('A' for Active; 'I' for Inactive)
REMARK    1  A    between atoms: C_1  and  C_2
REMARK    2  A    between atoms: C_5  and  C_8
REMARK    3  A    between atoms: C_19  and  S_24
REMARK    4  A    between atoms: S_24  and  N_27
REMARK    5  A    between atoms: N_27  and  C_28
REMARK    6  A    between atoms: C_33  and  C_34
REMARK                            x       y       z     vdW  Elec       q    Type
REMARK                         _______ _______ _______ _____ _____    ______ ____
ROOT
ATOM      1  C   UNL     1       0.629   3.199   0.183  0.00  0.00    +0.105 C 
ATOM      2  C   UNL     1       0.155   1.837   0.658  0.00  0.00    +0.029 C 
ATOM      3  C   UNL     1       0.850   0.607   0.059  0.00  0.00    +0.033 C 
ATOM      4  C   UNL     1      -0.266  -0.438   0.121  0.00  0.00    -0.030 C 
ATOM      5  C   UNL     1      -1.450   0.161   0.096  0.00  0.00    -0.023 C 
ATOM      6  C   UNL     1      -1.238   1.627  -0.007  0.00  0.00    +0.049 C 
ATOM      7  C   UNL     1      -2.183   2.587   0.604  0.00  0.00    -0.018 A 
ATOM      8  C   UNL     1      -3.511   2.287   0.814  0.00  0.00    +0.034 A 
ATOM      9  C   UNL     1      -4.358   3.224   1.376  0.00  0.00    +0.109 A 
ATOM     10  C   UNL     1      -3.873   4.470   1.730  0.00  0.00    +0.030 A 
ATOM     11  C   UNL     1      -2.543   4.778   1.530  0.00  0.00    +0.025 A 
ATOM     12  C   UNL     1      -1.682   3.842   0.971  0.00  0.00    +0.031 A 
ATOM     13  N   UNL     1      -0.332   4.170   0.796  0.00  0.00    -0.336 N 
ATOM     14  H   UNL     1       0.018   5.162   1.117  0.00  0.00    +0.147 HD
ENDROOT
BRANCH   1  19
ATOM     15  C   UNL     1       0.478   3.462  -5.587  0.00  0.00    +0.044 C 
ATOM     16  C   UNL     1       0.518   3.394  -4.082  0.00  0.00    -0.050 A 
ATOM     17  C   UNL     1       1.626   2.871  -3.443  0.00  0.00    +0.004 A 
ATOM     18  C   UNL     1       1.662   2.808  -2.063  0.00  0.00    +0.006 A 
ATOM     19  C   UNL     1       0.590   3.268  -1.321  0.00  0.00    -0.027 A 
ATOM     20  C   UNL     1      -0.521   3.786  -1.961  0.00  0.00    +0.006 A 
ATOM     21  C   UNL     1      -0.554   3.854  -3.341  0.00  0.00    +0.004 A 
ENDBRANCH   1  19
BRANCH   9  22
ATOM     22  S   UNL     1      -6.055   2.832   1.641  0.00  0.00    +0.072 S 
ATOM     23  O   UNL     1      -6.136   1.416   1.728  0.00  0.00    -0.150 OA
ATOM     24  O   UNL     1      -6.512   3.686   2.681  0.00  0.00    -0.150 OA
BRANCH  22  25
ATOM     25  N   UNL     1      -6.878   3.270   0.273  0.00  0.00    -0.216 N 
ATOM     26  H   UNL     1      -7.684   4.016   0.331  0.00  0.00    +0.174 HD
BRANCH  25  27
ATOM     27  C   UNL     1      -6.549   2.692  -0.955  0.00  0.00    +0.052 A 
ATOM     28  C   UNL     1      -6.155   1.361  -1.015  0.00  0.00    +0.025 A 
ATOM     29  C   UNL     1      -5.836   0.790  -2.231  0.00  0.00    +0.003 A 
ATOM     30  C   UNL     1      -5.897   1.544  -3.388  0.00  0.00    +0.020 A 
ATOM     31  C   UNL     1      -6.283   2.872  -3.332  0.00  0.00    +0.046 A 
ATOM     32  C   UNL     1      -6.609   3.448  -2.119  0.00  0.00    -0.010 A 
ATOM     33  C   UNL     1      -7.030   4.893  -2.058  0.00  0.00    +0.047 C 
ATOM     34 CL   UNL     1      -6.358   3.815  -4.788  0.00  0.00    -0.083 Cl
ENDBRANCH  25  27
ENDBRANCH  22  25
ENDBRANCH   9  22
TORSDOF 4
