REMARK  Name = ZINC65490065
REMARK  5 active torsions:
REMARK  status: ('A' for Active; 'I' for Inactive)
REMARK    1  A    between atoms: C_1  and  C_2
REMARK    2  A    between atoms: C_9  and  C_11
REMARK    3  A    between atoms: C_14  and  C_17
REMARK    4  A    between atoms: C_17  and  C_19
REMARK    5  A    between atoms: C_17  and  N_20
REMARK                            x       y       z     vdW  Elec       q    Type
REMARK                         _______ _______ _______ _____ _____    ______ ____
ROOT
ATOM      1  C   UNL     1      -2.859   1.539   0.069  0.00  0.00    -0.011 A 
ATOM      2  C   UNL     1      -2.962   0.244   0.575  0.00  0.00    +0.009 A 
ATOM      3  C   UNL     1      -3.680   0.012   1.730  0.00  0.00    +0.002 A 
ATOM      4  C   UNL     1      -4.299   1.061   2.385  0.00  0.00    -0.061 A 
ATOM      5  C   UNL     1      -4.201   2.348   1.889  0.00  0.00    +0.002 A 
ATOM      6  C   UNL     1      -3.480   2.594   0.738  0.00  0.00    +0.009 A 
ENDROOT
BRANCH   1  15
ATOM      7  C   UNL     1      -0.013   1.086   0.008  0.00  0.00    +0.064 C 
ATOM      8  C   UNL     1      -0.742   1.585  -1.213  0.00  0.00    +0.030 A 
ATOM      9  N   UNL     1      -0.060   1.825  -2.371  0.00  0.00    -0.311 N 
ATOM     10  C   UNL     1      -0.687   2.269  -3.473  0.00  0.00    +0.327 A 
ATOM     11  O   UNL     1      -0.038   2.469  -4.482  0.00  0.00    -0.247 OA
ATOM     12  N   UNL     1      -2.011   2.499  -3.490  0.00  0.00    -0.275 N 
ATOM     13  C   UNL     1      -2.755   2.287  -2.384  0.00  0.00    +0.262 A 
ATOM     14  O   UNL     1      -3.954   2.493  -2.393  0.00  0.00    -0.267 OA
ATOM     15  C   UNL     1      -2.088   1.796  -1.171  0.00  0.00    +0.065 A 
ATOM     16  H   UNL     1       0.898   1.671  -2.399  0.00  0.00    +0.170 HD
ATOM     17  H   UNL     1      -2.434   2.820  -4.302  0.00  0.00    +0.173 HD
ENDBRANCH   1  15
BRANCH   4  18
ATOM     18  C   UNL     1      -5.083   0.801   3.646  0.00  0.00    -0.041 C 
ATOM     19  C   UNL     1      -4.229   1.165   4.862  0.00  0.00    -0.008 C 
BRANCH  18  20
ATOM     20  N   UNL     1      -6.303   1.619   3.641  0.00  0.00    +0.384 N 
ATOM     21  C   UNL     1      -7.185   1.217   2.515  0.00  0.00    -0.078 C 
ATOM     22  C   UNL     1      -8.581   1.719   2.962  0.00  0.00    -0.020 C 
ATOM     23  C   UNL     1      -8.573   1.450   4.484  0.00  0.00    -0.020 C 
ATOM     24  C   UNL     1      -7.085   1.375   4.872  0.00  0.00    -0.078 C 
ATOM     25  H   UNL     1      -6.066   2.597   3.567  0.00  0.00    -0.081 HD
ENDBRANCH  18  20
ENDBRANCH   4  18
TORSDOF 3
