REMARK  Name = ZINC58915315
REMARK  12 active torsions:
REMARK  status: ('A' for Active; 'I' for Inactive)
REMARK    1  A    between atoms: C_1  and  C_2
REMARK    2  A    between atoms: C_5  and  N_9
REMARK    3  A    between atoms: C_7  and  C_8
REMARK    4  A    between atoms: C_10  and  C_36
REMARK    5  A    between atoms: C_12  and  C_15
REMARK    6  A    between atoms: C_13  and  C_14
REMARK    7  A    between atoms: N_16  and  N_17
REMARK    8  A    between atoms: C_18  and  C_20
REMARK    9  A    between atoms: C_20  and  N_21
REMARK   10  A    between atoms: N_21  and  C_22
REMARK   11  A    between atoms: N_21  and  S_32
REMARK   12  A    between atoms: S_32  and  C_35
REMARK                            x       y       z     vdW  Elec       q    Type
REMARK                         _______ _______ _______ _____ _____    ______ ____
ROOT
ATOM      1  N   UNL     1       3.558  -8.682  -1.400  0.00  0.00    -0.206 N 
ATOM      2  C   UNL     1       4.735  -8.409  -1.998  0.00  0.00    +0.251 C 
ATOM      3  O   UNL     1       5.128  -7.263  -2.067  0.00  0.00    -0.272 OA
ATOM      4  H   UNL     1       3.244  -9.598  -1.344  0.00  0.00    +0.177 HD
ENDROOT
BRANCH   1   6
ATOM      5  C   UNL     1       1.657  -7.907  -0.282  0.00  0.00    +0.140 C 
ATOM      6  N   UNL     1       2.790  -7.643  -0.858  0.00  0.00    -0.188 NA
BRANCH   5  10
ATOM      7  N   UNL     1       0.147  -4.814   0.913  0.00  0.00    -0.317 N 
ATOM      8  C   UNL     1      -0.815  -5.694   1.321  0.00  0.00    +0.022 A 
ATOM      9  C   UNL     1      -0.445  -6.939   0.968  0.00  0.00    +0.032 A 
ATOM     10  C   UNL     1       0.848  -6.814   0.288  0.00  0.00    +0.016 A 
ATOM     11  C   UNL     1       1.152  -5.482   0.284  0.00  0.00    +0.030 A 
ATOM     12  C   UNL     1       2.388  -4.860  -0.313  0.00  0.00    +0.064 C 
ATOM     13  C   UNL     1      -2.083  -5.330   2.049  0.00  0.00    +0.064 C 
BRANCH   7  18
ATOM     14  C   UNL     1      -0.033   0.802   1.707  0.00  0.00    +0.044 C 
ATOM     15  C   UNL     1       0.015  -0.689   1.496  0.00  0.00    -0.047 A 
ATOM     16  C   UNL     1      -0.034  -1.207   0.215  0.00  0.00    +0.005 A 
ATOM     17  C   UNL     1       0.010  -2.573   0.018  0.00  0.00    +0.026 A 
ATOM     18  C   UNL     1       0.103  -3.428   1.109  0.00  0.00    +0.047 A 
ATOM     19  C   UNL     1       0.152  -2.905   2.394  0.00  0.00    +0.029 A 
ATOM     20  C   UNL     1       0.113  -1.537   2.584  0.00  0.00    -0.046 A 
ATOM     21  C   UNL     1       0.172  -0.969   3.979  0.00  0.00    +0.044 C 
ENDBRANCH   7  18
ENDBRANCH   5  10
ENDBRANCH   1   6
BRANCH   2  22
ATOM     22  C   UNL     1       5.561  -9.526  -2.581  0.00  0.00    +0.228 C 
BRANCH  22  23
ATOM     23  N   UNL     1       6.732  -8.964  -3.259  0.00  0.00    -0.198 N 
BRANCH  23  24
ATOM     24  C   UNL     1       7.891  -8.689  -2.537  0.00  0.00    +0.059 A 
ATOM     25  C   UNL     1       8.032  -7.485  -1.881  0.00  0.00    +0.025 A 
ATOM     26  C   UNL     1       9.185  -7.201  -1.156  0.00  0.00    +0.002 A 
ATOM     27  C   UNL     1      10.204  -8.100  -1.074  0.00  0.00    +0.008 A 
ATOM     28  C   UNL     1      10.100  -9.340  -1.728  0.00  0.00    -0.016 A 
ATOM     29  C   UNL     1       8.928  -9.643  -2.465  0.00  0.00    +0.005 A 
ATOM     30  C   UNL     1       8.824 -10.884  -3.113  0.00  0.00    +0.010 A 
ATOM     31  C   UNL     1       9.845 -11.780  -3.022  0.00  0.00    +0.001 A 
ATOM     32  C   UNL     1      10.995 -11.485  -2.293  0.00  0.00    +0.001 A 
ATOM     33  C   UNL     1      11.136 -10.287  -1.661  0.00  0.00    +0.008 A 
ENDBRANCH  23  24
BRANCH  23  34
ATOM     34  S   UNL     1       6.678  -8.657  -4.886  0.00  0.00    +0.043 S 
ATOM     35  O   UNL     1       8.017  -8.825  -5.331  0.00  0.00    -0.155 OA
ATOM     36  O   UNL     1       5.640  -9.493  -5.378  0.00  0.00    -0.155 OA
ATOM     37  C   UNL     1       6.191  -6.914  -5.014  0.00  0.00    +0.218 C 
ENDBRANCH  23  34
ENDBRANCH  22  23
ENDBRANCH   2  22
TORSDOF 7
