REMARK  Name = ZINC17133740
REMARK  14 active torsions:
REMARK  status: ('A' for Active; 'I' for Inactive)
REMARK    1  A    between atoms: C_1  and  C_2
REMARK    2  A    between atoms: C_3  and  C_32
REMARK    3  A    between atoms: C_5  and  N_25
REMARK    4  A    between atoms: C_6  and  C_7
REMARK    5  A    between atoms: C_7  and  O_9
REMARK    6  A    between atoms: O_9  and  C_10
REMARK    7  A    between atoms: C_10  and  C_12
REMARK    8  A    between atoms: C_10  and  C_13
REMARK    9  A    between atoms: N_15  and  C_16
REMARK   10  A    between atoms: C_21  and  N_22
REMARK   11  A    between atoms: C_26  and  C_28
REMARK   12  A    between atoms: C_28  and  C_29
REMARK   13  A    between atoms: C_28  and  C_30
REMARK   14  A    between atoms: C_28  and  C_31
REMARK                            x       y       z     vdW  Elec       q    Type
REMARK                         _______ _______ _______ _____ _____    ______ ____
ROOT
ATOM      1  C   UNL     1      -2.931   1.567   0.017  0.00  0.00    +0.343 C 
ATOM      2  O   UNL     1      -3.428   0.477  -0.191  0.00  0.00    -0.245 OA
ENDROOT
BRANCH   1   8
ATOM      3  C   UNL     1       0.028   1.092  -0.062  0.00  0.00    +0.045 C 
ATOM      4  C   UNL     1      -0.677   1.556   1.186  0.00  0.00    -0.025 A 
ATOM      5  C   UNL     1      -0.004   1.785   2.328  0.00  0.00    -0.008 A 
ATOM      6  S   UNL     1      -1.278   2.299   3.460  0.00  0.00    -0.078 S 
ATOM      7  C   UNL     1      -2.653   2.202   2.412  0.00  0.00    +0.086 A 
ATOM      8  C   UNL     1      -2.103   1.780   1.206  0.00  0.00    +0.091 A 
ATOM      9  C   UNL     1       1.474   1.640   2.586  0.00  0.00    +0.052 C 
BRANCH   7  10
ATOM     10  N   UNL     1      -3.979   2.482   2.703  0.00  0.00    -0.279 N 
ATOM     11  C   UNL     1      -4.326   2.889   3.940  0.00  0.00    +0.223 C 
ATOM     12  O   UNL     1      -3.478   3.010   4.799  0.00  0.00    -0.275 OA
ATOM     13  H   UNL     1      -4.657   2.385   2.017  0.00  0.00    +0.155 HD
BRANCH  11  14
ATOM     14  C   UNL     1      -5.767   3.193   4.257  0.00  0.00    +0.039 C 
ATOM     15  C   UNL     1      -5.887   3.631   5.718  0.00  0.00    +0.020 C 
ATOM     16  C   UNL     1      -6.263   4.318   3.345  0.00  0.00    +0.020 C 
ATOM     17  C   UNL     1      -6.615   1.940   4.028  0.00  0.00    +0.020 C 
ENDBRANCH  11  14
ENDBRANCH   7  10
ENDBRANCH   1   8
BRANCH   1  18
ATOM     18  O   UNL     1      -3.143   2.581  -0.847  0.00  0.00    -0.449 OA
BRANCH  18  19
ATOM     19  C   UNL     1      -3.974   2.299  -2.004  0.00  0.00    +0.259 C 
ATOM     20  C   UNL     1      -3.094   1.808  -3.156  0.00  0.00    +0.062 C 
BRANCH  19  21
ATOM     21  C   UNL     1      -4.696   3.554  -2.422  0.00  0.00    +0.258 C 
ATOM     22  O   UNL     1      -4.459   4.604  -1.864  0.00  0.00    -0.271 OA
ATOM     23  N   UNL     1      -5.604   3.509  -3.417  0.00  0.00    -0.281 N 
ATOM     24  H   UNL     1      -5.748   2.683  -3.906  0.00  0.00    +0.155 HD
BRANCH  23  25
ATOM     25  C   UNL     1      -6.341   4.652  -3.743  0.00  0.00    +0.064 A 
ATOM     26  C   UNL     1      -5.753   5.907  -3.658  0.00  0.00    +0.025 A 
ATOM     27  C   UNL     1      -6.482   7.034  -3.985  0.00  0.00    +0.002 A 
ATOM     28  C   UNL     1      -7.799   6.914  -4.387  0.00  0.00    +0.002 A 
ATOM     29  C   UNL     1      -8.390   5.666  -4.469  0.00  0.00    +0.034 A 
ATOM     30  C   UNL     1      -7.665   4.535  -4.148  0.00  0.00    +0.147 A 
BRANCH  30  31
ATOM     31  N   UNL     1      -8.298   3.200  -4.234  0.00  0.00    +0.058 N 
ATOM     32  O   UNL     1      -9.424   3.088  -4.683  0.00  0.00    -0.126 OA
ATOM     33  O   UNL     1      -7.692   2.213  -3.856  0.00  0.00    -0.126 OA
ENDBRANCH  30  31
ENDBRANCH  23  25
ENDBRANCH  19  21
ENDBRANCH  18  19
ENDBRANCH   1  18
TORSDOF 8
