REMARK  Name = ZINC04115124
REMARK  10 active torsions:
REMARK  status: ('A' for Active; 'I' for Inactive)
REMARK    1  A    between atoms: C_1  and  C_2
REMARK    2  A    between atoms: C_2  and  C_3
REMARK    3  A    between atoms: C_2  and  C_4
REMARK    4  A    between atoms: C_7  and  C_10
REMARK    5  A    between atoms: C_18  and  C_26
REMARK    6  A    between atoms: C_20  and  C_21
REMARK    7  A    between atoms: C_20  and  C_23
REMARK    8  A    between atoms: C_28  and  C_29
REMARK    9  A    between atoms: C_28  and  C_30
REMARK   10  A    between atoms: C_28  and  N_56
REMARK                            x       y       z     vdW  Elec       q    Type
REMARK                         _______ _______ _______ _____ _____    ______ ____
ROOT
ATOM      1  C   UNL     1      -2.553   3.869   0.047  0.00  0.00    +0.064 C 
ATOM      2  C   UNL     1      -3.310   3.593  -1.254  0.00  0.00    +0.010 C 
ATOM      3  C   UNL     1      -2.449   3.846  -2.471  0.00  0.00    -0.070 C 
ATOM      4  C   UNL     1      -4.130   5.242  -3.491  0.00  0.00    -0.051 C 
ATOM      5  C   UNL     1      -4.984   5.131  -2.252  0.00  0.00    -0.044 C 
ATOM      6  C   UNL     1      -4.580   4.394  -1.233  0.00  0.00    -0.051 C 
ATOM      7  C   UNL     1      -5.371   4.378   0.023  0.00  0.00    +0.163 C 
ATOM      8  C   UNL     1      -4.797   3.913   1.162  0.00  0.00    +0.065 C 
ATOM      9  C   UNL     1      -3.397   3.381   1.225  0.00  0.00    +0.188 C 
ATOM     10  N   UNL     1      -5.536   3.929   2.312  0.00  0.00    -0.304 NA
ATOM     11  H   UNL     1      -6.445   4.267   2.300  0.00  0.00    +0.186 HD
ATOM     12  N   UNL     1      -2.718   5.171  -3.054  0.00  0.00    +0.384 N 
ATOM     13  H   UNL     1      -2.550   5.891  -2.342  0.00  0.00    -0.081 HD
ENDROOT
BRANCH   1  17
ATOM     14  C   UNL     1       1.175   1.783   0.000  0.00  0.00    -0.045 A 
ATOM     15  C   UNL     1       0.020   1.143  -0.408  0.00  0.00    +0.004 A 
ATOM     16  C   UNL     1      -1.186   1.819  -0.398  0.00  0.00    +0.004 A 
ATOM     17  C   UNL     1      -1.238   3.133   0.030  0.00  0.00    -0.041 A 
ATOM     18  C   UNL     1      -0.082   3.773   0.438  0.00  0.00    +0.004 A 
ATOM     19  C   UNL     1       1.124   3.098   0.423  0.00  0.00    +0.004 A 
BRANCH  14  21
ATOM     20  C   UNL     1       3.468   1.772  -0.943  0.00  0.00    +0.012 C 
ATOM     21  C   UNL     1       2.490   1.047  -0.016  0.00  0.00    +0.013 C 
ATOM     22  C   UNL     1       3.067   1.002   1.400  0.00  0.00    +0.012 C 
ENDBRANCH  14  21
ENDBRANCH   1  17
BRANCH  12  23
ATOM     23  C   UNL     1      -1.818   5.412  -4.203  0.00  0.00    -0.074 C 
ATOM     24  C   UNL     1      -2.130   6.785  -4.803  0.00  0.00    -0.014 C 
ATOM     25  C   UNL     1      -0.368   5.386  -3.716  0.00  0.00    -0.014 C 
ENDBRANCH  12  23
BRANCH   9  26
ATOM     26  C   UNL     1      -3.441   1.910   1.208  0.00  0.00    +0.091 C 
ATOM     27  N   UNL     1      -3.474   0.775   1.196  0.00  0.00    -0.195 NA
ENDBRANCH   9  26
BRANCH   9  28
ATOM     28  C   UNL     1      -2.771   3.827   2.481  0.00  0.00    +0.091 C 
ATOM     29  N   UNL     1      -2.288   4.171   3.450  0.00  0.00    -0.195 NA
ENDBRANCH   9  28
BRANCH   7  30
ATOM     30  C   UNL     1      -6.723   4.849   0.034  0.00  0.00    +0.076 C 
ATOM     31  N   UNL     1      -7.796   5.222   0.042  0.00  0.00    -0.196 NA
ENDBRANCH   7  30
TORSDOF 6
