REMARK  Name = ZINC21225573
REMARK  8 active torsions:
REMARK  status: ('A' for Active; 'I' for Inactive)
REMARK    1  A    between atoms: C_1  and  C_2
REMARK    2  A    between atoms: C_2  and  C_3
REMARK    3  A    between atoms: C_2  and  O_4
REMARK    4  A    between atoms: O_4  and  C_5
REMARK    5  A    between atoms: C_8  and  C_13
REMARK    6  A    between atoms: C_10  and  O_11
REMARK    7  A    between atoms: O_11  and  C_12
REMARK    8  A    between atoms: C_18  and  C_23
REMARK                            x       y       z     vdW  Elec       q    Type
REMARK                         _______ _______ _______ _____ _____    ______ ____
ROOT
ATOM      1  C   UNL     1      -1.728   2.230  -0.765  0.00  0.00    +0.136 C 
ATOM      2  C   UNL     1      -0.733   3.364  -0.757  0.00  0.00    +0.036 C 
ATOM      3  C   UNL     1       0.409   3.407  -0.047  0.00  0.00    +0.017 C 
ATOM      4  C   UNL     1       1.317   4.622  -0.119  0.00  0.00    +0.059 C 
ATOM      5  C   UNL     1       1.240   5.247  -1.511  0.00  0.00    +0.033 C 
ATOM      6  C   UNL     1      -0.217   5.654  -1.761  0.00  0.00    +0.088 C 
ATOM      7  C   UNL     1      -1.087   4.444  -1.599  0.00  0.00    +0.163 C 
ATOM      8  O   UNL     1      -2.134   4.390  -2.213  0.00  0.00    -0.292 OA
ATOM      9  N   UNL     1       0.836   2.420   0.780  0.00  0.00    -0.316 N 
ATOM     10  C   UNL     1       0.849   1.067   0.465  0.00  0.00    +0.052 A 
ATOM     11  C   UNL     1       2.022   0.337   0.383  0.00  0.00    +0.025 A 
ATOM     12  C   UNL     1       1.959  -1.027   0.158  0.00  0.00    +0.002 A 
ATOM     13  C   UNL     1       0.736  -1.655   0.014  0.00  0.00    +0.002 A 
ATOM     14  C   UNL     1      -0.438  -0.924   0.076  0.00  0.00    +0.025 A 
ATOM     15  C   UNL     1      -0.377   0.443   0.285  0.00  0.00    +0.049 A 
ATOM     16  N   UNL     1      -1.523   1.238   0.269  0.00  0.00    -0.331 N 
ATOM     17  H   UNL     1       1.209   2.667   1.785  0.00  0.00    +0.152 HD
ATOM     18  H   UNL     1      -2.277   1.102   1.058  0.00  0.00    +0.147 HD
ENDROOT
BRANCH   5  19
ATOM     19  C   UNL     1       2.128   6.463  -1.575  0.00  0.00    -0.025 A 
ATOM     20  C   UNL     1       1.904   7.529  -0.723  0.00  0.00    +0.005 A 
ATOM     21  C   UNL     1       2.718   8.643  -0.781  0.00  0.00    +0.000 A 
ATOM     22  C   UNL     1       3.759   8.694  -1.690  0.00  0.00    +0.001 A 
ATOM     23  C   UNL     1       3.984   7.630  -2.542  0.00  0.00    +0.020 A 
ATOM     24  C   UNL     1       3.172   6.511  -2.481  0.00  0.00    +0.044 A 
ATOM     25 CL   UNL     1       3.460   5.170  -3.546  0.00  0.00    -0.083 Cl
ENDBRANCH   5  19
BRANCH   1  29
ATOM     26  C   UNL     1      -1.516   0.274  -4.562  0.00  0.00    +0.162 A 
ATOM     27  C   UNL     1      -0.422   0.262  -3.712  0.00  0.00    +0.050 A 
ATOM     28  C   UNL     1      -0.494   0.895  -2.485  0.00  0.00    +0.009 A 
ATOM     29  C   UNL     1      -1.656   1.541  -2.103  0.00  0.00    -0.019 A 
ATOM     30  C   UNL     1      -2.752   1.552  -2.945  0.00  0.00    +0.055 A 
ATOM     31  C   UNL     1      -2.686   0.923  -4.178  0.00  0.00    +0.162 A 
BRANCH  31  32
ATOM     32  O   UNL     1      -3.762   0.937  -5.009  0.00  0.00    -0.491 OA
ATOM     33  C   UNL     1      -4.928   1.622  -4.549  0.00  0.00    +0.277 C 
ENDBRANCH  31  32
BRANCH  26  34
ATOM     34  O   UNL     1      -1.448  -0.349  -5.769  0.00  0.00    -0.486 OA
BRANCH  34  36
ATOM     35  C   UNL     1      -0.034  -2.299  -5.567  0.00  0.00    +0.051 C 
ATOM     36  C   UNL     1      -0.181  -0.891  -6.148  0.00  0.00    +0.167 C 
ATOM     37  C   UNL     1      -0.091  -0.958  -7.674  0.00  0.00    +0.051 C 
ENDBRANCH  34  36
ENDBRANCH  26  34
ENDBRANCH   1  29
TORSDOF 5
