REMARK  Name = ZINC39572408
REMARK  11 active torsions:
REMARK  status: ('A' for Active; 'I' for Inactive)
REMARK    1  A    between atoms: C_1  and  C_2
REMARK    2  A    between atoms: C_2  and  N_3
REMARK    3  A    between atoms: C_4  and  C_24
REMARK    4  A    between atoms: C_8  and  S_10
REMARK    5  A    between atoms: S_10  and  C_11
REMARK    6  A    between atoms: C_11  and  C_12
REMARK    7  A    between atoms: C_24  and  O_25
REMARK    8  A    between atoms: O_25  and  C_26
REMARK    9  A    between atoms: C_31  and  C_32
REMARK   10  A    between atoms: C_32  and  C_33
REMARK   11  A    between atoms: C_32  and  C_34
REMARK                            x       y       z     vdW  Elec       q    Type
REMARK                         _______ _______ _______ _____ _____    ______ ____
ROOT
ATOM      1  N   UNL     1       0.690  -0.478  -1.207  0.00  0.00    -0.259 NA
ATOM      2  C   UNL     1       0.897  -1.944  -1.159  0.00  0.00    +0.178 C 
ATOM      3  N   UNL     1      -0.227  -2.497  -1.959  0.00  0.00    -0.234 NA
ATOM      4  N   UNL     1      -0.368  -1.524  -3.053  0.00  0.00    -0.229 NA
ATOM      5  C   UNL     1      -0.118  -0.211  -2.415  0.00  0.00    +0.200 C 
ATOM      6  H   UNL     1      -1.072  -2.547  -1.409  0.00  0.00    +0.142 HD
ATOM      7  H   UNL     1      -1.293  -1.561  -3.454  0.00  0.00    +0.143 HD
ENDROOT
BRANCH   1   9
ATOM      8  C   UNL     1      -0.019   1.526   0.010  0.00  0.00    +0.020 C 
ATOM      9  C   UNL     1       0.002  -0.004   0.002  0.00  0.00    +0.085 C 
ENDBRANCH   1   9
BRANCH   5  10
ATOM     10  S   UNL     1       0.797   0.868  -3.549  0.00  0.00    -0.117 S 
BRANCH  10  11
ATOM     11  C   UNL     1       2.299  -0.073  -3.935  0.00  0.00    +0.146 C 
BRANCH  11  12
ATOM     12  C   UNL     1       3.160   0.721  -4.882  0.00  0.00    +0.120 A 
ATOM     13  N   UNL     1       4.335   0.177  -5.295  0.00  0.00    -0.310 N 
ATOM     14  H   UNL     1       4.596  -0.701  -4.978  0.00  0.00    +0.170 HD
ATOM     15  C   UNL     1       5.144   0.850  -6.146  0.00  0.00    +0.259 A 
ATOM     16  O   UNL     1       6.199   0.375  -6.525  0.00  0.00    -0.267 OA
ATOM     17  C   UNL     1       4.700   2.178  -6.596  0.00  0.00    +0.065 A 
ATOM     18  C   UNL     1       5.459   2.952  -7.471  0.00  0.00    +0.015 A 
ATOM     19  C   UNL     1       4.995   4.190  -7.859  0.00  0.00    +0.001 A 
ATOM     20  C   UNL     1       3.780   4.669  -7.386  0.00  0.00    +0.002 A 
ATOM     21  C   UNL     1       3.015   3.920  -6.521  0.00  0.00    +0.028 A 
ATOM     22  C   UNL     1       3.464   2.662  -6.113  0.00  0.00    +0.078 A 
ATOM     23  N   UNL     1       2.740   1.888  -5.266  0.00  0.00    -0.233 NA
ENDBRANCH  11  12
ENDBRANCH  10  11
ENDBRANCH   5  10
BRANCH   2  24
ATOM     24  C   UNL     1       0.830  -2.448   0.284  0.00  0.00    +0.265 C 
BRANCH  24  25
ATOM     25  O   UNL     1      -0.452  -2.142   0.836  0.00  0.00    -0.489 OA
BRANCH  25  26
ATOM     26  C   UNL     1      -0.677  -2.524   2.121  0.00  0.00    +0.124 A 
ATOM     27  C   UNL     1       0.318  -3.175   2.837  0.00  0.00    +0.046 A 
ATOM     28  C   UNL     1       0.086  -3.563   4.142  0.00  0.00    +0.004 A 
ATOM     29  C   UNL     1      -1.135  -3.302   4.736  0.00  0.00    +0.001 A 
ATOM     30  C   UNL     1      -2.128  -2.654   4.025  0.00  0.00    +0.007 A 
ATOM     31  C   UNL     1      -1.899  -2.259   2.720  0.00  0.00    -0.003 A 
BRANCH  31  32
ATOM     32  C   UNL     1      -2.979  -1.547   1.948  0.00  0.00    +0.016 C 
ATOM     33  C   UNL     1      -4.217  -2.443   1.857  0.00  0.00    +0.012 C 
ATOM     34  C   UNL     1      -3.344  -0.245   2.664  0.00  0.00    +0.012 C 
ENDBRANCH  31  32
ENDBRANCH  25  26
ENDBRANCH  24  25
ENDBRANCH   2  24
TORSDOF 8
