REMARK  Name = ZINC09293352
REMARK  7 active torsions:
REMARK  status: ('A' for Active; 'I' for Inactive)
REMARK    1  A    between atoms: C_1  and  C_2
REMARK    2  A    between atoms: C_2  and  O_3
REMARK    3  A    between atoms: O_3  and  C_4
REMARK    4  A    between atoms: C_7  and  C_12
REMARK    5  A    between atoms: C_9  and  O_10
REMARK    6  A    between atoms: O_10  and  C_11
REMARK    7  A    between atoms: C_30  and  C_32
REMARK                            x       y       z     vdW  Elec       q    Type
REMARK                         _______ _______ _______ _____ _____    ______ ____
ROOT
ATOM      1  C   UNL     1       0.736  -5.828   1.492  0.00  0.00    +0.234 C 
ATOM      2  C   UNL     1      -0.500  -6.303   2.197  0.00  0.00    +0.027 C 
ATOM      3  C   UNL     1      -1.603  -6.644   1.499  0.00  0.00    +0.083 C 
ATOM      4  C   UNL     1      -1.534  -6.539   0.019  0.00  0.00    +0.044 A 
ATOM      5  C   UNL     1      -2.682  -6.547  -0.762  0.00  0.00    +0.033 A 
ATOM      6  C   UNL     1      -2.572  -6.445  -2.137  0.00  0.00    +0.042 A 
ATOM      7  C   UNL     1      -1.325  -6.336  -2.730  0.00  0.00    +0.023 A 
ATOM      8  C   UNL     1      -0.178  -6.328  -1.958  0.00  0.00    +0.048 A 
ATOM      9  C   UNL     1      -0.274  -6.430  -0.581  0.00  0.00    +0.131 A 
ATOM     10  O   UNL     1       0.832  -6.431   0.200  0.00  0.00    -0.479 OA
ATOM     11 CL   UNL     1      -4.001  -6.455  -3.122  0.00  0.00    -0.084 Cl
ATOM     12  N   UNL     1      -2.732  -7.068   2.118  0.00  0.00    -0.213 NA
ATOM     13  C   UNL     1      -2.860  -7.194   3.418  0.00  0.00    +0.237 C 
ATOM     14  N   UNL     1      -3.894  -7.599   4.188  0.00  0.00    -0.205 NA
ATOM     15  C   UNL     1      -3.562  -7.568   5.449  0.00  0.00    +0.203 C 
ATOM     16  N   UNL     1      -2.276  -7.134   5.569  0.00  0.00    -0.251 N 
ATOM     17  N   UNL     1      -1.818  -6.891   4.272  0.00  0.00    -0.208 N 
ATOM     18  C   UNL     1      -0.550  -6.415   3.705  0.00  0.00    +0.160 C 
ATOM     19  H   UNL     1      -1.777  -7.018   6.393  0.00  0.00    +0.171 HD
ENDROOT
BRANCH   1  23
ATOM     20  C   UNL     1       0.576  -1.576   1.062  0.00  0.00    +0.162 A 
ATOM     21  C   UNL     1       1.452  -2.151   1.969  0.00  0.00    +0.050 A 
ATOM     22  C   UNL     1       1.502  -3.526   2.106  0.00  0.00    +0.011 A 
ATOM     23  C   UNL     1       0.678  -4.330   1.339  0.00  0.00    +0.001 A 
ATOM     24  C   UNL     1      -0.198  -3.763   0.433  0.00  0.00    +0.057 A 
ATOM     25  C   UNL     1      -0.257  -2.385   0.295  0.00  0.00    +0.162 A 
BRANCH  25  26
ATOM     26  O   UNL     1      -1.122  -1.825  -0.592  0.00  0.00    -0.491 OA
ATOM     27  C   UNL     1      -2.013  -2.709  -1.275  0.00  0.00    +0.277 C 
ENDBRANCH  25  26
BRANCH  20  28
ATOM     28  O   UNL     1       0.526  -0.224   0.927  0.00  0.00    -0.489 OA
BRANCH  28  30
ATOM     29  C   UNL     1       1.212   2.032   1.456  0.00  0.00    +0.048 C 
ATOM     30  C   UNL     1       1.410   0.543   1.747  0.00  0.00    +0.226 C 
ENDBRANCH  28  30
ENDBRANCH  20  28
ENDBRANCH   1  23
BRANCH  18  31
ATOM     31  C   UNL     1      -0.254  -5.058   4.288  0.00  0.00    -0.003 A 
ATOM     32  C   UNL     1       0.962  -4.809   4.906  0.00  0.00    +0.009 A 
ATOM     33  C   UNL     1       1.191  -3.546   5.428  0.00  0.00    +0.020 A 
ATOM     34  C   UNL     1       0.206  -2.582   5.316  0.00  0.00    +0.111 A 
ATOM     35  N   UNL     1      -0.939  -2.854   4.722  0.00  0.00    -0.263 NA
ATOM     36  C   UNL     1      -1.189  -4.043   4.209  0.00  0.00    +0.116 A 
ENDBRANCH  18  31
TORSDOF 5
