REMARK  Name = ZINC08236376
REMARK  3 active torsions:
REMARK  status: ('A' for Active; 'I' for Inactive)
REMARK    1  A    between atoms: C_1  and  C_2
REMARK    2  A    between atoms: C_2  and  C_29
REMARK    3  A    between atoms: C_6  and  C_17
REMARK                            x       y       z     vdW  Elec       q    Type
REMARK                         _______ _______ _______ _____ _____    ______ ____
ROOT
ATOM      1  C   UNL     1      -0.019   1.526   0.010  0.00  0.00    +0.011 C 
ATOM      2  C   UNL     1       0.002  -0.004   0.002  0.00  0.00    -0.023 C 
ATOM      3  C   UNL     1      -1.431  -0.538   0.039  0.00  0.00    +0.058 C 
ATOM      4  C   UNL     1      -1.410  -2.046   0.083  0.00  0.00    +0.017 C 
ATOM      5  C   UNL     1      -0.399  -2.711   0.680  0.00  0.00    +0.024 C 
ATOM      6  C   UNL     1      -0.385  -4.217   0.736  0.00  0.00    +0.090 C 
ATOM      7  C   UNL     1      -1.326  -4.808  -0.271  0.00  0.00    +0.042 A 
ATOM      8  C   UNL     1      -1.210  -6.157  -0.640  0.00  0.00    +0.126 A 
ATOM      9  N   UNL     1      -2.053  -6.669  -1.531  0.00  0.00    -0.208 NA
ATOM     10  C   UNL     1      -3.007  -5.923  -2.080  0.00  0.00    +0.180 A 
ATOM     11  S   UNL     1      -4.071  -6.626  -3.223  0.00  0.00    -0.011 S 
ATOM     12  N   UNL     1      -3.152  -4.625  -1.752  0.00  0.00    -0.322 N 
ATOM     13  C   UNL     1      -2.308  -4.051  -0.841  0.00  0.00    +0.110 A 
ATOM     14  N   UNL     1      -2.443  -2.727  -0.503  0.00  0.00    -0.304 N 
ATOM     15  N   UNL     1      -0.228  -6.946  -0.083  0.00  0.00    -0.343 N 
ATOM     16  C   UNL     1       0.675  -2.018   1.267  0.00  0.00    +0.162 C 
ATOM     17  O   UNL     1       1.566  -2.646   1.805  0.00  0.00    -0.292 OA
ATOM     18  C   UNL     1       0.742  -0.516   1.242  0.00  0.00    +0.086 C 
ATOM     19  C   UNL     1       0.709  -0.502  -1.261  0.00  0.00    +0.011 C 
ATOM     20  H   UNL     1      -3.280  -2.270  -0.681  0.00  0.00    +0.153 HD
ATOM     21  H   UNL     1      -0.150  -7.878  -0.340  0.00  0.00    +0.144 HD
ATOM     22  H   UNL     1       0.386  -6.569   0.567  0.00  0.00    +0.144 HD
ATOM     23  H   UNL     1      -3.854  -4.097  -2.163  0.00  0.00    +0.169 HD
ENDROOT
BRANCH   6  24
ATOM     24  C   UNL     1      -0.795  -4.664   2.116  0.00  0.00    -0.032 A 
ATOM     25  C   UNL     1      -2.040  -4.321   2.610  0.00  0.00    +0.008 A 
ATOM     26  C   UNL     1      -2.421  -4.729   3.874  0.00  0.00    +0.050 A 
ATOM     27  C   UNL     1      -1.556  -5.482   4.651  0.00  0.00    +0.166 A 
ATOM     28  C   UNL     1      -0.301  -5.827   4.153  0.00  0.00    +0.167 A 
ATOM     29  C   UNL     1       0.072  -5.420   2.883  0.00  0.00    +0.054 A 
ATOM     30  O   UNL     1       0.356  -6.561   5.098  0.00  0.00    -0.453 OA
ATOM     31  C   UNL     1      -0.345  -6.316   6.332  0.00  0.00    +0.466 C 
ATOM     32  O   UNL     1      -1.684  -6.000   5.907  0.00  0.00    -0.453 OA
ENDBRANCH   6  24
TORSDOF 1
