REMARK  Name = ZINC58894755
REMARK  11 active torsions:
REMARK  status: ('A' for Active; 'I' for Inactive)
REMARK    1  A    between atoms: C_1  and  C_2
REMARK    2  A    between atoms: C_2  and  O_3
REMARK    3  A    between atoms: O_3  and  C_4
REMARK    4  A    between atoms: C_7  and  C_10
REMARK    5  A    between atoms: C_10  and  C_12
REMARK    6  A    between atoms: C_10  and  O_32
REMARK    7  A    between atoms: C_12  and  C_13
REMARK    8  A    between atoms: C_13  and  C_14
REMARK    9  A    between atoms: N_16  and  N_17
REMARK   10  A    between atoms: C_18  and  C_19
REMARK   11  A    between atoms: C_22  and  C_24
REMARK                            x       y       z     vdW  Elec       q    Type
REMARK                         _______ _______ _______ _____ _____    ______ ____
ROOT
ATOM      1  C   UNL     1      -2.339  -8.581  -2.904  0.00  0.00    +0.232 C 
ATOM      2  O   UNL     1      -2.482  -7.778  -3.801  0.00  0.00    -0.274 OA
ATOM      3  N   UNL     1      -2.419  -9.902  -3.162  0.00  0.00    -0.207 N 
ATOM      4  H   UNL     1      -2.304 -10.544  -2.444  0.00  0.00    +0.177 HD
ENDROOT
BRANCH   3   5
ATOM      5  N   UNL     1      -2.668 -10.347  -4.466  0.00  0.00    -0.185 NA
ATOM      6  C   UNL     1      -2.666 -11.621  -4.731  0.00  0.00    +0.176 C 
BRANCH   6   7
ATOM      7  C   UNL     1      -2.567 -12.595  -3.642  0.00  0.00    +0.148 A 
ATOM      8  C   UNL     1      -2.436 -13.958  -3.785  0.00  0.00    +0.051 A 
ATOM      9  C   UNL     1      -2.378 -14.497  -2.493  0.00  0.00    +0.050 A 
ATOM     10  C   UNL     1      -2.474 -13.455  -1.620  0.00  0.00    +0.136 A 
ATOM     11  O   UNL     1      -2.582 -12.312  -2.323  0.00  0.00    -0.454 OA
BRANCH  10  12
ATOM     12  C   UNL     1      -2.456 -13.561  -0.148  0.00  0.00    +0.019 A 
ATOM     13  C   UNL     1      -2.326 -14.811   0.464  0.00  0.00    +0.013 A 
ATOM     14  C   UNL     1      -2.309 -14.904   1.840  0.00  0.00    +0.017 A 
ATOM     15  C   UNL     1      -2.421 -13.762   2.615  0.00  0.00    +0.036 A 
ATOM     16  C   UNL     1      -2.550 -12.520   2.016  0.00  0.00    +0.056 A 
ATOM     17  C   UNL     1      -2.562 -12.413   0.640  0.00  0.00    +0.032 A 
ATOM     18 CL   UNL     1      -2.690 -11.095   2.997  0.00  0.00    -0.082 Cl
ATOM     19 BR   UNL     1      -2.399 -13.900   4.501  0.00  0.00    -0.049 Br
ENDBRANCH  10  12
ENDBRANCH   6   7
ENDBRANCH   3   5
BRANCH   1  20
ATOM     20  C   UNL     1      -2.071  -8.102  -1.500  0.00  0.00    +0.100 C 
BRANCH  20  21
ATOM     21  C   UNL     1      -2.029  -6.573  -1.482  0.00  0.00    +0.045 C 
BRANCH  21  22
ATOM     22  C   UNL     1      -1.757  -6.087  -0.057  0.00  0.00    +0.145 C 
BRANCH  22  26
ATOM     23  C   UNL     1      -1.294  -1.839  -0.065  0.00  0.00    +0.121 A 
ATOM     24  C   UNL     1      -0.178  -2.659  -0.141  0.00  0.00    +0.046 A 
ATOM     25  C   UNL     1      -0.331  -4.032  -0.138  0.00  0.00    +0.010 A 
ATOM     26  C   UNL     1      -1.594  -4.589  -0.060  0.00  0.00    -0.019 A 
ATOM     27  C   UNL     1      -2.708  -3.773   0.015  0.00  0.00    +0.010 A 
ATOM     28  C   UNL     1      -2.561  -2.400   0.019  0.00  0.00    +0.046 A 
BRANCH  23  29
ATOM     29  O   UNL     1      -1.147  -0.488  -0.068  0.00  0.00    -0.492 OA
BRANCH  29  31
ATOM     30  C   UNL     1       0.151   1.549  -0.146  0.00  0.00    +0.048 C 
ATOM     31  C   UNL     1       0.185   0.020  -0.157  0.00  0.00    +0.225 C 
ENDBRANCH  29  31
ENDBRANCH  23  29
ENDBRANCH  22  26
BRANCH  22  32
ATOM     32  O   UNL     1      -2.854  -6.445   0.786  0.00  0.00    -0.387 OA
ATOM     33  H   UNL     1      -3.700  -6.066   0.512  0.00  0.00    +0.210 HD
ENDBRANCH  22  32
ENDBRANCH  21  22
ENDBRANCH  20  21
ENDBRANCH   1  20
TORSDOF 10
