REMARK  Name = ZINC39957965
REMARK  11 active torsions:
REMARK  status: ('A' for Active; 'I' for Inactive)
REMARK    1  A    between atoms: C_1  and  C_2
REMARK    2  A    between atoms: C_2  and  O_3
REMARK    3  A    between atoms: O_3  and  C_4
REMARK    4  A    between atoms: C_6  and  C_28
REMARK    5  A    between atoms: C_7  and  C_13
REMARK    6  A    between atoms: C_9  and  C_10
REMARK    7  A    between atoms: C_10  and  C_11
REMARK    8  A    between atoms: C_10  and  C_12
REMARK    9  A    between atoms: C_15  and  C_26
REMARK   10  A    between atoms: C_16  and  N_25
REMARK   11  A    between atoms: C_21  and  C_24
REMARK                            x       y       z     vdW  Elec       q    Type
REMARK                         _______ _______ _______ _____ _____    ______ ____
ROOT
ATOM      1  C   UNL     1      -2.001  -6.092  -0.010  0.00  0.00    +0.098 C 
ATOM      2  C   UNL     1      -2.804  -6.530   1.201  0.00  0.00    +0.097 C 
ATOM      3  C   UNL     1      -3.894  -7.317   1.082  0.00  0.00    +0.195 C 
ATOM      4  O   UNL     1      -4.425  -7.787  -0.061  0.00  0.00    -0.448 OA
ATOM      5  C   UNL     1      -3.572  -7.843  -1.207  0.00  0.00    +0.343 C 
ATOM      6  C   UNL     1      -2.809  -6.516  -1.206  0.00  0.00    +0.030 C 
ATOM      7  C   UNL     1      -3.065  -5.974  -2.371  0.00  0.00    +0.066 C 
ATOM      8  N   UNL     1      -3.962  -6.729  -3.055  0.00  0.00    -0.155 NA
ATOM      9  N   UNL     1      -4.318  -7.779  -2.467  0.00  0.00    -0.138 NA
ATOM     10  C   UNL     1      -2.452  -4.694  -2.878  0.00  0.00    +0.067 C 
ENDROOT
BRANCH   1  14
ATOM     11  C   UNL     1      -1.498  -1.848   0.006  0.00  0.00    +0.124 A 
ATOM     12  C   UNL     1      -0.387  -2.679  -0.003  0.00  0.00    +0.049 A 
ATOM     13  C   UNL     1      -0.552  -4.051  -0.008  0.00  0.00    -0.043 A 
ATOM     14  C   UNL     1      -1.823  -4.596  -0.004  0.00  0.00    -0.031 A 
ATOM     15  C   UNL     1      -2.932  -3.769   0.004  0.00  0.00    +0.012 A 
ATOM     16  C   UNL     1      -2.772  -2.397   0.016  0.00  0.00    -0.003 A 
ATOM     17  C   UNL     1       0.654  -4.954  -0.019  0.00  0.00    +0.044 C 
BRANCH  16  18
ATOM     18  C   UNL     1      -3.981  -1.497   0.032  0.00  0.00    +0.016 C 
ATOM     19  C   UNL     1      -4.832  -1.765  -1.211  0.00  0.00    +0.012 C 
ATOM     20  C   UNL     1      -4.809  -1.778   1.287  0.00  0.00    +0.012 C 
ENDBRANCH  16  18
BRANCH  11  21
ATOM     21  O   UNL     1      -1.339  -0.499   0.012  0.00  0.00    -0.492 OA
BRANCH  21  23
ATOM     22  C   UNL     1      -0.019   1.526   0.010  0.00  0.00    +0.048 C 
ATOM     23  C   UNL     1       0.002  -0.004   0.002  0.00  0.00    +0.225 C 
ENDBRANCH  21  23
ENDBRANCH  11  21
ENDBRANCH   1  14
BRANCH   3  24
ATOM     24  N   UNL     1      -4.526  -7.673   2.247  0.00  0.00    -0.329 N 
ATOM     25  H   UNL     1      -4.184  -7.361   3.099  0.00  0.00    +0.145 HD
ATOM     26  H   UNL     1      -5.315  -8.237   2.218  0.00  0.00    +0.145 HD
ENDBRANCH   3  24
BRANCH   2  27
ATOM     27  C   UNL     1      -2.394  -6.099   2.503  0.00  0.00    +0.101 C 
ATOM     28  N   UNL     1      -2.068  -5.757   3.537  0.00  0.00    -0.191 NA
ENDBRANCH   2  27
TORSDOF 6
