REMARK  Name = ZINC13572760
REMARK  10 active torsions:
REMARK  status: ('A' for Active; 'I' for Inactive)
REMARK    1  A    between atoms: C_1  and  C_2
REMARK    2  A    between atoms: C_3  and  C_20
REMARK    3  A    between atoms: C_6  and  O_12
REMARK    4  A    between atoms: O_12  and  C_13
REMARK    5  A    between atoms: C_13  and  C_14
REMARK    6  A    between atoms: C_20  and  C_21
REMARK    7  A    between atoms: C_21  and  N_22
REMARK    8  A    between atoms: C_23  and  C_24
REMARK    9  A    between atoms: C_23  and  C_25
REMARK   10  A    between atoms: C_28  and  C_33
REMARK                            x       y       z     vdW  Elec       q    Type
REMARK                         _______ _______ _______ _____ _____    ______ ____
ROOT
ATOM      1  C   UNL     1      -0.316   0.921  -0.115  0.00  0.00    +0.063 C 
ATOM      2  C   UNL     1      -0.030  -0.556  -0.199  0.00  0.00    +0.017 A 
ATOM      3  C   UNL     1       0.169  -1.239  -1.338  0.00  0.00    -0.018 A 
ATOM      4  C   UNL     1       0.413  -2.634  -0.964  0.00  0.00    +0.007 A 
ATOM      5  C   UNL     1       0.678  -3.799  -1.687  0.00  0.00    +0.056 A 
ATOM      6  C   UNL     1       0.864  -4.991  -1.016  0.00  0.00    +0.122 A 
ATOM      7  C   UNL     1       0.788  -5.033   0.374  0.00  0.00    +0.048 A 
ATOM      8  C   UNL     1       0.527  -3.891   1.097  0.00  0.00    +0.030 A 
ATOM      9  C   UNL     1       0.337  -2.680   0.440  0.00  0.00    +0.047 A 
ATOM     10  N   UNL     1       0.071  -1.398   0.874  0.00  0.00    -0.358 N 
ATOM     11  H   UNL     1      -0.030  -1.134   1.802  0.00  0.00    +0.166 HD
ENDROOT
BRANCH   6  12
ATOM     12  O   UNL     1       1.123  -6.128  -1.715  0.00  0.00    -0.487 OA
BRANCH  12  13
ATOM     13  C   UNL     1       1.306  -7.327  -0.959  0.00  0.00    +0.264 C 
BRANCH  13  14
ATOM     14  C   UNL     1       1.581  -8.475  -1.896  0.00  0.00    -0.010 A 
ATOM     15  C   UNL     1       0.532  -9.222  -2.400  0.00  0.00    +0.007 A 
ATOM     16  C   UNL     1       0.784 -10.274  -3.260  0.00  0.00    +0.000 A 
ATOM     17  C   UNL     1       2.085 -10.581  -3.615  0.00  0.00    +0.000 A 
ATOM     18  C   UNL     1       3.133  -9.834  -3.111  0.00  0.00    +0.000 A 
ATOM     19  C   UNL     1       2.881  -8.778  -2.255  0.00  0.00    +0.007 A 
ENDBRANCH  13  14
ENDBRANCH  12  13
ENDBRANCH   6  12
BRANCH   3  20
ATOM     20  C   UNL     1       0.145  -0.676  -2.736  0.00  0.00    +0.060 C 
BRANCH  20  21
ATOM     21  C   UNL     1       1.552  -0.217  -3.124  0.00  0.00    +0.146 C 
BRANCH  21  22
ATOM     22  N   UNL     1       1.529   0.330  -4.483  0.00  0.00    -0.287 NA
ATOM     23  C   UNL     1       1.782   1.585  -4.681  0.00  0.00    +0.047 C 
ATOM     24  C   UNL     1       2.206   2.459  -3.529  0.00  0.00    +0.066 C 
BRANCH  23  25
ATOM     25  C   UNL     1       1.655   2.158  -6.030  0.00  0.00    +0.080 C 
ATOM     26  C   UNL     1       2.630   1.879  -6.987  0.00  0.00    +0.169 C 
ATOM     27  C   UNL     1       2.527   2.449  -8.378  0.00  0.00    +0.088 C 
ATOM     28  C   UNL     1       1.786   3.788  -8.323  0.00  0.00    +0.034 C 
ATOM     29  C   UNL     1       0.403   3.568  -7.703  0.00  0.00    +0.088 C 
ATOM     30  C   UNL     1       0.558   2.965  -6.332  0.00  0.00    +0.169 C 
ATOM     31  O   UNL     1      -0.282   3.188  -5.474  0.00  0.00    -0.292 OA
ATOM     32  O   UNL     1       3.578   1.166  -6.695  0.00  0.00    -0.292 OA
BRANCH  28  33
ATOM     33  C   UNL     1       1.634   4.337  -9.718  0.00  0.00    -0.043 A 
ATOM     34  C   UNL     1       0.940   3.617 -10.672  0.00  0.00    +0.004 A 
ATOM     35  C   UNL     1       0.801   4.122 -11.952  0.00  0.00    +0.000 A 
ATOM     36  C   UNL     1       1.354   5.346 -12.277  0.00  0.00    +0.000 A 
ATOM     37  C   UNL     1       2.047   6.066 -11.322  0.00  0.00    +0.000 A 
ATOM     38  C   UNL     1       2.183   5.564 -10.041  0.00  0.00    +0.004 A 
ENDBRANCH  28  33
ENDBRANCH  23  25
ENDBRANCH  21  22
ENDBRANCH  20  21
ENDBRANCH   3  20
TORSDOF 8
