REMARK  Name = ZINC38799094
REMARK  9 active torsions:
REMARK  status: ('A' for Active; 'I' for Inactive)
REMARK    1  A    between atoms: C_1  and  C_2
REMARK    2  A    between atoms: C_2  and  C_3
REMARK    3  A    between atoms: C_3  and  C_4
REMARK    4  A    between atoms: C_3  and  C_6
REMARK    5  A    between atoms: C_4  and  C_5
REMARK    6  A    between atoms: C_6  and  C_7
REMARK    7  A    between atoms: C_10  and  C_34
REMARK    8  A    between atoms: C_13  and  C_15
REMARK    9  A    between atoms: C_17  and  C_28
REMARK                            x       y       z     vdW  Elec       q    Type
REMARK                         _______ _______ _______ _____ _____    ______ ____
ROOT
ATOM      1  C   UNL     1       2.445  -6.849   2.448  0.00  0.00    +0.152 C 
ATOM      2  C   UNL     1       1.789  -6.955   1.085  0.00  0.00    -0.014 C 
ATOM      3  C   UNL     1       2.595  -7.372   0.023  0.00  0.00    +0.002 A 
ATOM      4  C   UNL     1       2.065  -7.498  -1.279  0.00  0.00    +0.030 A 
ATOM      5  C   UNL     1       2.873  -7.905  -2.295  0.00  0.00    +0.042 A 
ATOM      6  C   UNL     1       4.217  -8.203  -2.078  0.00  0.00    +0.022 A 
ATOM      7  C   UNL     1       4.785  -8.100  -0.844  0.00  0.00    +0.025 A 
ATOM      8  C   UNL     1       4.010  -7.684   0.253  0.00  0.00    +0.041 A 
ATOM      9  N   UNL     1       4.570  -7.584   1.464  0.00  0.00    -0.284 N 
ATOM     10  C   UNL     1       3.913  -7.201   2.540  0.00  0.00    +0.230 C 
ATOM     11  O   UNL     1       4.488  -7.132   3.610  0.00  0.00    -0.274 OA
ATOM     12 CL   UNL     1       2.216  -8.059  -3.895  0.00  0.00    -0.084 Cl
ATOM     13  H   UNL     1       5.510  -7.804   1.554  0.00  0.00    +0.155 HD
ENDROOT
BRANCH   1  19
ATOM     14  C   UNL     1       1.338  -2.085   2.382  0.00  0.00    +0.235 C 
ATOM     15  O   UNL     1       1.427  -1.060   3.024  0.00  0.00    -0.274 OA
ATOM     16  N   UNL     1       1.773  -3.249   2.905  0.00  0.00    -0.186 N 
ATOM     17  C   UNL     1       2.264  -3.441   4.280  0.00  0.00    +0.147 C 
ATOM     18  C   UNL     1       2.619  -4.941   4.322  0.00  0.00    +0.082 C 
ATOM     19  C   UNL     1       2.279  -5.431   2.932  0.00  0.00    +0.055 C 
ATOM     20  N   UNL     1       1.827  -4.470   2.236  0.00  0.00    -0.185 NA
BRANCH  17  21
ATOM     21  C   UNL     1       1.167  -3.114   5.295  0.00  0.00    +0.199 C 
ATOM     22  C   UNL     1       0.942  -1.585   5.395  0.00  0.00    +0.076 C 
ATOM     23  C   UNL     1       0.693  -1.407   6.883  0.00  0.00    +0.014 C 
ATOM     24  C   UNL     1       1.089  -2.510   7.482  0.00  0.00    +0.183 C 
ATOM     25  O   UNL     1       1.591  -3.437   6.634  0.00  0.00    -0.494 OA
ENDBRANCH  17  21
BRANCH  14  26
ATOM     26  C   UNL     1       0.741  -2.058   0.999  0.00  0.00    +0.101 C 
BRANCH  26  27
ATOM     27  C   UNL     1       0.272  -0.638   0.673  0.00  0.00    -0.003 C 
BRANCH  27  29
ATOM     28  C   UNL     1       1.012   1.729   0.366  0.00  0.00    +0.004 C 
ATOM     29  C   UNL     1       1.486   0.288   0.568  0.00  0.00    +0.000 C 
ENDBRANCH  27  29
BRANCH  27  30
ATOM     30  C   UNL     1      -0.483  -0.642  -0.657  0.00  0.00    +0.000 C 
ATOM     31  C   UNL     1      -1.784  -1.434  -0.502  0.00  0.00    +0.004 C 
ENDBRANCH  27  30
ENDBRANCH  26  27
ENDBRANCH  14  26
ENDBRANCH   1  19
BRANCH   2  32
ATOM     32  C   UNL     1       0.418  -6.646   0.897  0.00  0.00    -0.020 A 
ATOM     33  C   UNL     1       0.035  -5.669  -0.037  0.00  0.00    +0.008 A 
ATOM     34  C   UNL     1      -1.299  -5.376  -0.212  0.00  0.00    +0.001 A 
ATOM     35  C   UNL     1      -2.262  -6.041   0.530  0.00  0.00    +0.000 A 
ATOM     36  C   UNL     1      -1.895  -7.006   1.454  0.00  0.00    +0.001 A 
ATOM     37  C   UNL     1      -0.567  -7.318   1.639  0.00  0.00    +0.008 A 
ENDBRANCH   2  32
TORSDOF 7
