REMARK  Name = ZINC36343470
REMARK  13 active torsions:
REMARK  status: ('A' for Active; 'I' for Inactive)
REMARK    1  A    between atoms: C_1  and  C_2
REMARK    2  A    between atoms: C_2  and  O_3
REMARK    3  A    between atoms: O_3  and  C_4
REMARK    4  A    between atoms: C_4  and  C_6
REMARK    5  A    between atoms: N_9  and  C_12
REMARK    6  A    between atoms: C_12  and  C_13
REMARK    7  A    between atoms: C_16  and  C_31
REMARK    8  A    between atoms: C_19  and  C_21
REMARK    9  A    between atoms: C_24  and  O_29
REMARK   10  A    between atoms: C_25  and  O_27
REMARK   11  A    between atoms: O_27  and  C_28
REMARK   12  A    between atoms: O_29  and  C_30
REMARK   13  A    between atoms: C_34  and  C_37
REMARK                            x       y       z     vdW  Elec       q    Type
REMARK                         _______ _______ _______ _____ _____    ______ ____
ROOT
ATOM      1  C   UNL     1      -5.976  -6.238   1.600  0.00  0.00    +0.219 C 
ATOM      2  O   UNL     1      -4.864  -6.721   1.600  0.00  0.00    -0.276 OA
ATOM      3  N   UNL     1      -7.057  -7.033   1.726  0.00  0.00    -0.187 N 
ATOM      4  C   UNL     1      -7.029  -8.497   1.875  0.00  0.00    +0.137 C 
ATOM      5  C   UNL     1      -8.520  -8.878   1.974  0.00  0.00    +0.087 C 
ATOM      6  C   UNL     1      -9.242  -7.555   1.867  0.00  0.00    +0.069 C 
ATOM      7  N   UNL     1      -8.382  -6.604   1.741  0.00  0.00    -0.181 NA
ENDROOT
BRANCH   4   8
ATOM      8  C   UNL     1      -6.393  -9.141   0.671  0.00  0.00    -0.025 A 
ATOM      9  C   UNL     1      -6.635  -8.635  -0.593  0.00  0.00    +0.006 A 
ATOM     10  C   UNL     1      -6.051  -9.226  -1.698  0.00  0.00    +0.004 A 
ATOM     11  C   UNL     1      -5.225 -10.323  -1.539  0.00  0.00    -0.050 A 
ATOM     12  C   UNL     1      -4.982 -10.829  -0.276  0.00  0.00    +0.004 A 
ATOM     13  C   UNL     1      -5.563 -10.235   0.830  0.00  0.00    +0.006 A 
ATOM     14  C   UNL     1      -4.589 -10.968  -2.744  0.00  0.00    +0.044 C 
ENDBRANCH   4   8
BRANCH   6  15
ATOM     15  C   UNL     1     -10.705  -7.378   1.908  0.00  0.00    +0.002 A 
ATOM     16  C   UNL     1     -11.540  -8.488   2.062  0.00  0.00    +0.013 A 
ATOM     17  C   UNL     1     -12.909  -8.321   2.100  0.00  0.00    +0.050 A 
ATOM     18  C   UNL     1     -13.460  -7.053   1.986  0.00  0.00    +0.162 A 
ATOM     19  C   UNL     1     -12.633  -5.942   1.832  0.00  0.00    +0.162 A 
ATOM     20  C   UNL     1     -11.260  -6.101   1.799  0.00  0.00    +0.059 A 
BRANCH  19  21
ATOM     21  O   UNL     1     -13.177  -4.700   1.720  0.00  0.00    -0.491 OA
ATOM     22  C   UNL     1     -12.270  -3.607   1.565  0.00  0.00    +0.277 C 
ENDBRANCH  19  21
BRANCH  18  23
ATOM     23  O   UNL     1     -14.809  -6.894   2.023  0.00  0.00    -0.491 OA
ATOM     24  C   UNL     1     -15.597  -8.075   2.182  0.00  0.00    +0.277 C 
ENDBRANCH  18  23
ENDBRANCH   6  15
BRANCH   1  25
ATOM     25  C   UNL     1      -6.150  -4.747   1.460  0.00  0.00    +0.021 C 
BRANCH  25  29
ATOM     26  C   UNL     1      -2.881  -2.427   0.017  0.00  0.00    +0.094 C 
ATOM     27  C   UNL     1      -3.621  -1.980   1.281  0.00  0.00    -0.004 C 
ATOM     28  C   UNL     1      -4.996  -2.651   1.324  0.00  0.00    -0.077 C 
ATOM     29  N   UNL     1      -4.832  -4.110   1.340  0.00  0.00    +0.385 N 
ATOM     30  C   UNL     1      -4.188  -4.552   0.098  0.00  0.00    -0.077 C 
ATOM     31  C   UNL     1      -2.782  -3.955   0.007  0.00  0.00    -0.004 C 
ATOM     32  H   UNL     1      -4.260  -4.374   2.128  0.00  0.00    -0.081 HD
BRANCH  26  33
ATOM     33  C   UNL     1      -1.496  -1.832   0.006  0.00  0.00    +0.310 C 
ATOM     34  O   UNL     1      -0.528  -2.555  -0.007  0.00  0.00    -0.251 OA
BRANCH  33  35
ATOM     35  O   UNL     1      -1.339  -0.499   0.012  0.00  0.00    -0.465 OA
BRANCH  35  37
ATOM     36  C   UNL     1      -0.019   1.526   0.010  0.00  0.00    +0.048 C 
ATOM     37  C   UNL     1       0.002  -0.004   0.002  0.00  0.00    +0.229 C 
ENDBRANCH  35  37
ENDBRANCH  33  35
ENDBRANCH  26  33
ENDBRANCH  25  29
ENDBRANCH   1  25
TORSDOF 9
