REMARK  Name = ZINC48599085
REMARK  4 active torsions:
REMARK  status: ('A' for Active; 'I' for Inactive)
REMARK    1  A    between atoms: C_1  and  N_2
REMARK    2  A    between atoms: C_6  and  C_8
REMARK    3  A    between atoms: C_8  and  N_9
REMARK    4  A    between atoms: C_13  and  C_15
REMARK                            x       y       z     vdW  Elec       q    Type
REMARK                         _______ _______ _______ _____ _____    ______ ____
ROOT
ATOM      1  N   UNL     1       1.894  -4.653  -3.262  0.00  0.00    +0.390 N 
ATOM      2  C   UNL     1       3.320  -4.263  -3.209  0.00  0.00    -0.077 C 
ATOM      3  C   UNL     1       4.048  -5.506  -2.640  0.00  0.00    -0.020 C 
ATOM      4  C   UNL     1       3.257  -6.664  -3.302  0.00  0.00    -0.013 C 
ATOM      5  C   UNL     1       1.812  -6.123  -3.336  0.00  0.00    -0.037 C 
ATOM      6  H   UNL     1       1.464  -4.248  -4.080  0.00  0.00    -0.080 HD
ENDROOT
BRANCH   5   7
ATOM      7  C   UNL     1       1.141  -6.536  -4.620  0.00  0.00    -0.061 A 
ATOM      8  C   UNL     1       1.428  -5.867  -5.796  0.00  0.00    +0.003 A 
ATOM      9  C   UNL     1       0.812  -6.246  -6.974  0.00  0.00    +0.015 A 
ATOM     10  C   UNL     1      -0.091  -7.293  -6.977  0.00  0.00    +0.018 A 
ATOM     11  C   UNL     1      -0.378  -7.962  -5.801  0.00  0.00    +0.015 A 
ATOM     12  C   UNL     1       0.242  -7.586  -4.624  0.00  0.00    +0.003 A 
ATOM     13 BR   UNL     1      -0.934  -7.811  -8.589  0.00  0.00    -0.050 Br
ENDBRANCH   5   7
BRANCH   1  14
ATOM     14  C   UNL     1       1.207  -4.179  -2.054  0.00  0.00    +0.020 C 
BRANCH  14  20
ATOM     15  C   UNL     1      -0.018   1.461   0.010  0.00  0.00    +0.129 C 
ATOM     16  N   UNL     1       0.002  -0.004   0.002  0.00  0.00    -0.302 N 
ATOM     17  C   UNL     1       0.585  -0.664  -1.018  0.00  0.00    +0.306 C 
ATOM     18  O   UNL     1       1.094  -0.045  -1.931  0.00  0.00    -0.252 OA
ATOM     19  N   UNL     1       0.603  -2.012  -1.025  0.00  0.00    -0.242 N 
ATOM     20  C   UNL     1       1.186  -2.673  -2.045  0.00  0.00    +0.204 C 
ATOM     21  O   UNL     1       1.694  -2.054  -2.956  0.00  0.00    -0.277 OA
ATOM     22  H   UNL     1      -0.404  -0.499   0.731  0.00  0.00    +0.150 HD
ATOM     23  H   UNL     1       0.197  -2.507  -0.297  0.00  0.00    +0.159 HD
ENDBRANCH  14  20
ENDBRANCH   1  14
TORSDOF 3
