REMARK  Name = ZINC35343319
REMARK  6 active torsions:
REMARK  status: ('A' for Active; 'I' for Inactive)
REMARK    1  A    between atoms: C_1  and  C_2
REMARK    2  A    between atoms: C_2  and  C_3
REMARK    3  A    between atoms: C_6  and  N_9
REMARK    4  A    between atoms: C_10  and  C_12
REMARK    5  A    between atoms: C_12  and  N_13
REMARK    6  A    between atoms: N_15  and  C_24
REMARK                            x       y       z     vdW  Elec       q    Type
REMARK                         _______ _______ _______ _____ _____    ______ ____
ROOT
ATOM      1  N   UNL     1       6.149  -2.373  -5.640  0.00  0.00    -0.275 N 
ATOM      2  C   UNL     1       7.063  -1.236  -5.742  0.00  0.00    +0.217 C 
ATOM      3  N   UNL     1       8.427  -1.725  -5.501  0.00  0.00    -0.300 N 
ATOM      4  C   UNL     1       8.297  -3.167  -5.257  0.00  0.00    +0.109 C 
ATOM      5  C   UNL     1       6.831  -3.495  -5.356  0.00  0.00    +0.241 C 
ATOM      6  O   UNL     1       6.345  -4.596  -5.207  0.00  0.00    -0.273 OA
ATOM      7  C   UNL     1       8.816  -3.508  -3.859  0.00  0.00    +0.016 C 
ATOM      8  C   UNL     1      10.317  -3.217  -3.793  0.00  0.00    -0.080 C 
ATOM      9  N   UNL     1      11.020  -4.025  -4.798  0.00  0.00    +0.379 N 
ATOM     10  C   UNL     1      10.581  -3.639  -6.144  0.00  0.00    -0.080 C 
ATOM     11  C   UNL     1       9.090  -3.947  -6.306  0.00  0.00    +0.016 C 
ATOM     12  H   UNL     1      12.014  -3.874  -4.713  0.00  0.00    -0.086 HD
ATOM     13  H   UNL     1      10.815  -5.001  -4.645  0.00  0.00    -0.086 HD
ENDROOT
BRANCH   3  14
ATOM     14  C   UNL     1       9.604  -0.974  -5.504  0.00  0.00    +0.032 A 
ATOM     15  C   UNL     1       9.557   0.393  -5.749  0.00  0.00    +0.023 A 
ATOM     16  C   UNL     1      10.723   1.133  -5.751  0.00  0.00    +0.002 A 
ATOM     17  C   UNL     1      11.937   0.514  -5.510  0.00  0.00    +0.000 A 
ATOM     18  C   UNL     1      11.987  -0.846  -5.266  0.00  0.00    +0.002 A 
ATOM     19  C   UNL     1      10.824  -1.591  -5.257  0.00  0.00    +0.023 A 
ENDBRANCH   3  14
BRANCH   1  20
ATOM     20  C   UNL     1       4.697  -2.298  -5.816  0.00  0.00    +0.205 C 
BRANCH  20  22
ATOM     21  N   UNL     1       2.703  -1.904  -4.406  0.00  0.00    -0.284 N 
ATOM     22  C   UNL     1       4.043  -2.016  -4.487  0.00  0.00    +0.235 C 
ATOM     23  O   UNL     1       4.724  -1.890  -3.491  0.00  0.00    -0.274 OA
ATOM     24  H   UNL     1       2.154  -2.070  -5.188  0.00  0.00    +0.155 HD
BRANCH  21  28
ATOM     25  C   UNL     1       0.918  -0.839  -0.795  0.00  0.00    -0.048 A 
ATOM     26  C   UNL     1       2.052  -1.631  -0.797  0.00  0.00    +0.005 A 
ATOM     27  C   UNL     1       2.646  -1.986  -1.993  0.00  0.00    +0.023 A 
ATOM     28  C   UNL     1       2.103  -1.546  -3.193  0.00  0.00    +0.033 A 
ATOM     29  C   UNL     1       0.964  -0.752  -3.188  0.00  0.00    +0.023 A 
ATOM     30  C   UNL     1       0.372  -0.405  -1.989  0.00  0.00    +0.005 A 
BRANCH  25  32
ATOM     31  C   UNL     1      -0.767  -1.509   0.897  0.00  0.00    +0.009 C 
ATOM     32  C   UNL     1       0.272  -0.454   0.511  0.00  0.00    +0.032 C 
ENDBRANCH  25  32
ENDBRANCH  21  28
ENDBRANCH  20  22
ENDBRANCH   1  20
TORSDOF 5
