REMARK  Name = ZINC00988731
REMARK  6 active torsions:
REMARK  status: ('A' for Active; 'I' for Inactive)
REMARK    1  A    between atoms: C_1  and  C_2
REMARK    2  A    between atoms: C_2  and  O_3
REMARK    3  A    between atoms: O_3  and  C_4
REMARK    4  A    between atoms: C_7  and  C_10
REMARK    5  A    between atoms: C_24  and  N_29
REMARK    6  A    between atoms: C_25  and  N_26
REMARK                            x       y       z     vdW  Elec       q    Type
REMARK                         _______ _______ _______ _____ _____    ______ ____
ROOT
ATOM      1  C   UNL     1       3.512   6.159  -0.116  0.00  0.00    +0.118 C 
ATOM      2  C   UNL     1       2.287   5.287  -0.065  0.00  0.00    +0.093 A 
ATOM      3  C   UNL     1       2.410   3.932   0.036  0.00  0.00    +0.152 A 
ATOM      4  C   UNL     1       1.182   3.124   0.082  0.00  0.00    +0.060 A 
ATOM      5  C   UNL     1       1.237   1.732   0.184  0.00  0.00    +0.015 A 
ATOM      6  C   UNL     1       0.068   1.006   0.224  0.00  0.00    +0.001 A 
ATOM      7  C   UNL     1      -1.159   1.650   0.160  0.00  0.00    +0.004 A 
ATOM      8  C   UNL     1      -1.228   3.025   0.065  0.00  0.00    +0.047 A 
ATOM      9  C   UNL     1      -0.060   3.776   0.022  0.00  0.00    +0.143 A 
ATOM     10  O   UNL     1      -0.108   5.122  -0.076  0.00  0.00    -0.422 OA
ATOM     11  C   UNL     1       1.009   5.866  -0.120  0.00  0.00    +0.345 A 
ATOM     12  O   UNL     1       0.910   7.077  -0.212  0.00  0.00    -0.245 OA
ATOM     13  O   UNL     1       3.618   3.342   0.092  0.00  0.00    -0.439 OA
ATOM     14  C   UNL     1       4.714   4.015  -0.320  0.00  0.00    +0.211 C 
ATOM     15  C   UNL     1       4.725   5.332  -0.438  0.00  0.00    +0.172 C 
ENDROOT
BRANCH   1  19
ATOM     16  C   UNL     1       4.058   8.056   3.675  0.00  0.00    +0.121 A 
ATOM     17  C   UNL     1       3.877   8.824   2.534  0.00  0.00    +0.046 A 
ATOM     18  C   UNL     1       3.701   8.208   1.309  0.00  0.00    +0.008 A 
ATOM     19  C   UNL     1       3.705   6.828   1.221  0.00  0.00    -0.033 A 
ATOM     20  C   UNL     1       3.879   6.061   2.358  0.00  0.00    +0.008 A 
ATOM     21  C   UNL     1       4.061   6.672   3.584  0.00  0.00    +0.046 A 
BRANCH  16  22
ATOM     22  O   UNL     1       4.231   8.659   4.880  0.00  0.00    -0.492 OA
BRANCH  22  24
ATOM     23  C   UNL     1       4.588   8.659   7.271  0.00  0.00    +0.048 C 
ATOM     24  C   UNL     1       4.411   7.806   6.013  0.00  0.00    +0.225 C 
ENDBRANCH  22  24
ENDBRANCH  16  22
ENDBRANCH   1  19
BRANCH  15  25
ATOM     25  N   UNL     1       5.960   6.006  -0.896  0.00  0.00    +0.058 N 
ATOM     26  O   UNL     1       6.154   6.179  -2.086  0.00  0.00    -0.126 OA
ATOM     27  O   UNL     1       6.783   6.389  -0.084  0.00  0.00    -0.126 OA
ENDBRANCH  15  25
BRANCH  14  28
ATOM     28  N   UNL     1       5.865   3.302  -0.630  0.00  0.00    -0.328 N 
ATOM     29  H   UNL     1       6.687   3.774  -0.838  0.00  0.00    +0.145 HD
ATOM     30  H   UNL     1       5.847   2.332  -0.639  0.00  0.00    +0.145 HD
ENDBRANCH  14  28
TORSDOF 5
