REMARK  Name = ZINC27319257
REMARK  5 active torsions:
REMARK  status: ('A' for Active; 'I' for Inactive)
REMARK    1  A    between atoms: C_6  and  N_7
REMARK    2  A    between atoms: N_7  and  C_8
REMARK    3  A    between atoms: N_17  and  C_18
REMARK    4  A    between atoms: C_22  and  C_25
REMARK    5  A    between atoms: C_25  and  O_26
REMARK                            x       y       z     vdW  Elec       q    Type
REMARK                         _______ _______ _______ _____ _____    ______ ____
ROOT
ATOM      1  C   UNL     1       4.906   0.423   1.659  0.00  0.00    +0.045 A 
ATOM      2  C   UNL     1       3.784  -0.349   1.899  0.00  0.00    +0.115 A 
ATOM      3  N   UNL     1       2.609  -0.029   1.397  0.00  0.00    -0.236 NA
ATOM      4  C   UNL     1       2.444   1.046   0.637  0.00  0.00    +0.164 A 
ATOM      5  C   UNL     1       3.533   1.880   0.342  0.00  0.00    +0.129 A 
ATOM      6  C   UNL     1       4.798   1.558   0.863  0.00  0.00    +0.058 A 
ATOM      7  N   UNL     1       3.067   2.887  -0.439  0.00  0.00    -0.232 NA
ATOM      8  C   UNL     1       1.792   2.725  -0.641  0.00  0.00    +0.203 A 
ATOM      9  N   UNL     1       1.358   1.603  -0.002  0.00  0.00    -0.288 N 
ENDROOT
BRANCH   9  10
ATOM     10  C   UNL     1      -0.013   1.086   0.008  0.00  0.00    +0.222 C 
ATOM     11  C   UNL     1      -0.754   1.593   1.260  0.00  0.00    +0.057 C 
ATOM     12  C   UNL     1      -1.975   2.358   0.694  0.00  0.00    +0.038 C 
ATOM     13  C   UNL     1      -2.102   1.760  -0.730  0.00  0.00    +0.146 C 
ATOM     14  O   UNL     1      -0.727   1.571  -1.141  0.00  0.00    -0.351 OA
BRANCH  13  15
ATOM     15  C   UNL     1      -2.813   2.740  -1.665  0.00  0.00    +0.187 C 
BRANCH  15  16
ATOM     16  O   UNL     1      -3.020   2.121  -2.937  0.00  0.00    -0.392 OA
ATOM     17  H   UNL     1      -3.520   2.675  -3.744  0.00  0.00    +0.210 HD
ENDBRANCH  15  16
ENDBRANCH  13  15
ENDBRANCH   9  10
BRANCH   6  18
ATOM     18  N   UNL     1       5.905   2.358   0.602  0.00  0.00    -0.339 N 
ATOM     19  H   UNL     1       5.798   3.258  -0.021  0.00  0.00    +0.146 HD
BRANCH  18  20
ATOM     20  C   UNL     1       7.213   2.002   1.156  0.00  0.00    +0.070 C 
ATOM     21  C   UNL     1       7.291   2.502   2.613  0.00  0.00    +0.022 C 
ATOM     22  C   UNL     1       8.364   1.726   3.329  0.00  0.00    +0.002 C 
ATOM     23  C   UNL     1       9.725   2.447   3.310  0.00  0.00    +0.000 C 
ATOM     24  C   UNL     1      10.045   3.085   1.944  0.00  0.00    +0.000 C 
ATOM     25  C   UNL     1       9.670   2.194   0.791  0.00  0.00    +0.002 C 
ATOM     26  C   UNL     1       8.254   2.576   0.316  0.00  0.00    +0.022 C 
ENDBRANCH  18  20
ENDBRANCH   6  18
TORSDOF 5
