REMARK  Name = ZINC11610306
REMARK  7 active torsions:
REMARK  status: ('A' for Active; 'I' for Inactive)
REMARK    1  A    between atoms: C_1  and  C_2
REMARK    2  A    between atoms: C_5  and  C_8
REMARK    3  A    between atoms: C_8  and  C_31
REMARK    4  A    between atoms: N_11  and  C_15
REMARK    5  A    between atoms: C_15  and  C_16
REMARK    6  A    between atoms: N_21  and  C_22
REMARK    7  A    between atoms: C_28  and  C_30
REMARK                            x       y       z     vdW  Elec       q    Type
REMARK                         _______ _______ _______ _____ _____    ______ ____
ROOT
ATOM      1  C   UNL     1      10.196  -0.532   2.695  0.00  0.00    +0.135 C 
ATOM      2  C   UNL     1       9.778   0.329   1.519  0.00  0.00    +0.251 C 
ATOM      3  O   UNL     1      10.042   1.498   1.337  0.00  0.00    -0.272 OA
ATOM      4  N   UNL     1       9.052  -0.476   0.719  0.00  0.00    -0.218 N 
ATOM      5  C   UNL     1       8.960  -1.714   1.217  0.00  0.00    +0.310 C 
ATOM      6  O   UNL     1       8.358  -2.619   0.672  0.00  0.00    -0.252 OA
ATOM      7  N   UNL     1       9.607  -1.847   2.389  0.00  0.00    -0.281 N 
ATOM      8  C   UNL     1      11.721  -0.630   2.774  0.00  0.00    +0.047 C 
ATOM      9  H   UNL     1       9.674  -2.651   2.927  0.00  0.00    +0.152 HD
ENDROOT
BRANCH   1  14
ATOM     10  C   UNL     1       8.042   1.560   7.633  0.00  0.00    +0.044 C 
ATOM     11  C   UNL     1       8.604   1.014   6.345  0.00  0.00    -0.050 A 
ATOM     12  C   UNL     1       8.741  -0.350   6.174  0.00  0.00    +0.004 A 
ATOM     13  C   UNL     1       9.256  -0.851   4.993  0.00  0.00    +0.006 A 
ATOM     14  C   UNL     1       9.634   0.014   3.983  0.00  0.00    -0.015 A 
ATOM     15  C   UNL     1       9.502   1.379   4.156  0.00  0.00    +0.006 A 
ATOM     16  C   UNL     1       8.983   1.879   5.335  0.00  0.00    +0.004 A 
ENDBRANCH   1  14
BRANCH   4  17
ATOM     17  C   UNL     1       8.443  -0.050  -0.543  0.00  0.00    +0.174 C 
BRANCH  17  18
ATOM     18  C   UNL     1       7.051   0.465  -0.281  0.00  0.00    +0.068 A 
ATOM     19  C   UNL     1       6.823   1.789  -0.103  0.00  0.00    +0.073 A 
ATOM     20  S   UNL     1       5.054   1.790   0.152  0.00  0.00    -0.060 S 
ATOM     21  C   UNL     1       4.805   0.077   0.010  0.00  0.00    +0.172 A 
ATOM     22  N   UNL     1       6.027  -0.363  -0.220  0.00  0.00    -0.228 NA
ATOM     23  N   UNL     1       3.619  -0.644   0.107  0.00  0.00    -0.219 N 
ATOM     24  C   UNL     1       3.647  -1.992   0.084  0.00  0.00    +0.223 C 
ATOM     25  O   UNL     1       4.709  -2.576   0.056  0.00  0.00    -0.275 OA
ATOM     26  C   UNL     1       2.358  -2.772   0.092  0.00  0.00    +0.110 C 
BRANCH  23  27
ATOM     27  C   UNL     1       2.397   0.029   0.229  0.00  0.00    +0.043 A 
ATOM     28  C   UNL     1       1.641   0.309  -0.901  0.00  0.00    +0.024 A 
ATOM     29  C   UNL     1       0.437   0.973  -0.778  0.00  0.00    +0.002 A 
ATOM     30  C   UNL     1      -0.017   1.359   0.470  0.00  0.00    +0.000 A 
ATOM     31  C   UNL     1       0.734   1.081   1.598  0.00  0.00    +0.002 A 
ATOM     32  C   UNL     1       1.939   0.418   1.481  0.00  0.00    +0.024 A 
ENDBRANCH  23  27
ENDBRANCH  17  18
ENDBRANCH   4  17
TORSDOF 4
