REMARK  Name = ZINC08727857
REMARK  2 active torsions:
REMARK  status: ('A' for Active; 'I' for Inactive)
REMARK    1  A    between atoms: C_13  and  C_15
REMARK    2  A    between atoms: C_15  and  N_16
REMARK                            x       y       z     vdW  Elec       q    Type
REMARK                         _______ _______ _______ _____ _____    ______ ____
ROOT
ATOM      1  C   UNL     1      -1.722   4.186   0.040  0.00  0.00    +0.213 C 
ENDROOT
BRANCH   1  12
ATOM      2  C   UNL     1      -0.696   7.138  -3.753  0.00  0.00    +0.000 C 
ATOM      3  C   UNL     1      -0.879   5.623  -3.636  0.00  0.00    +0.002 C 
ATOM      4  C   UNL     1      -2.334   5.267  -3.946  0.00  0.00    +0.023 C 
ATOM      5  C   UNL     1      -3.272   5.976  -2.974  0.00  0.00    +0.079 C 
ATOM      6  C   UNL     1      -3.069   7.488  -3.039  0.00  0.00    +0.010 C 
ATOM      7  C   UNL     1      -1.608   7.836  -2.743  0.00  0.00    +0.005 C 
ATOM      8  C   UNL     1      -3.958   8.152  -1.982  0.00  0.00    +0.007 C 
ATOM      9  C   UNL     1      -3.537   7.670  -0.592  0.00  0.00    +0.019 C 
ATOM     10  C   UNL     1      -3.726   6.154  -0.496  0.00  0.00    +0.108 C 
ATOM     11  N   UNL     1      -3.005   5.514  -1.607  0.00  0.00    -0.297 N 
ATOM     12  C   UNL     1      -2.115   4.529  -1.374  0.00  0.00    +0.234 C 
ATOM     13  O   UNL     1      -1.629   3.919  -2.303  0.00  0.00    -0.274 OA
ENDBRANCH   1  12
BRANCH   1  14
ATOM     14  N   UNL     1      -0.749   3.091   0.025  0.00  0.00    -0.215 N 
ATOM     15  C   UNL     1       0.589   3.265  -0.034  0.00  0.00    +0.247 C 
ATOM     16  O   UNL     1       1.192   4.316  -0.083  0.00  0.00    -0.273 OA
ATOM     17  C   UNL     1       1.171   1.875  -0.026  0.00  0.00    +0.113 C 
ATOM     18  C   UNL     1       1.992   1.615  -1.296  0.00  0.00    +0.035 C 
ATOM     19  C   UNL     1       3.458   1.852  -0.850  0.00  0.00    +0.003 C 
ATOM     20  C   UNL     1       3.478   1.279   0.589  0.00  0.00    +0.003 C 
ATOM     21  C   UNL     1       2.101   1.670   1.172  0.00  0.00    +0.035 C 
ATOM     22  N   UNL     1       0.007   0.990   0.042  0.00  0.00    -0.285 N 
ATOM     23  C   UNL     1      -1.076   1.793   0.062  0.00  0.00    +0.310 C 
ATOM     24  O   UNL     1      -2.220   1.385   0.112  0.00  0.00    -0.252 OA
ATOM     25  H   UNL     1       0.013   0.020   0.064  0.00  0.00    +0.151 HD
ENDBRANCH   1  14
TORSDOF 2
