REMARK  Name = ZINC08430390
REMARK  7 active torsions:
REMARK  status: ('A' for Active; 'I' for Inactive)
REMARK    1  A    between atoms: C_4  and  N_7
REMARK    2  A    between atoms: C_8  and  C_10
REMARK    3  A    between atoms: C_14  and  N_15
REMARK    4  A    between atoms: C_16  and  C_18
REMARK    5  A    between atoms: C_18  and  S_19
REMARK    6  A    between atoms: S_19  and  C_20
REMARK    7  A    between atoms: C_23  and  C_25
REMARK                            x       y       z     vdW  Elec       q    Type
REMARK                         _______ _______ _______ _____ _____    ______ ____
ROOT
ATOM      1  C   UNL     1       6.047  -0.680  -0.272  0.00  0.00    +0.069 A 
ATOM      2  C   UNL     1       6.578  -1.049  -1.573  0.00  0.00    -0.023 A 
ATOM      3  C   UNL     1       7.760  -1.702  -1.548  0.00  0.00    -0.004 A 
ATOM      4  S   UNL     1       8.163  -1.842   0.170  0.00  0.00    -0.077 S 
ATOM      5  C   UNL     1       6.786  -1.038   0.847  0.00  0.00    +0.084 A 
ATOM      6  C   UNL     1       8.543  -2.199  -2.725  0.00  0.00    +0.043 C 
ATOM      7  C   UNL     1       7.627  -2.181  -3.957  0.00  0.00    +0.005 C 
ATOM      8  C   UNL     1       6.916  -0.826  -4.024  0.00  0.00    +0.005 C 
ATOM      9  C   UNL     1       5.891  -0.721  -2.893  0.00  0.00    +0.037 C 
ENDROOT
BRANCH   1  11
ATOM     10  N   UNL     1       3.621  -0.650  -0.037  0.00  0.00    -0.281 N 
ATOM     11  C   UNL     1       4.775   0.038  -0.146  0.00  0.00    +0.251 C 
ATOM     12  O   UNL     1       4.761   1.255  -0.139  0.00  0.00    -0.270 OA
ATOM     13  H   UNL     1       3.637  -1.618   0.026  0.00  0.00    +0.155 HD
BRANCH  10  17
ATOM     14  C   UNL     1      -0.015   1.380   0.034  0.00  0.00    +0.000 A 
ATOM     15  C   UNL     1       1.100   1.942   0.626  0.00  0.00    +0.002 A 
ATOM     16  C   UNL     1       2.307   1.272   0.605  0.00  0.00    +0.023 A 
ATOM     17  C   UNL     1       2.400   0.032  -0.013  0.00  0.00    +0.034 A 
ATOM     18  C   UNL     1       1.278  -0.530  -0.608  0.00  0.00    +0.023 A 
ATOM     19  C   UNL     1       0.073   0.145  -0.582  0.00  0.00    +0.002 A 
ENDBRANCH  10  17
ENDBRANCH   1  11
BRANCH   5  20
ATOM     20  N   UNL     1       6.493  -0.808   2.182  0.00  0.00    -0.279 N 
ATOM     21  C   UNL     1       7.339  -1.234   3.141  0.00  0.00    +0.228 C 
ATOM     22  O   UNL     1       8.357  -1.818   2.835  0.00  0.00    -0.275 OA
ATOM     23  H   UNL     1       5.679  -0.340   2.427  0.00  0.00    +0.155 HD
BRANCH  21  24
ATOM     24  C   UNL     1       7.021  -0.983   4.593  0.00  0.00    +0.175 C 
BRANCH  24  25
ATOM     25  S   UNL     1       8.339  -1.669   5.626  0.00  0.00    -0.056 S 
BRANCH  25  26
ATOM     26  C   UNL     1       7.726  -1.247   7.223  0.00  0.00    +0.278 A 
ATOM     27  N   UNL     1       6.611  -0.604   7.482  0.00  0.00    -0.101 NA
ATOM     28  N   UNL     1       6.478  -0.472   8.755  0.00  0.00    -0.103 NA
ATOM     29  C   UNL     1       7.508  -1.018   9.361  0.00  0.00    +0.284 A 
ATOM     30  O   UNL     1       8.319  -1.520   8.402  0.00  0.00    -0.408 OA
BRANCH  29  31
ATOM     31  C   UNL     1       7.736  -1.073  10.811  0.00  0.00    +0.191 A 
ATOM     32  C   UNL     1       6.912  -0.564  11.771  0.00  0.00    +0.055 A 
ATOM     33  C   UNL     1       7.517  -0.841  13.012  0.00  0.00    +0.042 A 
ATOM     34  C   UNL     1       8.666  -1.498  12.755  0.00  0.00    +0.196 A 
ATOM     35  O   UNL     1       8.793  -1.641  11.425  0.00  0.00    -0.458 OA
ENDBRANCH  29  31
ENDBRANCH  25  26
ENDBRANCH  24  25
ENDBRANCH  21  24
ENDBRANCH   5  20
TORSDOF 7
