REMARK  Name = ZINC49114484
REMARK  13 active torsions:
REMARK  status: ('A' for Active; 'I' for Inactive)
REMARK    1  A    between atoms: C_1  and  C_2
REMARK    2  A    between atoms: C_2  and  C_4
REMARK    3  A    between atoms: C_2  and  CA_12
REMARK    4  A    between atoms: C_4  and  C_5
REMARK    5  A    between atoms: C_8  and  O_11
REMARK    6  A    between atoms: CA_12  and  C_14
REMARK    7  A    between atoms: CA_12  and  N_42
REMARK    8  A    between atoms: N_16  and  CA_17
REMARK    9  A    between atoms: CA_17  and  C_19
REMARK   10  A    between atoms: CA_17  and  C_39
REMARK   11  A    between atoms: C_21  and  O_38
REMARK   12  A    between atoms: C_23  and  O_37
REMARK   13  A    between atoms: C_25  and  N_28
REMARK                            x       y       z     vdW  Elec       q    Type
REMARK                         _______ _______ _______ _____ _____    ______ ____
ROOT
ATOM      1  CA  UNL     1      -3.369   1.703  -2.417  0.00  0.00    +0.218 C 
ENDROOT
BRANCH   1   2
ATOM      2  C   UNL     1      -4.334   2.820  -2.014  0.00  0.00    +0.183 C 
ATOM      3  C   UNL     1      -5.169   3.256  -3.234  0.00  0.00    +0.178 C 
ATOM      4  C   UNL     1      -4.858   4.766  -3.385  0.00  0.00    +0.195 C 
ATOM      5  C   UNL     1      -4.345   5.135  -1.970  0.00  0.00    +0.255 C 
ATOM      6  O   UNL     1      -3.594   3.967  -1.566  0.00  0.00    -0.345 OA
BRANCH   5   7
ATOM      7  N   UNL     1      -3.479   6.315  -2.027  0.00  0.00    -0.271 N 
ATOM      8  C   UNL     1      -2.290   6.252  -2.701  0.00  0.00    +0.098 A 
ATOM      9  C   UNL     1      -1.492   7.340  -2.754  0.00  0.00    +0.088 A 
ATOM     10  C   UNL     1      -1.906   8.529  -2.108  0.00  0.00    +0.254 A 
ATOM     11  O   UNL     1      -1.204   9.524  -2.142  0.00  0.00    -0.268 OA
ATOM     12  N   UNL     1      -3.085   8.551  -1.454  0.00  0.00    -0.275 N 
ATOM     13  H   UNL     1      -3.375   9.363  -1.009  0.00  0.00    +0.173 HD
ATOM     14  C   UNL     1      -3.863   7.454  -1.421  0.00  0.00    +0.331 A 
ATOM     15  O   UNL     1      -4.926   7.490  -0.832  0.00  0.00    -0.246 OA
ENDBRANCH   5   7
BRANCH   4  16
ATOM     16  O   UNL     1      -6.041   5.500  -3.706  0.00  0.00    -0.385 OA
ATOM     17  H   UNL     1      -6.450   5.239  -4.543  0.00  0.00    +0.210 HD
ENDBRANCH   4  16
BRANCH   3  18
ATOM     18  O   UNL     1      -6.561   3.052  -2.986  0.00  0.00    -0.386 OA
ATOM     19  H   UNL     1      -7.133   3.310  -3.721  0.00  0.00    +0.210 HD
ENDBRANCH   3  18
ENDBRANCH   1   2
BRANCH   1  22
ATOM     20  C   UNL     1      -2.162  -0.034  -1.208  0.00  0.00    +0.199 C 
ATOM     21  O   UNL     1      -2.301  -0.759  -2.170  0.00  0.00    -0.278 OA
ATOM     22  N   UNL     1      -2.660   1.218  -1.230  0.00  0.00    -0.302 N 
ATOM     23  H   UNL     1      -2.549   1.798  -0.461  0.00  0.00    +0.150 HD
BRANCH  20  24
ATOM     24  CA  UNL     1      -1.433  -0.534   0.013  0.00  0.00    +0.016 C 
BRANCH  24  25
ATOM     25  N   UNL     1      -1.413  -2.002   0.005  0.00  0.00    +0.386 N 
ATOM     26  H1  UNL     1      -0.925  -2.337   0.822  0.00  0.00    -0.089 HD
ATOM     27  H2  UNL     1      -2.360  -2.352   0.012  0.00  0.00    -0.089 HD
ATOM     28  H3  UNL     1      -0.941  -2.328  -0.825  0.00  0.00    -0.089 HD
ENDBRANCH  24  25
BRANCH  24  30
ATOM     29  C   UNL     1      -0.019   1.526   0.010  0.00  0.00    +0.006 C 
ATOM     30  C   UNL     1       0.002  -0.004   0.002  0.00  0.00    -0.014 C 
BRANCH  30  31
ATOM     31  C   UNL     1       0.742  -0.511   1.242  0.00  0.00    +0.055 C 
BRANCH  31  32
ATOM     32  C   UNL     1       2.188  -0.092   1.170  0.00  0.00    +0.016 A 
ATOM     33  C   UNL     1       3.089  -0.870   0.466  0.00  0.00    +0.025 A 
ATOM     34  C   UNL     1       4.416  -0.478   0.404  0.00  0.00    +0.048 A 
ATOM     35  C   UNL     1       4.792   0.691   1.058  0.00  0.00    +0.133 A 
ATOM     36  C   UNL     1       3.830   1.418   1.744  0.00  0.00    +0.128 A 
ATOM     37  N   UNL     1       2.576   1.014   1.774  0.00  0.00    -0.361 N 
ATOM     38  H   UNL     1       1.921   1.542   2.257  0.00  0.00    +0.165 HD
BRANCH  35  39
ATOM     39  O   UNL     1       6.083   1.114   1.026  0.00  0.00    -0.505 OA
ATOM     40  H   UNL     1       6.286   1.701   0.285  0.00  0.00    +0.292 HD
ENDBRANCH  35  39
ENDBRANCH  31  32
ENDBRANCH  30  31
ENDBRANCH  24  30
ENDBRANCH  20  24
ENDBRANCH   1  22
BRANCH   1  41
ATOM     41  C   UNL     1      -2.372   2.236  -3.414  0.00  0.00    +0.378 C 
ATOM     42  O   UNL     1      -2.614   2.180  -4.608  0.00  0.00    -0.244 OA
ATOM     43  OXT UNL     1      -1.324   2.724  -3.027  0.00  0.00    -0.244 OA
ENDBRANCH   1  41
TORSDOF 12
