REMARK  Name = ZINC13210937
REMARK  10 active torsions:
REMARK  status: ('A' for Active; 'I' for Inactive)
REMARK    1  A    between atoms: C_3  and  N_32
REMARK    2  A    between atoms: C_6  and  C_7
REMARK    3  A    between atoms: C_7  and  C_9
REMARK    4  A    between atoms: C_7  and  O_31
REMARK    5  A    between atoms: C_9  and  N_10
REMARK    6  A    between atoms: N_10  and  C_11
REMARK    7  A    between atoms: C_14  and  N_28
REMARK    8  A    between atoms: C_16  and  S_17
REMARK    9  A    between atoms: S_17  and  N_20
REMARK   10  A    between atoms: C_23  and  C_26
REMARK                            x       y       z     vdW  Elec       q    Type
REMARK                         _______ _______ _______ _____ _____    ______ ____
ROOT
ATOM      1  C   UNL     1       0.538  -0.288  -3.803  0.00  0.00    +0.054 A 
ATOM      2  C   UNL     1       1.716  -1.001  -3.988  0.00  0.00    +0.027 A 
ATOM      3  C   UNL     1       2.082  -1.410  -5.255  0.00  0.00    +0.034 A 
ATOM      4  C   UNL     1       1.276  -1.111  -6.339  0.00  0.00    +0.128 A 
ATOM      5  C   UNL     1       0.103  -0.402  -6.158  0.00  0.00    +0.063 A 
ATOM      6  C   UNL     1      -0.271   0.005  -4.893  0.00  0.00    +0.128 A 
ENDROOT
BRANCH   6   7
ATOM      7  S   UNL     1      -1.770   0.903  -4.662  0.00  0.00    +0.063 S 
ATOM      8  O   UNL     1      -1.453   2.018  -3.841  0.00  0.00    -0.153 OA
ATOM      9  O   UNL     1      -2.359   1.046  -5.948  0.00  0.00    -0.153 OA
BRANCH   7  10
ATOM     10  N   UNL     1      -2.787  -0.061  -3.780  0.00  0.00    -0.176 NA
ATOM     11  C   UNL     1      -3.599  -1.093  -4.438  0.00  0.00    +0.110 C 
ATOM     12  C   UNL     1      -5.064  -0.895  -4.051  0.00  0.00    +0.032 C 
ATOM     13  C   UNL     1      -5.187  -0.876  -2.525  0.00  0.00    +0.105 C 
ATOM     14  C   UNL     1      -4.375   0.291  -1.961  0.00  0.00    +0.032 C 
ATOM     15  C   UNL     1      -2.898   0.104  -2.324  0.00  0.00    +0.110 C 
BRANCH  13  16
ATOM     16  C   UNL     1      -6.635  -0.713  -2.141  0.00  0.00    +0.359 C 
ATOM     17  O   UNL     1      -6.981   0.240  -1.483  0.00  0.00    -0.246 OA
ATOM     18  O   UNL     1      -7.540  -1.625  -2.529  0.00  0.00    -0.246 OA
ENDBRANCH  13  16
ENDBRANCH   7  10
ENDBRANCH   6   7
BRANCH   4  19
ATOM     19  N   UNL     1       1.671  -1.552  -7.696  0.00  0.00    +0.056 N 
ATOM     20  O   UNL     1       2.704  -2.178  -7.857  0.00  0.00    -0.126 OA
ATOM     21  O   UNL     1       0.963  -1.290  -8.652  0.00  0.00    -0.126 OA
ENDBRANCH   4  19
BRANCH   1  22
ATOM     22  N   UNL     1       0.166   0.128  -2.522  0.00  0.00    -0.340 N 
ATOM     23  H   UNL     1      -0.612   0.695  -2.404  0.00  0.00    +0.146 HD
BRANCH  22  24
ATOM     24  C   UNL     1       0.949  -0.294  -1.359  0.00  0.00    +0.137 C 
BRANCH  24  25
ATOM     25  C   UNL     1       0.332   0.295  -0.088  0.00  0.00    +0.161 C 
BRANCH  25  31
ATOM     26  C   UNL     1       2.264   0.574   1.479  0.00  0.00    +0.008 A 
ATOM     27  C   UNL     1       3.001   0.179   2.580  0.00  0.00    +0.033 A 
ATOM     28  C   UNL     1       2.618  -0.934   3.305  0.00  0.00    +0.126 A 
ATOM     29  C   UNL     1       1.495  -1.649   2.932  0.00  0.00    +0.033 A 
ATOM     30  C   UNL     1       0.755  -1.251   1.834  0.00  0.00    +0.008 A 
ATOM     31  C   UNL     1       1.139  -0.138   1.109  0.00  0.00    -0.018 A 
BRANCH  28  32
ATOM     32  N   UNL     1       3.410  -1.360   4.481  0.00  0.00    +0.056 N 
ATOM     33  O   UNL     1       3.073  -2.340   5.119  0.00  0.00    -0.126 OA
ATOM     34  O   UNL     1       4.400  -0.730   4.809  0.00  0.00    -0.126 OA
ENDBRANCH  28  32
ENDBRANCH  25  31
BRANCH  25  35
ATOM     35  O   UNL     1       0.336   1.721  -0.174  0.00  0.00    -0.386 OA
ATOM     36  H   UNL     1       1.217   2.108  -0.268  0.00  0.00    +0.210 HD
ENDBRANCH  25  35
ENDBRANCH  24  25
ENDBRANCH  22  24
ENDBRANCH   1  22
TORSDOF 10
