REMARK  Name = ZINC09193874
REMARK  7 active torsions:
REMARK  status: ('A' for Active; 'I' for Inactive)
REMARK    1  A    between atoms: N_9  and  C_10
REMARK    2  A    between atoms: C_10  and  C_11
REMARK    3  A    between atoms: N_13  and  C_14
REMARK    4  A    between atoms: N_13  and  C_21
REMARK    5  A    between atoms: C_21  and  C_23
REMARK    6  A    between atoms: C_21  and  C_30
REMARK    7  A    between atoms: N_32  and  C_33
REMARK                            x       y       z     vdW  Elec       q    Type
REMARK                         _______ _______ _______ _____ _____    ______ ____
ROOT
ATOM      1  C   UNL     1      -4.060   2.686  -2.044  0.00  0.00    +0.242 C 
ATOM      2  O   UNL     1      -3.232   3.271  -2.710  0.00  0.00    -0.273 OA
ATOM      3  N   UNL     1      -5.371   2.830  -2.322  0.00  0.00    -0.254 N 
ENDROOT
BRANCH   3   4
ATOM      4  C   UNL     1      -6.332   2.247  -1.486  0.00  0.00    +0.038 A 
ATOM      5  C   UNL     1      -6.548   2.758  -0.214  0.00  0.00    +0.026 A 
ATOM      6  C   UNL     1      -7.500   2.186   0.607  0.00  0.00    +0.040 A 
ATOM      7  C   UNL     1      -8.230   1.095   0.166  0.00  0.00    +0.124 A 
ATOM      8  C   UNL     1      -8.011   0.579  -1.101  0.00  0.00    +0.040 A 
ATOM      9  C   UNL     1      -7.064   1.153  -1.927  0.00  0.00    +0.026 A 
ATOM     10  F   UNL     1      -9.157   0.532   0.972  0.00  0.00    -0.205 F 
ENDBRANCH   3   4
BRANCH   1  11
ATOM     11  C   UNL     1      -3.623   1.799  -0.907  0.00  0.00    +0.242 C 
BRANCH  11  20
ATOM     12  C   UNL     1       0.673  -0.743  -2.586  0.00  0.00    +0.002 A 
ATOM     13  C   UNL     1      -0.648  -1.047  -2.891  0.00  0.00    +0.002 A 
ATOM     14  C   UNL     1      -1.670  -0.294  -2.386  0.00  0.00    +0.029 A 
ATOM     15  C   UNL     1      -1.388   0.781  -1.550  0.00  0.00    +0.090 A 
ATOM     16  C   UNL     1      -0.054   1.095  -1.237  0.00  0.00    +0.113 A 
ATOM     17  C   UNL     1       0.976   0.309  -1.772  0.00  0.00    +0.032 A 
ATOM     18  N   UNL     1      -0.066   2.170  -0.424  0.00  0.00    -0.129 NA
ATOM     19  N   UNL     1      -1.275   2.551  -0.205  0.00  0.00    -0.064 NA
ATOM     20  N   UNL     1      -2.161   1.709  -0.892  0.00  0.00    -0.235 N 
ENDBRANCH  11  20
ENDBRANCH   1  11
BRANCH   3  21
ATOM     21  C   UNL     1      -5.792   3.596  -3.498  0.00  0.00    +0.198 C 
BRANCH  21  22
ATOM     22  C   UNL     1      -7.287   3.498  -3.653  0.00  0.00    -0.018 A 
ATOM     23  C   UNL     1      -8.117   3.938  -2.639  0.00  0.00    +0.009 A 
ATOM     24  C   UNL     1      -9.489   3.854  -2.782  0.00  0.00    +0.038 A 
ATOM     25  C   UNL     1     -10.032   3.317  -3.937  0.00  0.00    +0.123 A 
ATOM     26  C   UNL     1      -9.200   2.871  -4.950  0.00  0.00    +0.038 A 
ATOM     27  C   UNL     1      -7.828   2.962  -4.807  0.00  0.00    +0.009 A 
ATOM     28  F   UNL     1     -11.373   3.228  -4.076  0.00  0.00    -0.205 F 
ENDBRANCH  21  22
BRANCH  21  29
ATOM     29  C   UNL     1      -5.398   5.040  -3.324  0.00  0.00    +0.243 C 
ATOM     30  O   UNL     1      -4.823   5.395  -2.316  0.00  0.00    -0.273 OA
ATOM     31  N   UNL     1      -5.685   5.938  -4.287  0.00  0.00    -0.284 N 
ATOM     32  H   UNL     1      -6.202   5.668  -5.063  0.00  0.00    +0.155 HD
BRANCH  31  33
ATOM     33  C   UNL     1      -5.238   7.259  -4.169  0.00  0.00    +0.034 A 
ATOM     34  C   UNL     1      -5.184   7.866  -2.921  0.00  0.00    +0.026 A 
ATOM     35  C   UNL     1      -4.737   9.167  -2.805  0.00  0.00    +0.040 A 
ATOM     36  C   UNL     1      -4.353   9.871  -3.934  0.00  0.00    +0.124 A 
ATOM     37  C   UNL     1      -4.411   9.270  -5.181  0.00  0.00    +0.040 A 
ATOM     38  C   UNL     1      -4.852   7.966  -5.300  0.00  0.00    +0.026 A 
ATOM     39  F   UNL     1      -3.921  11.146  -3.820  0.00  0.00    -0.205 F 
ENDBRANCH  31  33
ENDBRANCH  21  29
ENDBRANCH   3  21
TORSDOF 7
