REMARK  Name = ZINC59170674
REMARK  5 active torsions:
REMARK  status: ('A' for Active; 'I' for Inactive)
REMARK    1  A    between atoms: C_6  and  N_7
REMARK    2  A    between atoms: C_8  and  C_10
REMARK    3  A    between atoms: N_20  and  C_21
REMARK    4  A    between atoms: C_24  and  S_27
REMARK    5  A    between atoms: S_27  and  N_30
REMARK                            x       y       z     vdW  Elec       q    Type
REMARK                         _______ _______ _______ _____ _____    ______ ____
ROOT
ATOM      1  C   UNL     1      -2.435  -2.788  -0.250  0.00  0.00    +0.098 A 
ATOM      2  C   UNL     1      -2.437  -4.177  -0.246  0.00  0.00    +0.030 A 
ATOM      3  C   UNL     1      -3.738  -4.848  -0.296  0.00  0.00    +0.021 A 
ATOM      4  C   UNL     1      -3.847  -6.218  -0.029  0.00  0.00    +0.031 A 
ATOM      5  C   UNL     1      -5.082  -6.825  -0.080  0.00  0.00    +0.043 A 
ATOM      6  C   UNL     1      -6.216  -6.087  -0.392  0.00  0.00    +0.043 A 
ATOM      7  C   UNL     1      -6.123  -4.735  -0.658  0.00  0.00    +0.085 A 
ATOM      8  C   UNL     1      -4.888  -4.103  -0.615  0.00  0.00    +0.156 A 
ATOM      9  O   UNL     1      -4.781  -2.778  -0.882  0.00  0.00    -0.437 OA
ATOM     10  C   UNL     1      -3.748  -2.114  -0.297  0.00  0.00    +0.212 A 
ATOM     11  N   UNL     1      -3.910  -0.910   0.206  0.00  0.00    -0.325 N 
ATOM     12 CL   UNL     1      -7.550  -3.826  -1.047  0.00  0.00    -0.080 Cl
ATOM     13 CL   UNL     1      -5.223  -8.524   0.249  0.00  0.00    -0.083 Cl
ATOM     14  H   UNL     1      -3.194  -0.494   0.711  0.00  0.00    +0.169 HD
ENDROOT
BRANCH  11  15
ATOM     15  C   UNL     1      -5.089  -0.243   0.017  0.00  0.00    +0.042 A 
ATOM     16  C   UNL     1      -5.691  -0.226  -1.244  0.00  0.00    +0.027 A 
ATOM     17  C   UNL     1      -6.880   0.449  -1.427  0.00  0.00    +0.030 A 
ATOM     18  C   UNL     1      -7.476   1.108  -0.367  0.00  0.00    +0.105 A 
ATOM     19  C   UNL     1      -6.886   1.096   0.884  0.00  0.00    +0.030 A 
ATOM     20  C   UNL     1      -5.700   0.420   1.084  0.00  0.00    +0.027 A 
BRANCH  18  21
ATOM     21  S   UNL     1      -8.995   1.968  -0.611  0.00  0.00    +0.056 S 
ATOM     22  O   UNL     1      -9.068   2.959   0.405  0.00  0.00    -0.153 OA
ATOM     23  O   UNL     1      -9.062   2.288  -1.994  0.00  0.00    -0.153 OA
BRANCH  21  24
ATOM     24  N   UNL     1     -10.219   0.893  -0.313  0.00  0.00    -0.204 NA
ATOM     25  H   UNL     1     -10.012  -0.019  -0.058  0.00  0.00    +0.144 HD
ATOM     26  H   UNL     1     -11.143   1.176  -0.395  0.00  0.00    +0.144 HD
ENDBRANCH  21  24
ENDBRANCH  18  21
ENDBRANCH  11  15
BRANCH   1  28
ATOM     27  N   UNL     1      -1.202  -0.681  -0.344  0.00  0.00    -0.281 N 
ATOM     28  C   UNL     1      -1.179  -2.021  -0.202  0.00  0.00    +0.253 C 
ATOM     29  O   UNL     1      -0.121  -2.597  -0.034  0.00  0.00    -0.270 OA
ATOM     30  H   UNL     1      -2.049  -0.216  -0.425  0.00  0.00    +0.155 HD
BRANCH  27  36
ATOM     31  C   UNL     1       0.113   1.163  -1.184  0.00  0.00    +0.026 A 
ATOM     32  C   UNL     1       1.297   1.873  -1.213  0.00  0.00    +0.040 A 
ATOM     33  C   UNL     1       2.369   1.466  -0.436  0.00  0.00    +0.124 A 
ATOM     34  C   UNL     1       2.256   0.347   0.371  0.00  0.00    +0.040 A 
ATOM     35  C   UNL     1       1.074  -0.366   0.403  0.00  0.00    +0.026 A 
ATOM     36  C   UNL     1      -0.003   0.040  -0.375  0.00  0.00    +0.034 A 
ATOM     37  F   UNL     1       3.526   2.162  -0.466  0.00  0.00    -0.205 F 
ENDBRANCH  27  36
ENDBRANCH   1  28
TORSDOF 5
