REMARK  Name = ZINC63409360
REMARK  16 active torsions:
REMARK  status: ('A' for Active; 'I' for Inactive)
REMARK    1  A    between atoms: C_1  and  C_2
REMARK    2  A    between atoms: C_2  and  C_3
REMARK    3  A    between atoms: C_2  and  C_4
REMARK    4  A    between atoms: C_2  and  C_5
REMARK    5  A    between atoms: C_7  and  C_16
REMARK    6  A    between atoms: C_9  and  C_12
REMARK    7  A    between atoms: C_10  and  O_11
REMARK    8  A    between atoms: C_12  and  C_13
REMARK    9  A    between atoms: C_12  and  C_14
REMARK   10  A    between atoms: C_12  and  C_15
REMARK   11  A    between atoms: N_17  and  N_18
REMARK   12  A    between atoms: C_19  and  C_21
REMARK   13  A    between atoms: C_24  and  C_27
REMARK   14  A    between atoms: C_27  and  C_28
REMARK   15  A    between atoms: C_27  and  C_29
REMARK   16  A    between atoms: C_27  and  C_30
REMARK                            x       y       z     vdW  Elec       q    Type
REMARK                         _______ _______ _______ _____ _____    ______ ____
ROOT
ATOM      1  C   UNL     1       0.741  -0.404  -1.203  0.00  0.00    +0.000 A 
ATOM      2  C   UNL     1       1.013   0.412  -2.280  0.00  0.00    +0.017 A 
ATOM      3  C   UNL     1       2.027   0.067  -3.176  0.00  0.00    -0.005 A 
ATOM      4  C   UNL     1       2.761  -1.105  -2.977  0.00  0.00    +0.017 A 
ATOM      5  C   UNL     1       2.482  -1.915  -1.898  0.00  0.00    +0.000 A 
ATOM      6  C   UNL     1       1.477  -1.565  -1.006  0.00  0.00    +0.124 A 
ENDROOT
BRANCH   1   8
ATOM      7  C   UNL     1      -1.003   1.280  -0.678  0.00  0.00    +0.015 C 
ATOM      8  C   UNL     1      -0.353  -0.033  -0.235  0.00  0.00    -0.009 C 
ATOM      9  C   UNL     1       0.240   0.139   1.164  0.00  0.00    +0.015 C 
ATOM     10  C   UNL     1      -1.409  -1.141  -0.209  0.00  0.00    +0.015 C 
ENDBRANCH   1   8
BRANCH   5  11
ATOM     11  C   UNL     1       3.273  -3.179  -1.681  0.00  0.00    -0.009 C 
ATOM     12  C   UNL     1       4.315  -3.326  -2.793  0.00  0.00    +0.015 C 
ATOM     13  C   UNL     1       3.980  -3.113  -0.326  0.00  0.00    +0.015 C 
ATOM     14  C   UNL     1       2.329  -4.383  -1.706  0.00  0.00    +0.015 C 
ENDBRANCH   5  11
BRANCH   6  15
ATOM     15  O   UNL     1       1.209  -2.364   0.060  0.00  0.00    -0.506 OA
ATOM     16  H   UNL     1       0.548  -3.047  -0.117  0.00  0.00    +0.292 HD
ENDBRANCH   6  15
BRANCH   3  17
ATOM     17  C   UNL     1       2.322   0.937  -4.330  0.00  0.00    +0.138 C 
ATOM     18  N   UNL     1       3.103   0.516  -5.277  0.00  0.00    -0.188 NA
BRANCH  18  19
ATOM     19  N   UNL     1       3.244  -0.858  -5.511  0.00  0.00    -0.205 N 
ATOM     20  C   UNL     1       4.043  -1.294  -6.505  0.00  0.00    +0.262 C 
ATOM     21  O   UNL     1       4.640  -0.497  -7.197  0.00  0.00    -0.271 OA
ATOM     22  H   UNL     1       2.767  -1.495  -4.957  0.00  0.00    +0.177 HD
BRANCH  20  23
ATOM     23  C   UNL     1       4.194  -2.772  -6.756  0.00  0.00    +0.240 C 
ATOM     24  C   UNL     1       5.219  -3.376  -5.812  0.00  0.00    +0.036 C 
ATOM     25  C   UNL     1       6.169  -3.843  -6.625  0.00  0.00    +0.067 C 
ATOM     26  N   UNL     1       5.855  -3.604  -7.917  0.00  0.00    -0.158 NA
ATOM     27  N   UNL     1       4.778  -3.017  -8.086  0.00  0.00    -0.170 NA
BRANCH  25  28
ATOM     28  C   UNL     1       7.421  -4.543  -6.164  0.00  0.00    +0.006 C 
ATOM     29  C   UNL     1       7.425  -4.628  -4.636  0.00  0.00    +0.017 C 
ATOM     30  C   UNL     1       7.463  -5.954  -6.753  0.00  0.00    +0.017 C 
ATOM     31  C   UNL     1       8.647  -3.757  -6.634  0.00  0.00    +0.017 C 
ENDBRANCH  25  28
ENDBRANCH  20  23
ENDBRANCH  18  19
ENDBRANCH   3  17
TORSDOF 7
