REMARK  Name = ZINC08833232
REMARK  7 active torsions:
REMARK  status: ('A' for Active; 'I' for Inactive)
REMARK    1  A    between atoms: C_1  and  O_2
REMARK    2  A    between atoms: O_2  and  C_3
REMARK    3  A    between atoms: C_4  and  C_14
REMARK    4  A    between atoms: N_16  and  C_17
REMARK    5  A    between atoms: C_17  and  N_19
REMARK    6  A    between atoms: N_19  and  C_20
REMARK    7  A    between atoms: C_22  and  N_27
REMARK                            x       y       z     vdW  Elec       q    Type
REMARK                         _______ _______ _______ _____ _____    ______ ____
ROOT
ATOM      1  C   UNL     1       3.459   6.202   0.306  0.00  0.00    +0.253 C 
ATOM      2  O   UNL     1       4.520   5.608   0.294  0.00  0.00    -0.270 OA
ATOM      3  N   UNL     1       2.302   5.517   0.212  0.00  0.00    -0.263 N 
ATOM      4  H   UNL     1       1.456   5.990   0.222  0.00  0.00    +0.157 HD
ENDROOT
BRANCH   1   6
ATOM      5  C   UNL     1       4.651   8.384   0.530  0.00  0.00    +0.147 A 
ATOM      6  C   UNL     1       3.438   7.672   0.425  0.00  0.00    +0.080 A 
ATOM      7  C   UNL     1       2.226   8.344   0.439  0.00  0.00    +0.025 A 
ATOM      8  C   UNL     1       2.212   9.742   0.553  0.00  0.00    -0.016 A 
ATOM      9  C   UNL     1       0.999  10.456   0.571  0.00  0.00    +0.008 A 
ATOM     10  C   UNL     1       1.018  11.812   0.682  0.00  0.00    +0.001 A 
ATOM     11  C   UNL     1       2.222  12.507   0.780  0.00  0.00    +0.001 A 
ATOM     12  C   UNL     1       3.414  11.850   0.766  0.00  0.00    +0.010 A 
ATOM     13  C   UNL     1       3.437  10.450   0.652  0.00  0.00    -0.000 A 
ATOM     14  C   UNL     1       4.653   9.745   0.635  0.00  0.00    +0.068 A 
ATOM     15 BR   UNL     1       6.291  10.681   0.767  0.00  0.00    -0.046 Br
BRANCH   5  17
ATOM     16  C   UNL     1       6.441   7.491  -0.754  0.00  0.00    +0.277 C 
ATOM     17  O   UNL     1       5.829   7.710   0.519  0.00  0.00    -0.493 OA
ENDBRANCH   5  17
ENDBRANCH   1   6
BRANCH   3  18
ATOM     18  C   UNL     1       2.322   4.173   0.104  0.00  0.00    +0.141 C 
ATOM     19  S   UNL     1       3.816   3.337   0.086  0.00  0.00    -0.018 S 
BRANCH  18  20
ATOM     20  N   UNL     1       1.165   3.488   0.009  0.00  0.00    -0.294 N 
ATOM     21  H   UNL     1       0.323   3.965  -0.060  0.00  0.00    +0.154 HD
BRANCH  20  22
ATOM     22  C   UNL     1       1.179   2.088   0.012  0.00  0.00    +0.070 A 
ATOM     23  C   UNL     1       1.974   1.402   0.919  0.00  0.00    +0.059 A 
ATOM     24  C   UNL     1       1.986   0.020   0.919  0.00  0.00    +0.128 A 
ATOM     25  C   UNL     1       1.206  -0.680   0.017  0.00  0.00    +0.035 A 
ATOM     26  C   UNL     1       0.412  -0.001  -0.889  0.00  0.00    +0.042 A 
ATOM     27  C   UNL     1       0.396   1.382  -0.895  0.00  0.00    +0.145 A 
ATOM     28  F   UNL     1      -0.376   2.046  -1.783  0.00  0.00    -0.204 F 
BRANCH  24  29
ATOM     29  N   UNL     1       2.835  -0.711   1.886  0.00  0.00    +0.056 N 
ATOM     30  O   UNL     1       2.846  -1.929   1.887  0.00  0.00    -0.126 OA
ATOM     31  O   UNL     1       3.522  -0.096   2.681  0.00  0.00    -0.126 OA
ENDBRANCH  24  29
ENDBRANCH  20  22
ENDBRANCH  18  20
ENDBRANCH   3  18
TORSDOF 6
