REMARK  Name = ZINC41092557
REMARK  3 active torsions:
REMARK  status: ('A' for Active; 'I' for Inactive)
REMARK    1  A    between atoms: C_4  and  N_18
REMARK    2  A    between atoms: C_5  and  N_7
REMARK    3  A    between atoms: N_7  and  C_8
REMARK                            x       y       z     vdW  Elec       q    Type
REMARK                         _______ _______ _______ _____ _____    ______ ____
ROOT
ATOM      1  C   UNL     1      -0.058   1.296   0.028  0.00  0.00    +0.002 A 
ATOM      2  C   UNL     1       1.071   2.077  -0.141  0.00  0.00    +0.002 A 
ATOM      3  C   UNL     1       2.322   1.493  -0.175  0.00  0.00    +0.030 A 
ATOM      4  C   UNL     1       2.450   0.119  -0.040  0.00  0.00    +0.090 A 
ATOM      5  C   UNL     1       1.313  -0.669   0.131  0.00  0.00    +0.053 A 
ATOM      6  C   UNL     1       0.059  -0.074   0.164  0.00  0.00    +0.025 A 
ENDROOT
BRANCH   4   7
ATOM      7  N   UNL     1       3.720  -0.477  -0.074  0.00  0.00    -0.198 N 
ATOM      8  C   UNL     1       4.826  -0.090   0.597  0.00  0.00    +0.250 A 
ATOM      9  N   UNL     1       5.785  -0.919   0.277  0.00  0.00    -0.116 NA
ATOM     10  N   UNL     1       5.361  -1.804  -0.552  0.00  0.00    -0.023 NA
ATOM     11  N   UNL     1       4.113  -1.608  -0.811  0.00  0.00    -0.039 NA
ENDBRANCH   4   7
BRANCH   5  12
ATOM     12  N   UNL     1       1.434  -2.055   0.268  0.00  0.00    -0.339 N 
ATOM     13  H   UNL     1       2.313  -2.461   0.328  0.00  0.00    +0.146 HD
BRANCH  12  14
ATOM     14  C   UNL     1       0.234  -2.894   0.321  0.00  0.00    +0.074 C 
ATOM     15  C   UNL     1      -0.269  -3.022   1.777  0.00  0.00    +0.026 C 
ATOM     16  C   UNL     1      -0.188  -4.548   2.089  0.00  0.00    -0.009 C 
ATOM     17  C   UNL     1      -1.332  -5.181   1.240  0.00  0.00    +0.004 C 
ATOM     18  C   UNL     1      -0.848  -5.055  -0.223  0.00  0.00    +0.005 C 
ATOM     19  C   UNL     1       0.571  -4.353  -0.112  0.00  0.00    +0.009 C 
ATOM     20  C   UNL     1       1.078  -4.948   1.252  0.00  0.00    +0.009 C 
ENDBRANCH  12  14
ENDBRANCH   5  12
TORSDOF 3
