REMARK  Name = ZINC38814016
REMARK  3 active torsions:
REMARK  status: ('A' for Active; 'I' for Inactive)
REMARK    1  A    between atoms: C_6  and  C_7
REMARK    2  A    between atoms: N_8  and  N_9
REMARK    3  A    between atoms: C_10  and  C_12
REMARK                            x       y       z     vdW  Elec       q    Type
REMARK                         _______ _______ _______ _____ _____    ______ ____
ROOT
ATOM      1  N   UNL     1      -2.444  -2.779   0.011  0.00  0.00    -0.205 N 
ATOM      2  C   UNL     1      -2.422  -4.127   0.004  0.00  0.00    +0.263 C 
ATOM      3  O   UNL     1      -1.362  -4.716  -0.010  0.00  0.00    -0.271 OA
ATOM      4  H   UNL     1      -3.292  -2.308   0.022  0.00  0.00    +0.177 HD
ENDROOT
BRANCH   2   5
ATOM      5  C   UNL     1      -3.715  -4.901   0.013  0.00  0.00    +0.243 C 
ATOM      6  C   UNL     1      -4.281  -5.013  -1.380  0.00  0.00    -0.012 C 
ATOM      7  C   UNL     1      -4.307  -6.325  -1.636  0.00  0.00    +0.065 C 
ATOM      8  C   UNL     1      -4.811  -6.898  -2.942  0.00  0.00    +0.057 C 
ATOM      9  C   UNL     1      -5.639  -5.825  -3.658  0.00  0.00    +0.006 C 
ATOM     10  C   UNL     1      -4.844  -4.518  -3.724  0.00  0.00    +0.005 C 
ATOM     11  C   UNL     1      -4.729  -3.926  -2.312  0.00  0.00    +0.035 C 
ATOM     12  N   UNL     1      -3.829  -7.013  -0.577  0.00  0.00    -0.158 NA
ATOM     13  N   UNL     1      -3.479  -6.310   0.383  0.00  0.00    -0.170 NA
ENDBRANCH   2   5
BRANCH   1  15
ATOM     14  C   UNL     1      -1.263  -0.762   0.011  0.00  0.00    +0.138 C 
ATOM     15  N   UNL     1      -1.242  -2.059   0.003  0.00  0.00    -0.188 NA
BRANCH  14  21
ATOM     16  C   UNL     1      -0.017   1.393   0.010  0.00  0.00    +0.011 A 
ATOM     17  C   UNL     1       1.170   2.095   0.002  0.00  0.00    +0.020 A 
ATOM     18  C   UNL     1       2.378   1.419  -0.013  0.00  0.00    +0.041 A 
ATOM     19  C   UNL     1       2.404   0.035  -0.021  0.00  0.00    +0.020 A 
ATOM     20  C   UNL     1       1.225  -0.680  -0.013  0.00  0.00    +0.011 A 
ATOM     21  C   UNL     1       0.002  -0.004   0.002  0.00  0.00    -0.005 A 
ATOM     22 CL   UNL     1       3.868   2.311  -0.024  0.00  0.00    -0.084 Cl
ENDBRANCH  14  21
ENDBRANCH   1  15
TORSDOF 3
