REMARK  Name = ZINC39427245
REMARK  4 active torsions:
REMARK  status: ('A' for Active; 'I' for Inactive)
REMARK    1  A    between atoms: C_8  and  C_13
REMARK    2  A    between atoms: C_13  and  C_14
REMARK    3  A    between atoms: N_16  and  C_17
REMARK    4  A    between atoms: C_18  and  C_28
REMARK                            x       y       z     vdW  Elec       q    Type
REMARK                         _______ _______ _______ _____ _____    ______ ____
ROOT
ATOM      1  C   UNL     1       1.098  -3.626   2.452  0.00  0.00    +0.220 C 
ATOM      2  O   UNL     1       0.438  -4.162   1.587  0.00  0.00    -0.275 OA
ATOM      3  N   UNL     1       0.774  -3.796   3.750  0.00  0.00    -0.279 N 
ATOM      4  H   UNL     1       1.302  -3.367   4.441  0.00  0.00    +0.155 HD
ENDROOT
BRANCH   3   5
ATOM      5  C   UNL     1      -0.314  -4.585   4.096  0.00  0.00    +0.090 A 
ATOM      6  C   UNL     1      -0.793  -4.865   5.358  0.00  0.00    +0.084 A 
ATOM      7  C   UNL     1      -1.967  -5.737   5.473  0.00  0.00    -0.018 A 
ATOM      8  C   UNL     1      -2.409  -6.176   4.280  0.00  0.00    -0.004 A 
ATOM      9  S   UNL     1      -1.356  -5.412   3.075  0.00  0.00    -0.077 S 
ATOM     10  C   UNL     1      -3.516  -7.153   3.999  0.00  0.00    +0.043 C 
ATOM     11  C   UNL     1      -2.956  -8.563   4.260  0.00  0.00    +0.005 C 
ATOM     12  C   UNL     1      -2.371  -8.591   5.676  0.00  0.00    +0.000 C 
ATOM     13  C   UNL     1      -3.534  -8.312   6.605  0.00  0.00    +0.000 C 
ATOM     14  C   UNL     1      -3.843  -6.835   6.774  0.00  0.00    +0.005 C 
ATOM     15  C   UNL     1      -2.577  -5.990   6.848  0.00  0.00    +0.037 C 
BRANCH   6  16
ATOM     16  C   UNL     1      -0.163  -4.321   6.523  0.00  0.00    +0.102 C 
ATOM     17  N   UNL     1       0.338  -3.889   7.447  0.00  0.00    -0.191 NA
ENDBRANCH   6  16
ENDBRANCH   3   5
BRANCH   1  18
ATOM     18  C   UNL     1       2.280  -2.769   2.077  0.00  0.00    +0.127 C 
BRANCH  18  26
ATOM     19  C   UNL     1      -0.017   1.379   0.010  0.00  0.00    +0.002 A 
ATOM     20  C   UNL     1       1.169   2.090   0.002  0.00  0.00    +0.002 A 
ATOM     21  C   UNL     1       2.382   1.426  -0.009  0.00  0.00    +0.025 A 
ATOM     22  C   UNL     1       2.411   0.041  -0.008  0.00  0.00    +0.055 A 
ATOM     23  C   UNL     1       1.212  -0.675  -0.011  0.00  0.00    +0.049 A 
ATOM     24  C   UNL     1       0.002  -0.004   0.002  0.00  0.00    +0.025 A 
ATOM     25  N   UNL     1       1.259  -2.076  -0.041  0.00  0.00    -0.331 N 
ATOM     26  C   UNL     1       2.426  -2.742   0.554  0.00  0.00    +0.166 C 
ATOM     27  C   UNL     1       3.671  -1.979   0.178  0.00  0.00    +0.238 C 
ATOM     28  O   UNL     1       4.722  -2.571   0.050  0.00  0.00    -0.273 OA
ATOM     29  N   UNL     1       3.629  -0.648  -0.016  0.00  0.00    -0.282 N 
ATOM     30  H   UNL     1       0.542  -2.590  -0.443  0.00  0.00    +0.147 HD
ATOM     31  H   UNL     1       4.454  -0.160  -0.164  0.00  0.00    +0.155 HD
ENDBRANCH  18  26
ENDBRANCH   1  18
TORSDOF 4
