REMARK  Name = ZINC20106533
REMARK  14 active torsions:
REMARK  status: ('A' for Active; 'I' for Inactive)
REMARK    1  A    between atoms: C_1  and  C_2
REMARK    2  A    between atoms: C_2  and  O_3
REMARK    3  A    between atoms: O_3  and  C_4
REMARK    4  A    between atoms: C_7  and  N_10
REMARK    5  A    between atoms: C_11  and  C_13
REMARK    6  A    between atoms: N_24  and  C_36
REMARK    7  A    between atoms: C_25  and  C_27
REMARK    8  A    between atoms: N_29  and  C_30
REMARK    9  A    between atoms: C_36  and  C_37
REMARK   10  A    between atoms: C_37  and  C_38
REMARK   11  A    between atoms: C_38  and  O_39
REMARK   12  A    between atoms: O_39  and  C_40
REMARK   13  A    between atoms: C_40  and  C_41
REMARK   14  A    between atoms: C_40  and  C_42
REMARK                            x       y       z     vdW  Elec       q    Type
REMARK                         _______ _______ _______ _____ _____    ______ ____
ROOT
ATOM      1  C   UNL     1      -1.278   2.502  -1.325  0.00  0.00    +0.123 C 
ATOM      2  C   UNL     1      -1.367   1.879   0.106  0.00  0.00    +0.155 C 
ATOM      3  C   UNL     1      -0.228   0.859   0.219  0.00  0.00    +0.004 C 
ATOM      4  C   UNL     1       0.916   1.548   0.316  0.00  0.00    +0.009 C 
ATOM      5  C   UNL     1       0.480   2.967   0.229  0.00  0.00    +0.127 C 
ATOM      6  C   UNL     1       0.066   3.236  -1.265  0.00  0.00    +0.128 C 
ATOM      7  C   UNL     1      -0.027   4.736  -1.269  0.00  0.00    +0.223 C 
ATOM      8  O   UNL     1      -0.709   5.395  -2.026  0.00  0.00    -0.275 OA
ATOM      9  N   UNL     1       0.773   5.237  -0.294  0.00  0.00    -0.286 N 
ATOM     10  C   UNL     1       1.354   4.146   0.524  0.00  0.00    +0.198 C 
ATOM     11  O   UNL     1      -0.805   2.987   0.905  0.00  0.00    -0.358 OA
ENDROOT
BRANCH   1  13
ATOM     12  N   UNL     1      -2.310   0.590  -2.506  0.00  0.00    -0.285 N 
ATOM     13  C   UNL     1      -1.262   1.428  -2.381  0.00  0.00    +0.224 C 
ATOM     14  O   UNL     1      -0.305   1.317  -3.119  0.00  0.00    -0.275 OA
ATOM     15  H   UNL     1      -3.138   0.633  -1.783  0.00  0.00    +0.155 HD
BRANCH  12  19
ATOM     16  C   UNL     1      -2.414  -2.167  -5.633  0.00  0.00    +0.121 A 
ATOM     17  C   UNL     1      -2.978  -2.488  -4.406  0.00  0.00    +0.047 A 
ATOM     18  C   UNL     1      -2.944  -1.575  -3.370  0.00  0.00    +0.027 A 
ATOM     19  C   UNL     1      -2.345  -0.337  -3.557  0.00  0.00    +0.034 A 
ATOM     20  C   UNL     1      -1.786  -0.014  -4.786  0.00  0.00    +0.027 A 
ATOM     21  C   UNL     1      -1.816  -0.930  -5.819  0.00  0.00    +0.047 A 
BRANCH  16  22
ATOM     22  O   UNL     1      -2.449  -3.066  -6.652  0.00  0.00    -0.492 OA
BRANCH  22  24
ATOM     23  C   UNL     1      -1.984  -3.802  -8.907  0.00  0.00    +0.048 C 
ATOM     24  C   UNL     1      -1.849  -2.669  -7.887  0.00  0.00    +0.225 C 
ENDBRANCH  22  24
ENDBRANCH  16  22
ENDBRANCH  12  19
ENDBRANCH   1  13
BRANCH  10  25
ATOM     25  C   UNL     1       2.774   3.869   0.103  0.00  0.00    +0.237 C 
ATOM     26  O   UNL     1       3.192   4.309  -0.947  0.00  0.00    -0.274 OA
ATOM     27  N   UNL     1       3.580   3.132   0.894  0.00  0.00    -0.311 N 
ATOM     28  H   UNL     1       3.201   2.733   1.846  0.00  0.00    +0.149 HD
BRANCH  27  29
ATOM     29  C   UNL     1       4.961   2.864   0.485  0.00  0.00    +0.073 C 
ATOM     30  C   UNL     1       4.991   1.641  -0.435  0.00  0.00    +0.022 C 
ATOM     31  C   UNL     1       6.433   1.361  -0.863  0.00  0.00    +0.002 C 
ATOM     32  C   UNL     1       7.288   1.087   0.376  0.00  0.00    +0.000 C 
ATOM     33  C   UNL     1       7.258   2.309   1.297  0.00  0.00    +0.002 C 
ATOM     34  C   UNL     1       5.816   2.590   1.724  0.00  0.00    +0.022 C 
ENDBRANCH  27  29
ENDBRANCH  10  25
BRANCH   9  35
ATOM     35  C   UNL     1       1.028   6.664  -0.079  0.00  0.00    +0.111 C 
BRANCH  35  36
ATOM     36  C   UNL     1      -0.014   7.228   0.889  0.00  0.00    +0.047 C 
BRANCH  36  37
ATOM     37  C   UNL     1       0.252   8.718   1.114  0.00  0.00    +0.161 C 
BRANCH  37  38
ATOM     38  O   UNL     1      -0.721   9.245   2.018  0.00  0.00    -0.377 OA
BRANCH  38  39
ATOM     39  C   UNL     1      -0.562  10.637   2.297  0.00  0.00    +0.112 C 
ATOM     40  C   UNL     1      -1.928  11.257   2.596  0.00  0.00    +0.037 C 
ATOM     41  C   UNL     1       0.355  10.813   3.509  0.00  0.00    +0.037 C 
ENDBRANCH  38  39
ENDBRANCH  37  38
ENDBRANCH  36  37
ENDBRANCH  35  36
ENDBRANCH   9  35
TORSDOF 11
