REMARK  Name = ZINC02641434
REMARK  8 active torsions:
REMARK  status: ('A' for Active; 'I' for Inactive)
REMARK    1  A    between atoms: C_1  and  C_2
REMARK    2  A    between atoms: C_5  and  N_9
REMARK    3  A    between atoms: C_7  and  C_8
REMARK    4  A    between atoms: C_10  and  C_33
REMARK    5  A    between atoms: C_13  and  S_14
REMARK    6  A    between atoms: S_14  and  C_15
REMARK    7  A    between atoms: C_15  and  C_16
REMARK    8  A    between atoms: C_22  and  C_27
REMARK                            x       y       z     vdW  Elec       q    Type
REMARK                         _______ _______ _______ _____ _____    ______ ____
ROOT
ATOM      1  N   UNL     1      -2.449   1.071   0.042  0.00  0.00    -0.270 N 
ATOM      2  C   UNL     1      -2.861   0.137   0.968  0.00  0.00    +0.169 A 
ATOM      3  N   UNL     1      -4.020  -0.325   0.559  0.00  0.00    -0.128 NA
ATOM      4  N   UNL     1      -4.358   0.246  -0.542  0.00  0.00    -0.122 NA
ATOM      5  C   UNL     1      -3.437   1.112  -0.903  0.00  0.00    +0.197 A 
ENDROOT
BRANCH   1  10
ATOM      6  C   UNL     1       2.335   4.123   0.130  0.00  0.00    +0.044 C 
ATOM      7  C   UNL     1       1.065   3.312   0.110  0.00  0.00    -0.047 A 
ATOM      8  C   UNL     1       1.122   1.946  -0.092  0.00  0.00    +0.005 A 
ATOM      9  C   UNL     1      -0.040   1.200  -0.112  0.00  0.00    +0.026 A 
ATOM     10  C   UNL     1      -1.268   1.824   0.066  0.00  0.00    +0.051 A 
ATOM     11  C   UNL     1      -1.321   3.196   0.274  0.00  0.00    +0.030 A 
ATOM     12  C   UNL     1      -0.155   3.937   0.292  0.00  0.00    -0.046 A 
ATOM     13  C   UNL     1      -0.214   5.426   0.511  0.00  0.00    +0.044 C 
ENDBRANCH   1  10
BRANCH   2  14
ATOM     14  C   UNL     1      -2.136  -0.267   2.190  0.00  0.00    +0.020 A 
ATOM     15  C   UNL     1      -2.469  -1.457   2.841  0.00  0.00    +0.011 A 
ATOM     16  C   UNL     1      -1.785  -1.831   3.979  0.00  0.00    +0.001 A 
ATOM     17  C   UNL     1      -0.778  -1.025   4.482  0.00  0.00    +0.000 A 
ATOM     18  C   UNL     1      -0.447   0.158   3.844  0.00  0.00    +0.001 A 
ATOM     19  C   UNL     1      -1.120   0.541   2.703  0.00  0.00    +0.011 A 
ENDBRANCH   2  14
BRANCH   5  20
ATOM     20  S   UNL     1      -3.469   2.134  -2.339  0.00  0.00    -0.078 S 
BRANCH  20  21
ATOM     21  C   UNL     1      -5.051   1.622  -3.054  0.00  0.00    +0.151 C 
BRANCH  21  22
ATOM     22  C   UNL     1      -5.296   2.387  -4.329  0.00  0.00    +0.121 A 
ATOM     23  N   UNL     1      -6.433   2.159  -5.036  0.00  0.00    -0.310 N 
ATOM     24  H   UNL     1      -7.072   1.506  -4.710  0.00  0.00    +0.170 HD
ATOM     25  C   UNL     1      -6.691   2.821  -6.179  0.00  0.00    +0.260 A 
ATOM     26  O   UNL     1      -7.716   2.605  -6.801  0.00  0.00    -0.267 OA
ATOM     27  C   UNL     1      -5.742   3.783  -6.652  0.00  0.00    +0.080 A 
ATOM     28  C   UNL     1      -5.793   4.618  -7.846  0.00  0.00    +0.004 A 
ATOM     29  C   UNL     1      -4.765   5.466  -8.092  0.00  0.00    +0.056 A 
ATOM     30  S   UNL     1      -3.663   5.187  -6.719  0.00  0.00    -0.076 S 
ATOM     31  C   UNL     1      -4.598   3.951  -5.856  0.00  0.00    +0.116 A 
ATOM     32  N   UNL     1      -4.415   3.262  -4.733  0.00  0.00    -0.226 NA
BRANCH  28  33
ATOM     33  C   UNL     1      -6.946   4.540  -8.774  0.00  0.00    -0.017 A 
ATOM     34  C   UNL     1      -7.381   3.302  -9.247  0.00  0.00    +0.008 A 
ATOM     35  C   UNL     1      -8.459   3.235 -10.107  0.00  0.00    +0.001 A 
ATOM     36  C   UNL     1      -9.100   4.394 -10.508  0.00  0.00    +0.000 A 
ATOM     37  C   UNL     1      -8.669   5.625 -10.047  0.00  0.00    +0.001 A 
ATOM     38  C   UNL     1      -7.596   5.704  -9.183  0.00  0.00    +0.008 A 
ENDBRANCH  28  33
ENDBRANCH  21  22
ENDBRANCH  20  21
ENDBRANCH   5  20
TORSDOF 6
