REMARK  Name = ZINC15981496
REMARK  14 active torsions:
REMARK  status: ('A' for Active; 'I' for Inactive)
REMARK    1  A    between atoms: C_1  and  C_2
REMARK    2  A    between atoms: C_2  and  C_3
REMARK    3  A    between atoms: C_2  and  N_65
REMARK    4  A    between atoms: C_4  and  C_5
REMARK    5  A    between atoms: C_4  and  N_65
REMARK    6  A    between atoms: C_5  and  N_6
REMARK    7  A    between atoms: C_10  and  C_11
REMARK    8  A    between atoms: C_14  and  C_17
REMARK    9  A    between atoms: N_23  and  C_24
REMARK   10  A    between atoms: C_27  and  O_30
REMARK   11  A    between atoms: O_30  and  C_31
REMARK   12  A    between atoms: C_32  and  C_33
REMARK   13  A    between atoms: C_32  and  C_34
REMARK   14  A    between atoms: C_32  and  N_65
REMARK                            x       y       z     vdW  Elec       q    Type
REMARK                         _______ _______ _______ _____ _____    ______ ____
ROOT
ATOM      1  N   UNL     1      -6.117   4.462   5.457  0.00  0.00    -0.248 N 
ATOM      2  C   UNL     1      -4.866   4.174   5.776  0.00  0.00    +0.259 C 
ATOM      3  O   UNL     1      -4.440   4.348   6.902  0.00  0.00    -0.269 OA
ATOM      4  C   UNL     1      -4.008   3.636   4.700  0.00  0.00    +0.078 C 
ATOM      5  C   UNL     1      -2.704   3.264   4.745  0.00  0.00    +0.028 C 
ATOM      6  S   UNL     1      -5.152   3.598   3.328  0.00  0.00    -0.049 S 
ATOM      7  C   UNL     1      -6.582   4.249   4.176  0.00  0.00    +0.168 C 
ATOM      8  N   UNL     1      -7.784   4.471   3.697  0.00  0.00    -0.225 NA
ENDROOT
BRANCH   5   9
ATOM      9  C   UNL     1      -2.090   2.599   3.587  0.00  0.00    -0.024 A 
ATOM     10  C   UNL     1      -0.697   2.547   3.462  0.00  0.00    +0.008 A 
ATOM     11  C   UNL     1      -0.129   1.921   2.373  0.00  0.00    +0.013 A 
ATOM     12  C   UNL     1      -0.932   1.345   1.404  0.00  0.00    +0.055 A 
ATOM     13  C   UNL     1      -2.311   1.397   1.517  0.00  0.00    +0.013 A 
ATOM     14  C   UNL     1      -2.895   2.014   2.602  0.00  0.00    +0.008 A 
BRANCH  12  15
ATOM     15  C   UNL     1      -0.302   0.664   0.217  0.00  0.00    +0.417 C 
ATOM     16  F   UNL     1      -0.091  -0.687   0.512  0.00  0.00    -0.166 F 
ATOM     17  F   UNL     1       0.922   1.274  -0.076  0.00  0.00    -0.166 F 
ATOM     18  F   UNL     1      -1.154   0.771  -0.888  0.00  0.00    -0.166 F 
ENDBRANCH  12  15
ENDBRANCH   5   9
BRANCH   8  19
ATOM     19  C   UNL     1      -8.060   4.194   2.384  0.00  0.00    +0.067 A 
ATOM     20  C   UNL     1      -7.168   4.584   1.384  0.00  0.00    +0.031 A 
ATOM     21  C   UNL     1      -7.447   4.298   0.064  0.00  0.00    +0.048 A 
ATOM     22  C   UNL     1      -8.619   3.634  -0.272  0.00  0.00    +0.120 A 
ATOM     23  C   UNL     1      -9.511   3.249   0.719  0.00  0.00    +0.048 A 
ATOM     24  C   UNL     1      -9.238   3.526   2.042  0.00  0.00    +0.031 A 
BRANCH  22  25
ATOM     25  O   UNL     1      -8.893   3.358  -1.575  0.00  0.00    -0.495 OA
ATOM     26  C   UNL     1      -7.931   3.782  -2.543  0.00  0.00    +0.277 C 
ENDBRANCH  22  25
ENDBRANCH   8  19
BRANCH   1  27
ATOM     27  C   UNL     1      -7.019   5.005   6.475  0.00  0.00    +0.097 C 
BRANCH  27  28
ATOM     28  C   UNL     1      -7.727   3.855   7.195  0.00  0.00    -0.058 C 
BRANCH  28  29
ATOM     29  N   UNL     1      -8.648   4.420   8.204  0.00  0.00    +0.384 N 
ATOM     30  H   UNL     1      -9.247   5.122   7.753  0.00  0.00    -0.081 HD
BRANCH  29  32
ATOM     31  C   UNL     1     -10.698   3.143   7.834  0.00  0.00    -0.014 C 
ATOM     32  C   UNL     1      -9.500   3.350   8.764  0.00  0.00    -0.074 C 
ATOM     33  C   UNL     1      -8.712   2.044   8.879  0.00  0.00    -0.014 C 
ENDBRANCH  29  32
BRANCH  29  34
ATOM     34  C   UNL     1      -7.877   5.069   9.284  0.00  0.00    -0.074 C 
ATOM     35  C   UNL     1      -8.842   5.853  10.177  0.00  0.00    -0.014 C 
ATOM     36  C   UNL     1      -7.143   4.022  10.123  0.00  0.00    -0.014 C 
ENDBRANCH  29  34
ENDBRANCH  28  29
ENDBRANCH  27  28
ENDBRANCH   1  27
TORSDOF 9
