REMARK  Name = ZINC12705293
REMARK  7 active torsions:
REMARK  status: ('A' for Active; 'I' for Inactive)
REMARK    1  A    between atoms: C_4  and  C_7
REMARK    2  A    between atoms: C_10  and  C_13
REMARK    3  A    between atoms: N_15  and  C_16
REMARK    4  A    between atoms: N_15  and  C_22
REMARK    5  A    between atoms: C_22  and  C_24
REMARK    6  A    between atoms: C_22  and  C_31
REMARK    7  A    between atoms: N_33  and  C_34
REMARK                            x       y       z     vdW  Elec       q    Type
REMARK                         _______ _______ _______ _____ _____    ______ ____
ROOT
ATOM      1  C   UNL     1       3.365   0.841   2.076  0.00  0.00    +0.264 C 
ATOM      2  O   UNL     1       3.058  -0.332   1.966  0.00  0.00    -0.268 OA
ATOM      3  N   UNL     1       3.178   1.685   1.042  0.00  0.00    -0.278 N 
ENDROOT
BRANCH   1   7
ATOM      4  C   UNL     1       4.806   2.692   4.866  0.00  0.00    +0.047 A 
ATOM      5  C   UNL     1       4.729   1.433   5.421  0.00  0.00    +0.028 A 
ATOM      6  C   UNL     1       4.179   0.582   4.464  0.00  0.00    +0.033 A 
ATOM      7  C   UNL     1       3.938   1.334   3.332  0.00  0.00    +0.102 A 
ATOM      8  N   UNL     1       4.324   2.630   3.591  0.00  0.00    -0.351 N 
ATOM      9  H   UNL     1       4.262   3.374   2.972  0.00  0.00    +0.166 HD
BRANCH   4  13
ATOM     10  C   UNL     1       6.297   6.171   6.793  0.00  0.00    +0.000 A 
ATOM     11  C   UNL     1       6.387   4.942   7.423  0.00  0.00    +0.001 A 
ATOM     12  C   UNL     1       5.905   3.808   6.802  0.00  0.00    +0.010 A 
ATOM     13  C   UNL     1       5.325   3.902   5.536  0.00  0.00    -0.002 A 
ATOM     14  C   UNL     1       5.242   5.144   4.904  0.00  0.00    +0.010 A 
ATOM     15  C   UNL     1       5.722   6.271   5.538  0.00  0.00    +0.001 A 
ENDBRANCH   4  13
ENDBRANCH   1   7
BRANCH   3  16
ATOM     16  C   UNL     1       3.652   3.069   1.133  0.00  0.00    +0.078 C 
ATOM     17  C   UNL     1       3.211   3.841  -0.112  0.00  0.00    +0.022 C 
ATOM     18  C   UNL     1       3.706   5.286  -0.018  0.00  0.00    +0.002 C 
ATOM     19  C   UNL     1       5.233   5.297   0.074  0.00  0.00    +0.000 C 
ATOM     20  C   UNL     1       5.674   4.524   1.319  0.00  0.00    +0.002 C 
ATOM     21  C   UNL     1       5.179   3.080   1.225  0.00  0.00    +0.022 C 
ENDBRANCH   3  16
BRANCH   3  22
ATOM     22  C   UNL     1       2.502   1.221  -0.171  0.00  0.00    +0.193 C 
BRANCH  22  23
ATOM     23  C   UNL     1       1.325   2.115  -0.464  0.00  0.00    -0.018 A 
ATOM     24  C   UNL     1       0.410   2.401   0.532  0.00  0.00    +0.009 A 
ATOM     25  C   UNL     1      -0.672   3.217   0.264  0.00  0.00    +0.038 A 
ATOM     26  C   UNL     1      -0.835   3.757  -1.001  0.00  0.00    +0.123 A 
ATOM     27  C   UNL     1       0.082   3.470  -1.998  0.00  0.00    +0.038 A 
ATOM     28  C   UNL     1       1.161   2.650  -1.728  0.00  0.00    +0.009 A 
ATOM     29  F   UNL     1      -1.890   4.559  -1.264  0.00  0.00    -0.205 F 
ENDBRANCH  22  23
BRANCH  22  30
ATOM     30  C   UNL     1       3.464   1.262  -1.330  0.00  0.00    +0.238 C 
ATOM     31  O   UNL     1       4.590   1.684  -1.169  0.00  0.00    -0.273 OA
ATOM     32  N   UNL     1       3.074   0.829  -2.545  0.00  0.00    -0.311 N 
ATOM     33  H   UNL     1       2.174   0.492  -2.674  0.00  0.00    +0.149 HD
BRANCH  32  34
ATOM     34  C   UNL     1       4.010   0.869  -3.672  0.00  0.00    +0.073 C 
ATOM     35  C   UNL     1       3.974   2.256  -4.316  0.00  0.00    +0.022 C 
ATOM     36  C   UNL     1       4.951   2.297  -5.493  0.00  0.00    +0.002 C 
ATOM     37  C   UNL     1       4.549   1.244  -6.527  0.00  0.00    +0.000 C 
ATOM     38  C   UNL     1       4.585  -0.143  -5.883  0.00  0.00    +0.002 C 
ATOM     39  C   UNL     1       3.608  -0.184  -4.706  0.00  0.00    +0.022 C 
ENDBRANCH  32  34
ENDBRANCH  22  30
ENDBRANCH   3  22
TORSDOF 7
