REMARK  Name = ZINC20728017
REMARK  12 active torsions:
REMARK  status: ('A' for Active; 'I' for Inactive)
REMARK    1  A    between atoms: C_1  and  C_2
REMARK    2  A    between atoms: C_2  and  C_3
REMARK    3  A    between atoms: C_2  and  N_4
REMARK    4  A    between atoms: N_4  and  C_5
REMARK    5  A    between atoms: N_4  and  C_31
REMARK    6  A    between atoms: C_5  and  C_6
REMARK    7  A    between atoms: C_6  and  C_7
REMARK    8  A    between atoms: C_7  and  N_8
REMARK    9  A    between atoms: C_9  and  C_11
REMARK   10  A    between atoms: C_11  and  N_12
REMARK   11  A    between atoms: C_21  and  C_22
REMARK   12  A    between atoms: C_31  and  C_32
REMARK                            x       y       z     vdW  Elec       q    Type
REMARK                         _______ _______ _______ _____ _____    ______ ____
ROOT
ATOM      1  C   UNL     1       5.172   1.846  -0.614  0.00  0.00    +0.209 C 
ENDROOT
BRANCH   1   2
ATOM      2  N   UNL     1       4.060   2.700  -0.187  0.00  0.00    -0.257 N 
ATOM      3  C   UNL     1       4.388   3.977   0.250  0.00  0.00    +0.051 A 
ATOM      4  C   UNL     1       5.615   4.517  -0.131  0.00  0.00    +0.024 A 
ATOM      5  C   UNL     1       5.979   5.784   0.276  0.00  0.00    +0.002 A 
ATOM      6  C   UNL     1       5.131   6.538   1.068  0.00  0.00    +0.001 A 
ATOM      7  C   UNL     1       3.910   6.018   1.456  0.00  0.00    +0.017 A 
ATOM      8  C   UNL     1       3.541   4.745   1.051  0.00  0.00    +0.034 A 
ATOM      9  S   UNL     1       1.982   4.079   1.551  0.00  0.00    -0.082 S 
ATOM     10  C   UNL     1       1.664   2.916   0.250  0.00  0.00    +0.076 C 
ATOM     11  C   UNL     1       0.420   2.722  -0.251  0.00  0.00    +0.031 C 
ATOM     12  C   UNL     1       2.837   2.170  -0.257  0.00  0.00    +0.258 C 
ATOM     13  O   UNL     1       2.684   1.065  -0.743  0.00  0.00    -0.269 OA
BRANCH  11  14
ATOM     14  C   UNL     1      -0.737   3.374   0.381  0.00  0.00    +0.011 A 
ATOM     15  C   UNL     1      -0.751   3.596   1.762  0.00  0.00    +0.011 A 
ATOM     16  C   UNL     1      -1.837   4.212   2.347  0.00  0.00    +0.001 A 
ATOM     17  C   UNL     1      -2.917   4.602   1.573  0.00  0.00    +0.003 A 
ATOM     18  C   UNL     1      -2.915   4.383   0.207  0.00  0.00    +0.039 A 
ATOM     19  C   UNL     1      -1.833   3.772  -0.396  0.00  0.00    +0.131 A 
ATOM     20  F   UNL     1      -1.831   3.557  -1.730  0.00  0.00    -0.205 F 
ENDBRANCH  11  14
ENDBRANCH   1   2
BRANCH   1  22
ATOM     21  N   UNL     1       6.366   1.317  -2.715  0.00  0.00    -0.314 N 
ATOM     22  C   UNL     1       5.389   2.010  -2.096  0.00  0.00    +0.231 C 
ATOM     23  O   UNL     1       4.686   2.765  -2.733  0.00  0.00    -0.274 OA
ATOM     24  H   UNL     1       7.005   0.632  -2.137  0.00  0.00    +0.149 HD
BRANCH  21  25
ATOM     25  C   UNL     1       6.578   1.476  -4.155  0.00  0.00    +0.102 C 
BRANCH  25  26
ATOM     26  C   UNL     1       7.739   0.584  -4.602  0.00  0.00    +0.000 C 
BRANCH  26  27
ATOM     27  C   UNL     1       7.960   0.750  -6.107  0.00  0.00    -0.076 C 
BRANCH  27  28
ATOM     28  N   UNL     1       8.989  -0.195  -6.558  0.00  0.00    +0.384 N 
ATOM     29  H   UNL     1       8.760  -1.178  -6.120  0.00  0.00    -0.081 HD
BRANCH  28  31
ATOM     30  C   UNL     1       7.683  -1.043  -8.448  0.00  0.00    -0.014 C 
ATOM     31  C   UNL     1       8.971  -0.336  -8.020  0.00  0.00    -0.074 C 
ATOM     32  C   UNL     1       9.031   1.049  -8.666  0.00  0.00    -0.014 C 
ENDBRANCH  28  31
BRANCH  28  33
ATOM     33  C   UNL     1      10.320   0.210  -6.085  0.00  0.00    -0.043 C 
BRANCH  33  34
ATOM     34  C   UNL     1      11.306  -0.898  -6.351  0.00  0.00    -0.064 A 
ATOM     35  C   UNL     1      11.524  -1.874  -5.396  0.00  0.00    +0.002 A 
ATOM     36  C   UNL     1      12.425  -2.892  -5.642  0.00  0.00    +0.000 A 
ATOM     37  C   UNL     1      13.116  -2.930  -6.839  0.00  0.00    +0.000 A 
ATOM     38  C   UNL     1      12.902  -1.951  -7.791  0.00  0.00    +0.000 A 
ATOM     39  C   UNL     1      11.997  -0.935  -7.547  0.00  0.00    +0.002 A 
ENDBRANCH  33  34
ENDBRANCH  28  33
ENDBRANCH  27  28
ENDBRANCH  26  27
ENDBRANCH  25  26
ENDBRANCH  21  25
ENDBRANCH   1  22
TORSDOF 10
