REMARK  Name = ZINC25257518
REMARK  9 active torsions:
REMARK  status: ('A' for Active; 'I' for Inactive)
REMARK    1  A    between atoms: C_7  and  C_11
REMARK    2  A    between atoms: C_11  and  C_13
REMARK    3  A    between atoms: C_11  and  C_29
REMARK    4  A    between atoms: C_13  and  N_14
REMARK    5  A    between atoms: C_15  and  C_17
REMARK    6  A    between atoms: C_17  and  C_18
REMARK    7  A    between atoms: C_18  and  C_19
REMARK    8  A    between atoms: C_22  and  S_25
REMARK    9  A    between atoms: S_25  and  N_28
REMARK                            x       y       z     vdW  Elec       q    Type
REMARK                         _______ _______ _______ _____ _____    ______ ____
ROOT
ATOM      1  C   UNL     1       4.277   4.612  -1.263  0.00  0.00    +0.117 C 
ENDROOT
BRANCH   1   2
ATOM      2  N   UNL     1       5.704   4.288  -1.340  0.00  0.00    -0.314 N 
ATOM      3  C   UNL     1       6.445   4.751  -2.367  0.00  0.00    +0.213 C 
ATOM      4  O   UNL     1       5.931   5.434  -3.227  0.00  0.00    -0.276 OA
ATOM      5  H   UNL     1       6.170   3.669  -0.560  0.00  0.00    +0.149 HD
BRANCH   3   6
ATOM      6  C   UNL     1       7.913   4.418  -2.446  0.00  0.00    +0.100 C 
BRANCH   6   7
ATOM      7  C   UNL     1       8.514   5.061  -3.698  0.00  0.00    +0.044 C 
BRANCH   7   8
ATOM      8  C   UNL     1       9.982   4.728  -3.777  0.00  0.00    -0.047 A 
ATOM      9  C   UNL     1      10.912   5.564  -3.189  0.00  0.00    +0.005 A 
ATOM     10  C   UNL     1      12.259   5.257  -3.258  0.00  0.00    +0.029 A 
ATOM     11  C   UNL     1      12.675   4.119  -3.923  0.00  0.00    +0.105 A 
ATOM     12  C   UNL     1      11.744   3.285  -4.515  0.00  0.00    +0.029 A 
ATOM     13  C   UNL     1      10.398   3.590  -4.443  0.00  0.00    +0.005 A 
BRANCH  11  14
ATOM     14  S   UNL     1      14.391   3.729  -4.014  0.00  0.00    +0.056 S 
ATOM     15  O   UNL     1      15.013   4.378  -2.914  0.00  0.00    -0.153 OA
ATOM     16  O   UNL     1      14.478   2.326  -4.221  0.00  0.00    -0.153 OA
BRANCH  14  17
ATOM     17  N   UNL     1      14.983   4.448  -5.384  0.00  0.00    -0.204 NA
ATOM     18  H   UNL     1      16.057   4.228  -5.478  0.00  0.00    +0.144 HD
ATOM     19  H   UNL     1      14.836   5.536  -5.320  0.00  0.00    +0.144 HD
ENDBRANCH  14  17
ENDBRANCH  11  14
ENDBRANCH   7   8
ENDBRANCH   6   7
ENDBRANCH   3   6
ENDBRANCH   1   2
BRANCH   1  20
ATOM     20  C   UNL     1       3.675   3.969  -0.012  0.00  0.00    +0.069 C 
BRANCH  20  27
ATOM     21  C   UNL     1      -0.013   1.076   0.008  0.00  0.00    +0.001 A 
ATOM     22  C   UNL     1      -1.227   1.748   0.017  0.00  0.00    +0.002 A 
ATOM     23  C   UNL     1      -1.268   3.125   0.031  0.00  0.00    +0.026 A 
ATOM     24  C   UNL     1      -0.082   3.852   0.024  0.00  0.00    +0.047 A 
ATOM     25  C   UNL     1       1.146   3.166   0.008  0.00  0.00    +0.003 A 
ATOM     26  C   UNL     1       1.164   1.770   0.000  0.00  0.00    +0.010 A 
ATOM     27  C   UNL     1       2.186   4.198   0.004  0.00  0.00    -0.013 A 
ATOM     28  C   UNL     1       1.560   5.385   0.016  0.00  0.00    +0.088 A 
ATOM     29  N   UNL     1       0.205   5.198   0.028  0.00  0.00    -0.360 N 
ATOM     30  H   UNL     1      -0.612   5.934   0.040  0.00  0.00    +0.165 HD
ENDBRANCH  20  27
BRANCH  20  31
ATOM     31  C   UNL     1       4.291   4.589   1.216  0.00  0.00    -0.020 A 
ATOM     32  C   UNL     1       4.164   5.946   1.444  0.00  0.00    +0.006 A 
ATOM     33  C   UNL     1       4.729   6.515   2.570  0.00  0.00    +0.000 A 
ATOM     34  C   UNL     1       5.422   5.726   3.470  0.00  0.00    +0.001 A 
ATOM     35  C   UNL     1       5.549   4.368   3.244  0.00  0.00    +0.020 A 
ATOM     36  C   UNL     1       4.979   3.798   2.119  0.00  0.00    +0.045 A 
ATOM     37 CL   UNL     1       5.133   2.092   1.838  0.00  0.00    -0.083 Cl
ENDBRANCH  20  31
ENDBRANCH   1  20
TORSDOF 9
