REMARK  Name = ZINC22519520
REMARK  9 active torsions:
REMARK  status: ('A' for Active; 'I' for Inactive)
REMARK    1  A    between atoms: C_1  and  C_2
REMARK    2  A    between atoms: C_2  and  C_4
REMARK    3  A    between atoms: C_2  and  N_12
REMARK    4  A    between atoms: C_13  and  C_15
REMARK    5  A    between atoms: C_15  and  C_17
REMARK    6  A    between atoms: C_15  and  S_18
REMARK    7  A    between atoms: S_18  and  C_19
REMARK    8  A    between atoms: N_23  and  C_24
REMARK    9  A    between atoms: C_27  and  O_30
REMARK                            x       y       z     vdW  Elec       q    Type
REMARK                         _______ _______ _______ _____ _____    ______ ____
ROOT
ATOM      1  C   UNL     1      -3.654  -0.781   1.993  0.00  0.00    +0.137 C 
ATOM      2  C   UNL     1      -4.433  -0.128   3.136  0.00  0.00    +0.029 C 
ENDROOT
BRANCH   1   4
ATOM      3  N   UNL     1      -2.075   1.004   1.332  0.00  0.00    -0.308 N 
ATOM      4  C   UNL     1      -2.270  -0.190   1.926  0.00  0.00    +0.227 C 
ATOM      5  O   UNL     1      -1.331  -0.788   2.407  0.00  0.00    -0.275 OA
ATOM      6  H   UNL     1      -2.926   1.547   0.895  0.00  0.00    +0.149 HD
BRANCH   3   8
ATOM      7  C   UNL     1      -0.012   1.060   0.019  0.00  0.00    +0.033 C 
ATOM      8  C   UNL     1      -0.729   1.579   1.267  0.00  0.00    +0.102 C 
BRANCH   8   9
ATOM      9  C   UNL     1      -0.827   3.082   1.201  0.00  0.00    -0.009 A 
ATOM     10  C   UNL     1      -1.950   3.678   0.657  0.00  0.00    +0.008 A 
ATOM     11  C   UNL     1      -2.041   5.055   0.596  0.00  0.00    +0.020 A 
ATOM     12  C   UNL     1      -1.007   5.839   1.079  0.00  0.00    +0.042 A 
ATOM     13  C   UNL     1       0.116   5.243   1.623  0.00  0.00    +0.040 A 
ATOM     14  C   UNL     1       0.204   3.864   1.689  0.00  0.00    +0.047 A 
ATOM     15 CL   UNL     1       1.610   3.116   2.379  0.00  0.00    -0.083 Cl
ATOM     16 CL   UNL     1      -1.122   7.569   1.002  0.00  0.00    -0.083 Cl
ENDBRANCH   8   9
ENDBRANCH   3   8
ENDBRANCH   1   4
BRANCH   1  17
ATOM     17  S   UNL     1      -3.535  -2.563   2.285  0.00  0.00    -0.072 S 
BRANCH  17  18
ATOM     18  C   UNL     1      -5.237  -3.007   2.168  0.00  0.00    +0.215 A 
ATOM     19  N   UNL     1      -6.243  -2.192   1.936  0.00  0.00    -0.101 NA
ATOM     20  N   UNL     1      -7.351  -2.841   1.911  0.00  0.00    -0.022 NA
ATOM     21  N   UNL     1      -7.143  -4.094   2.130  0.00  0.00    -0.038 NA
ATOM     22  N   UNL     1      -5.757  -4.252   2.306  0.00  0.00    -0.187 N 
BRANCH  22  23
ATOM     23  C   UNL     1      -5.061  -5.442   2.568  0.00  0.00    +0.070 A 
ATOM     24  C   UNL     1      -3.797  -5.640   2.031  0.00  0.00    +0.031 A 
ATOM     25  C   UNL     1      -3.111  -6.809   2.294  0.00  0.00    +0.047 A 
ATOM     26  C   UNL     1      -3.689  -7.790   3.086  0.00  0.00    +0.117 A 
ATOM     27  C   UNL     1      -4.955  -7.595   3.619  0.00  0.00    +0.047 A 
ATOM     28  C   UNL     1      -5.640  -6.424   3.361  0.00  0.00    +0.031 A 
BRANCH  26  29
ATOM     29  O   UNL     1      -3.016  -8.943   3.340  0.00  0.00    -0.507 OA
ATOM     30  H   UNL     1      -3.474  -9.721   3.969  0.00  0.00    +0.292 HD
ENDBRANCH  26  29
ENDBRANCH  22  23
ENDBRANCH  17  18
ENDBRANCH   1  17
TORSDOF 7
