REMARK  Name = ZINC04517077
REMARK  8 active torsions:
REMARK  status: ('A' for Active; 'I' for Inactive)
REMARK    1  A    between atoms: C_1  and  C_2
REMARK    2  A    between atoms: C_3  and  C_21
REMARK    3  A    between atoms: C_12  and  N_16
REMARK    4  A    between atoms: C_13  and  C_14
REMARK    5  A    between atoms: N_19  and  C_20
REMARK    6  A    between atoms: C_21  and  O_23
REMARK    7  A    between atoms: O_23  and  C_24
REMARK    8  A    between atoms: C_24  and  C_25
REMARK                            x       y       z     vdW  Elec       q    Type
REMARK                         _______ _______ _______ _____ _____    ______ ____
ROOT
ATOM      1  C   UNL     1       2.884   6.930  -2.241  0.00  0.00    +0.061 C 
ATOM      2  C   UNL     1       2.684   5.911  -1.149  0.00  0.00    +0.022 C 
ATOM      3  C   UNL     1       2.666   4.580  -1.357  0.00  0.00    +0.078 C 
ATOM      4  C   UNL     1       2.442   3.952  -0.001  0.00  0.00    +0.148 C 
ATOM      5  C   UNL     1       1.158   3.172   0.008  0.00  0.00    +0.020 A 
ATOM      6  C   UNL     1      -0.053   3.841   0.024  0.00  0.00    +0.009 A 
ATOM      7  C   UNL     1      -1.238   3.131   0.031  0.00  0.00    +0.001 A 
ATOM      8  C   UNL     1      -1.218   1.748   0.017  0.00  0.00    +0.004 A 
ATOM      9  C   UNL     1      -0.013   1.076   0.008  0.00  0.00    +0.046 A 
ATOM     10  C   UNL     1       1.182   1.786   0.000  0.00  0.00    +0.135 A 
ATOM     11  O   UNL     1       2.358   1.112  -0.016  0.00  0.00    -0.441 OA
ATOM     12  C   UNL     1       3.497   1.727   0.344  0.00  0.00    +0.199 C 
ATOM     13  C   UNL     1       3.602   3.079   0.371  0.00  0.00    +0.110 C 
ATOM     14  C   UNL     1       2.347   5.135   0.936  0.00  0.00    +0.240 C 
ATOM     15  O   UNL     1       2.167   5.105   2.134  0.00  0.00    -0.274 OA
ATOM     16  N   UNL     1       2.502   6.229   0.164  0.00  0.00    -0.277 N 
ATOM     17  C   UNL     1       2.477   7.601   0.677  0.00  0.00    +0.138 C 
ENDROOT
BRANCH  12  18
ATOM     18  N   UNL     1       4.584   0.966   0.695  0.00  0.00    -0.328 N 
ATOM     19  H   UNL     1       5.413   1.396   0.957  0.00  0.00    +0.145 HD
ATOM     20  H   UNL     1       4.523  -0.002   0.680  0.00  0.00    +0.145 HD
ENDBRANCH  12  18
BRANCH  13  21
ATOM     21  C   UNL     1       4.842   3.682   0.761  0.00  0.00    +0.102 C 
ATOM     22  N   UNL     1       5.825   4.160   1.070  0.00  0.00    -0.191 NA
ENDBRANCH  13  21
BRANCH   3  23
ATOM     23  C   UNL     1       2.824   3.908  -2.593  0.00  0.00    +0.339 C 
ATOM     24  O   UNL     1       2.999   4.546  -3.614  0.00  0.00    -0.245 OA
BRANCH  23  25
ATOM     25  O   UNL     1       2.782   2.560  -2.638  0.00  0.00    -0.457 OA
BRANCH  25  26
ATOM     26  C   UNL     1       2.949   1.948  -3.918  0.00  0.00    +0.268 C 
BRANCH  26  27
ATOM     27  C   UNL     1       2.873   0.450  -3.773  0.00  0.00    -0.010 A 
ATOM     28  C   UNL     1       4.022  -0.281  -3.537  0.00  0.00    +0.007 A 
ATOM     29  C   UNL     1       3.952  -1.654  -3.400  0.00  0.00    +0.000 A 
ATOM     30  C   UNL     1       2.733  -2.298  -3.507  0.00  0.00    +0.000 A 
ATOM     31  C   UNL     1       1.585  -1.568  -3.749  0.00  0.00    +0.000 A 
ATOM     32  C   UNL     1       1.655  -0.194  -3.882  0.00  0.00    +0.007 A 
ENDBRANCH  26  27
ENDBRANCH  25  26
ENDBRANCH  23  25
ENDBRANCH   3  23
TORSDOF 6
