REMARK  Name = ZINC01930669
REMARK  11 active torsions:
REMARK  status: ('A' for Active; 'I' for Inactive)
REMARK    1  A    between atoms: C_1  and  C_2
REMARK    2  A    between atoms: C_2  and  O_3
REMARK    3  A    between atoms: O_3  and  C_4
REMARK    4  A    between atoms: C_4  and  C_6
REMARK    5  A    between atoms: C_10  and  N_11
REMARK    6  A    between atoms: C_12  and  C_14
REMARK    7  A    between atoms: C_14  and  N_55
REMARK    8  A    between atoms: C_15  and  C_17
REMARK    9  A    between atoms: C_15  and  C_18
REMARK   10  A    between atoms: C_15  and  N_55
REMARK   11  A    between atoms: C_25  and  C_29
REMARK                            x       y       z     vdW  Elec       q    Type
REMARK                         _______ _______ _______ _____ _____    ______ ____
ROOT
ATOM      1  N   UNL     1      -1.491  -0.852  -2.475  0.00  0.00    -0.281 N 
ATOM      2  C   UNL     1      -2.243  -1.282  -3.508  0.00  0.00    +0.201 C 
ATOM      3  O   UNL     1      -3.268  -1.896  -3.298  0.00  0.00    -0.278 OA
ATOM      4  H   UNL     1      -0.671  -0.361  -2.643  0.00  0.00    +0.155 HD
ENDROOT
BRANCH   1   9
ATOM      5  C   UNL     1      -1.256  -0.753   0.010  0.00  0.00    +0.091 A 
ATOM      6  C   UNL     1      -1.892  -1.146   1.257  0.00  0.00    -0.021 A 
ATOM      7  C   UNL     1      -3.047  -1.832   1.122  0.00  0.00    -0.004 A 
ATOM      8  S   UNL     1      -3.296  -1.961  -0.626  0.00  0.00    -0.077 S 
ATOM      9  C   UNL     1      -1.889  -1.111  -1.173  0.00  0.00    +0.086 A 
ATOM     10  C   UNL     1      -3.916  -2.363   2.220  0.00  0.00    +0.046 C 
ATOM     11  C   UNL     1      -3.111  -2.340   3.528  0.00  0.00    -0.009 C 
ATOM     12  C   UNL     1      -2.442  -0.970   3.671  0.00  0.00    +0.008 C 
ATOM     13  C   UNL     1      -1.327  -0.824   2.634  0.00  0.00    +0.037 C 
ATOM     14  C   UNL     1      -4.048  -2.583   4.712  0.00  0.00    +0.008 C 
BRANCH   5  15
ATOM     15  C   UNL     1       0.002  -0.004   0.002  0.00  0.00    +0.342 C 
ATOM     16  O   UNL     1       1.064  -0.598  -0.011  0.00  0.00    -0.245 OA
BRANCH  15  17
ATOM     17  O   UNL     1      -0.016   1.345   0.009  0.00  0.00    -0.461 OA
BRANCH  17  19
ATOM     18  C   UNL     1       1.047   3.535   0.011  0.00  0.00    +0.048 C 
ATOM     19  C   UNL     1       1.268   2.021   0.001  0.00  0.00    +0.229 C 
ENDBRANCH  17  19
ENDBRANCH  15  17
ENDBRANCH   5  15
ENDBRANCH   1   9
BRANCH   2  20
ATOM     20  C   UNL     1      -1.810  -1.001  -4.924  0.00  0.00    +0.016 C 
BRANCH  20  21
ATOM     21  N   UNL     1      -2.800  -1.575  -5.855  0.00  0.00    +0.389 N 
ATOM     22  H   UNL     1      -3.717  -1.148  -5.679  0.00  0.00    -0.084 HD
ATOM     23  H   UNL     1      -2.860  -2.589  -5.703  0.00  0.00    -0.084 HD
BRANCH  21  24
ATOM     24  C   UNL     1      -2.401  -1.314  -7.251  0.00  0.00    -0.043 C 
ATOM     25  C   UNL     1      -1.428  -2.400  -7.715  0.00  0.00    -0.009 C 
BRANCH  24  26
ATOM     26  C   UNL     1      -3.627  -1.331  -8.127  0.00  0.00    -0.062 A 
ATOM     27  C   UNL     1      -4.618  -2.270  -7.911  0.00  0.00    +0.002 A 
ATOM     28  C   UNL     1      -5.745  -2.282  -8.712  0.00  0.00    +0.000 A 
ATOM     29  C   UNL     1      -5.876  -1.361  -9.734  0.00  0.00    +0.000 A 
ATOM     30  C   UNL     1      -4.883  -0.425  -9.953  0.00  0.00    +0.000 A 
ATOM     31  C   UNL     1      -3.758  -0.410  -9.150  0.00  0.00    +0.002 A 
ENDBRANCH  24  26
ENDBRANCH  21  24
ENDBRANCH  20  21
ENDBRANCH   2  20
TORSDOF 8
