REMARK  Name = ZINC12971216
REMARK  9 active torsions:
REMARK  status: ('A' for Active; 'I' for Inactive)
REMARK    1  A    between atoms: C_4  and  C_7
REMARK    2  A    between atoms: C_8  and  C_28
REMARK    3  A    between atoms: C_10  and  S_13
REMARK    4  A    between atoms: S_13  and  C_14
REMARK    5  A    between atoms: C_14  and  C_15
REMARK    6  A    between atoms: N_17  and  N_18
REMARK    7  A    between atoms: N_18  and  C_19
REMARK    8  A    between atoms: C_19  and  N_21
REMARK    9  A    between atoms: N_21  and  C_22
REMARK                            x       y       z     vdW  Elec       q    Type
REMARK                         _______ _______ _______ _____ _____    ______ ____
ROOT
ATOM      1  C   UNL     1       4.562  -8.506   0.368  0.00  0.00    +0.075 A 
ATOM      2  C   UNL     1       4.977  -7.194   0.254  0.00  0.00    +0.098 A 
ATOM      3  N   UNL     1       3.878  -6.415   0.256  0.00  0.00    -0.221 NA
ATOM      4  C   UNL     1       2.807  -7.165   0.364  0.00  0.00    +0.168 A 
ATOM      5  N   UNL     1       3.182  -8.472   0.443  0.00  0.00    -0.332 N 
ATOM      6  H   UNL     1       2.572  -9.259   0.537  0.00  0.00    +0.168 HD
ENDROOT
BRANCH   1  10
ATOM      7  C   UNL     1       7.031 -11.957   0.487  0.00  0.00    +0.000 A 
ATOM      8  C   UNL     1       5.985 -11.828   1.383  0.00  0.00    +0.001 A 
ATOM      9  C   UNL     1       5.179 -10.709   1.351  0.00  0.00    +0.010 A 
ATOM     10  C   UNL     1       5.420  -9.705   0.410  0.00  0.00    +0.000 A 
ATOM     11  C   UNL     1       6.475  -9.845  -0.496  0.00  0.00    +0.010 A 
ATOM     12  C   UNL     1       7.277 -10.966  -0.448  0.00  0.00    +0.001 A 
ENDBRANCH   1  10
BRANCH   2  13
ATOM     13  C   UNL     1       6.379  -6.728   0.148  0.00  0.00    +0.002 A 
ATOM     14  C   UNL     1       7.392  -7.390   0.842  0.00  0.00    +0.010 A 
ATOM     15  C   UNL     1       8.696  -6.953   0.736  0.00  0.00    +0.001 A 
ATOM     16  C   UNL     1       8.999  -5.854  -0.048  0.00  0.00    +0.000 A 
ATOM     17  C   UNL     1       7.999  -5.190  -0.734  0.00  0.00    +0.001 A 
ATOM     18  C   UNL     1       6.691  -5.620  -0.640  0.00  0.00    +0.010 A 
ENDBRANCH   2  13
BRANCH   4  19
ATOM     19  S   UNL     1       1.148  -6.574   0.409  0.00  0.00    -0.078 S 
BRANCH  19  20
ATOM     20  C   UNL     1       1.444  -4.794   0.267  0.00  0.00    +0.174 C 
BRANCH  20  21
ATOM     21  C   UNL     1       0.126  -4.063   0.284  0.00  0.00    +0.239 C 
ATOM     22  O   UNL     1      -0.911  -4.684   0.382  0.00  0.00    -0.273 OA
ATOM     23  N   UNL     1       0.100  -2.718   0.190  0.00  0.00    -0.234 N 
ATOM     24  H   UNL     1       0.930  -2.222   0.111  0.00  0.00    +0.173 HD
BRANCH  23  25
ATOM     25  N   UNL     1      -1.125  -2.038   0.205  0.00  0.00    -0.246 N 
ATOM     26  H   UNL     1      -1.954  -2.535   0.284  0.00  0.00    +0.172 HD
BRANCH  25  27
ATOM     27  C   UNL     1      -1.150  -0.694   0.111  0.00  0.00    +0.151 C 
ATOM     28  S   UNL     1      -2.647   0.137   0.130  0.00  0.00    -0.017 S 
BRANCH  27  29
ATOM     29  N   UNL     1       0.002  -0.004   0.002  0.00  0.00    -0.296 N 
ATOM     30  H   UNL     1       0.844  -0.477  -0.090  0.00  0.00    +0.154 HD
BRANCH  29  31
ATOM     31  C   UNL     1      -0.016   1.395   0.021  0.00  0.00    +0.033 A 
ATOM     32  C   UNL     1       0.788   2.113  -0.855  0.00  0.00    +0.023 A 
ATOM     33  C   UNL     1       0.764   3.494  -0.837  0.00  0.00    +0.002 A 
ATOM     34  C   UNL     1      -0.051   4.161   0.060  0.00  0.00    +0.000 A 
ATOM     35  C   UNL     1      -0.848   3.449   0.937  0.00  0.00    +0.002 A 
ATOM     36  C   UNL     1      -0.833   2.068   0.920  0.00  0.00    +0.023 A 
ENDBRANCH  29  31
ENDBRANCH  27  29
ENDBRANCH  25  27
ENDBRANCH  23  25
ENDBRANCH  20  21
ENDBRANCH  19  20
ENDBRANCH   4  19
TORSDOF 9
