REMARK  Name = ZINC39752125
REMARK  11 active torsions:
REMARK  status: ('A' for Active; 'I' for Inactive)
REMARK    1  A    between atoms: C_1  and  C_2
REMARK    2  A    between atoms: C_2  and  C_3
REMARK    3  A    between atoms: C_3  and  C_4
REMARK    4  A    between atoms: C_4  and  C_6
REMARK    5  A    between atoms: C_4  and  N_7
REMARK    6  A    between atoms: N_7  and  S_8
REMARK    7  A    between atoms: S_8  and  C_11
REMARK    8  A    between atoms: C_13  and  C_19
REMARK    9  A    between atoms: N_21  and  C_22
REMARK   10  A    between atoms: C_22  and  C_23
REMARK   11  A    between atoms: C_25  and  C_32
REMARK                            x       y       z     vdW  Elec       q    Type
REMARK                         _______ _______ _______ _____ _____    ______ ____
ROOT
ATOM      1  C   UNL     1      -1.134  -5.235  -0.802  0.00  0.00    +0.124 A 
ATOM      2  C   UNL     1      -1.315  -6.288  -1.673  0.00  0.00    +0.044 A 
ATOM      3  C   UNL     1      -2.225  -7.300  -1.362  0.00  0.00    +0.057 A 
ATOM      4  C   UNL     1      -2.949  -7.237  -0.168  0.00  0.00    +0.055 A 
ATOM      5  C   UNL     1      -2.759  -6.177   0.696  0.00  0.00    +0.042 A 
ATOM      6  C   UNL     1      -1.850  -5.181   0.383  0.00  0.00    +0.069 A 
ATOM      7 CL   UNL     1      -1.611  -3.854   1.477  0.00  0.00    -0.081 Cl
ATOM      8 CL   UNL     1      -4.084  -8.489   0.229  0.00  0.00    -0.083 Cl
ENDROOT
BRANCH   3   9
ATOM      9  C   UNL     1      -2.423  -8.431  -2.291  0.00  0.00    +0.246 C 
ATOM     10  O   UNL     1      -3.217  -9.310  -2.017  0.00  0.00    -0.270 OA
ATOM     11  N   UNL     1      -1.724  -8.488  -3.442  0.00  0.00    -0.310 N 
ATOM     12  H   UNL     1      -1.091  -7.787  -3.660  0.00  0.00    +0.149 HD
BRANCH  11  13
ATOM     13  C   UNL     1      -1.921  -9.610  -4.363  0.00  0.00    +0.121 C 
BRANCH  13  14
ATOM     14  C   UNL     1      -1.013  -9.434  -5.582  0.00  0.00    +0.118 C 
ATOM     15  C   UNL     1      -1.333 -10.501  -6.585  0.00  0.00    -0.058 C 
ATOM     16  C   UNL     1      -0.553 -11.554  -6.767  0.00  0.00    +0.022 C 
ATOM     17  C   UNL     1       0.682 -11.697  -5.970  0.00  0.00    +0.026 C 
ATOM     18  N   UNL     1       1.189 -10.571  -5.309  0.00  0.00    -0.285 N 
ATOM     19  C   UNL     1       0.416  -9.489  -5.137  0.00  0.00    +0.226 C 
ATOM     20  O   UNL     1       0.896  -8.514  -4.598  0.00  0.00    -0.275 OA
ATOM     21  C   UNL     1       1.304 -12.876  -5.882  0.00  0.00    +0.033 C 
ATOM     22  C   UNL     1      -2.584 -10.370  -7.414  0.00  0.00    +0.040 C 
ATOM     23  H   UNL     1       2.099 -10.574  -4.976  0.00  0.00    +0.155 HD
ENDBRANCH  13  14
ENDBRANCH  11  13
ENDBRANCH   3   9
BRANCH   1  24
ATOM     24  S   UNL     1       0.015  -3.958  -1.194  0.00  0.00    +0.060 S 
ATOM     25  O   UNL     1       0.565  -4.281  -2.463  0.00  0.00    -0.153 OA
ATOM     26  O   UNL     1       0.822  -3.769  -0.039  0.00  0.00    -0.153 OA
BRANCH  24  27
ATOM     27  N   UNL     1      -0.854  -2.562  -1.396  0.00  0.00    -0.187 NA
ATOM     28  H   UNL     1      -0.737  -1.824  -0.778  0.00  0.00    +0.148 HD
BRANCH  27  29
ATOM     29  C   UNL     1      -1.800  -2.443  -2.509  0.00  0.00    +0.073 C 
ATOM     30  C   UNL     1      -1.110  -1.765  -3.694  0.00  0.00    +0.025 C 
BRANCH  29  31
ATOM     31  C   UNL     1      -3.001  -1.605  -2.069  0.00  0.00    +0.020 C 
BRANCH  31  33
ATOM     32  C   UNL     1      -4.965  -1.504  -0.528  0.00  0.00    +0.004 C 
ATOM     33  C   UNL     1      -3.764  -2.343  -0.968  0.00  0.00    -0.002 C 
ENDBRANCH  31  33
ENDBRANCH  29  31
ENDBRANCH  27  29
ENDBRANCH  24  27
ENDBRANCH   1  24
TORSDOF 8
