REMARK  Name = ZINC39596170
REMARK  10 active torsions:
REMARK  status: ('A' for Active; 'I' for Inactive)
REMARK    1  A    between atoms: C_1  and  C_2
REMARK    2  A    between atoms: C_2  and  S_3
REMARK    3  A    between atoms: S_3  and  C_4
REMARK    4  A    between atoms: C_5  and  C_10
REMARK    5  A    between atoms: C_14  and  C_23
REMARK    6  A    between atoms: N_25  and  C_26
REMARK    7  A    between atoms: C_26  and  C_27
REMARK    8  A    between atoms: C_27  and  C_29
REMARK    9  A    between atoms: C_27  and  O_30
REMARK   10  A    between atoms: O_30  and  C_31
REMARK                            x       y       z     vdW  Elec       q    Type
REMARK                         _______ _______ _______ _____ _____    ______ ____
ROOT
ATOM      1  C   UNL     1       2.451  -3.597  -2.367  0.00  0.00    +0.249 C 
ATOM      2  O   UNL     1       2.464  -2.384  -2.271  0.00  0.00    -0.270 OA
ATOM      3  N   UNL     1       3.042  -4.195  -3.420  0.00  0.00    -0.296 N 
ATOM      4  C   UNL     1       3.042  -5.637  -3.763  0.00  0.00    +0.121 C 
ATOM      5  C   UNL     1       2.895  -5.673  -5.300  0.00  0.00    +0.100 C 
ATOM      6  C   UNL     1       3.421  -4.309  -5.777  0.00  0.00    -0.004 C 
ATOM      7  C   UNL     1       3.833  -3.559  -4.501  0.00  0.00    +0.115 C 
ATOM      8  C   UNL     1       4.626  -4.497  -6.693  0.00  0.00    -0.010 C 
ATOM      9  C   UNL     1       5.095  -3.130  -7.199  0.00  0.00    -0.082 C 
ATOM     10  N   UNL     1       4.001  -2.474  -7.926  0.00  0.00    +0.379 N 
ATOM     11  C   UNL     1       2.881  -2.212  -7.014  0.00  0.00    -0.082 C 
ATOM     12  C   UNL     1       2.318  -3.541  -6.500  0.00  0.00    -0.010 C 
ATOM     13  H   UNL     1       4.331  -1.601  -8.311  0.00  0.00    -0.086 HD
ATOM     14  H   UNL     1       3.690  -3.073  -8.676  0.00  0.00    -0.086 HD
ENDROOT
BRANCH   1  16
ATOM     15  C   UNL     1       0.616  -3.958  -0.705  0.00  0.00    +0.109 A 
ATOM     16  C   UNL     1       1.791  -4.411  -1.331  0.00  0.00    +0.069 A 
ATOM     17  C   UNL     1       2.320  -5.650  -0.953  0.00  0.00    +0.017 A 
ATOM     18  C   UNL     1       1.662  -6.376   0.024  0.00  0.00    +0.020 A 
ATOM     19  C   UNL     1       0.510  -5.864   0.594  0.00  0.00    +0.112 A 
ATOM     20  N   UNL     1       0.029  -4.692   0.229  0.00  0.00    -0.248 NA
BRANCH  15  21
ATOM     21  S   UNL     1      -0.075  -2.401  -1.159  0.00  0.00    -0.105 S 
BRANCH  21  23
ATOM     22  C   UNL     1      -2.246  -0.922  -0.398  0.00  0.00    +0.015 C 
ATOM     23  C   UNL     1      -1.541  -2.247  -0.102  0.00  0.00    +0.072 C 
ENDBRANCH  21  23
ENDBRANCH  15  21
ENDBRANCH   1  16
BRANCH   5  24
ATOM     24  C   UNL     1       3.724  -6.789  -5.881  0.00  0.00    +0.218 C 
ATOM     25  O   UNL     1       4.720  -7.169  -5.302  0.00  0.00    -0.275 OA
ATOM     26  N   UNL     1       3.359  -7.365  -7.043  0.00  0.00    -0.312 N 
ATOM     27  H   UNL     1       2.563  -7.061  -7.506  0.00  0.00    +0.149 HD
BRANCH  26  28
ATOM     28  C   UNL     1       4.165  -8.451  -7.608  0.00  0.00    +0.148 C 
BRANCH  28  29
ATOM     29  C   UNL     1       3.537  -8.924  -8.920  0.00  0.00    +0.187 C 
ATOM     30  C   UNL     1       4.379 -10.057  -9.509  0.00  0.00    +0.053 C 
BRANCH  29  31
ATOM     31  O   UNL     1       2.211  -9.395  -8.671  0.00  0.00    -0.488 OA
BRANCH  31  32
ATOM     32  C   UNL     1       1.339  -9.366  -9.713  0.00  0.00    +0.121 A 
ATOM     33  C   UNL     1       0.006  -9.692  -9.513  0.00  0.00    +0.048 A 
ATOM     34  C   UNL     1      -0.879  -9.662 -10.573  0.00  0.00    +0.042 A 
ATOM     35  C   UNL     1      -0.435  -9.308 -11.836  0.00  0.00    +0.124 A 
ATOM     36  C   UNL     1       0.896  -8.984 -12.038  0.00  0.00    +0.042 A 
ATOM     37  C   UNL     1       1.781  -9.006 -10.978  0.00  0.00    +0.048 A 
ATOM     38  F   UNL     1      -1.301  -9.280 -12.873  0.00  0.00    -0.205 F 
ENDBRANCH  31  32
ENDBRANCH  29  31
ENDBRANCH  28  29
ENDBRANCH  26  28
ENDBRANCH   5  24
TORSDOF 8
