REMARK  Name = ZINC09228484
REMARK  5 active torsions:
REMARK  status: ('A' for Active; 'I' for Inactive)
REMARK    1  A    between atoms: C_3  and  C_7
REMARK    2  A    between atoms: C_7  and  N_60
REMARK    3  A    between atoms: C_8  and  C_9
REMARK    4  A    between atoms: C_8  and  N_60
REMARK    5  A    between atoms: C_24  and  N_63
REMARK                            x       y       z     vdW  Elec       q    Type
REMARK                         _______ _______ _______ _____ _____    ______ ____
ROOT
ATOM      1  C   UNL     1      -4.559   5.223  -2.788  0.00  0.00    +0.009 A 
ATOM      2  C   UNL     1      -5.421   4.476  -3.507  0.00  0.00    +0.021 A 
ATOM      3  C   UNL     1      -5.519   5.057  -4.787  0.00  0.00    +0.020 A 
ATOM      4  C   UNL     1      -4.713   6.138  -4.804  0.00  0.00    +0.093 A 
ATOM      5  N   UNL     1      -4.124   6.250  -3.577  0.00  0.00    -0.300 N 
ATOM      6  C   UNL     1      -3.224   7.246  -3.194  0.00  0.00    +0.202 A 
ATOM      7  N   UNL     1      -2.609   7.438  -2.039  0.00  0.00    -0.121 NA
ATOM      8  N   UNL     1      -1.813   8.399  -1.856  0.00  0.00    -0.124 NA
ATOM      9  C   UNL     1      -1.552   9.282  -2.808  0.00  0.00    +0.186 A 
ATOM     10  S   UNL     1      -2.580   8.634  -4.123  0.00  0.00    -0.013 S 
ATOM     11  N   UNL     1      -0.720  10.394  -2.790  0.00  0.00    -0.312 N 
ATOM     12  C   UNL     1       0.276  10.323  -3.869  0.00  0.00    +0.088 C 
ATOM     13  C   UNL     1       1.120  11.599  -3.865  0.00  0.00    -0.059 C 
ATOM     14  C   UNL     1       0.777  11.819  -1.478  0.00  0.00    -0.059 C 
ATOM     15  C   UNL     1      -0.067  10.542  -1.482  0.00  0.00    +0.088 C 
ATOM     16  N   UNL     1       1.789  11.725  -2.552  0.00  0.00    +0.384 N 
ATOM     17  H   UNL     1       2.369  10.893  -2.393  0.00  0.00    -0.081 HD
ENDROOT
BRANCH  16  18
ATOM     18  C   UNL     1       2.654  12.923  -2.538  0.00  0.00    -0.068 C 
ATOM     19  C   UNL     1       1.817  14.190  -2.726  0.00  0.00    -0.015 C 
ATOM     20  C   UNL     1       2.734  15.415  -2.707  0.00  0.00    -0.002 C 
ATOM     21  C   UNL     1       3.755  15.305  -3.841  0.00  0.00    -0.000 C 
ATOM     22  C   UNL     1       4.592  14.038  -3.653  0.00  0.00    -0.002 C 
ATOM     23  C   UNL     1       3.675  12.814  -3.672  0.00  0.00    -0.015 C 
ENDBRANCH  16  18
BRANCH   1  24
ATOM     24  C   UNL     1      -4.151   4.972  -1.359  0.00  0.00    -0.027 C 
BRANCH  24  25
ATOM     25  N   UNL     1      -2.895   4.199  -1.344  0.00  0.00    +0.385 N 
ATOM     26  H   UNL     1      -3.042   3.304  -1.826  0.00  0.00    -0.085 HD
ATOM     27  H   UNL     1      -2.163   4.732  -1.827  0.00  0.00    -0.085 HD
BRANCH  25  28
ATOM     28  C   UNL     1      -2.471   3.938   0.045  0.00  0.00    -0.045 C 
BRANCH  28  31
ATOM     29  C   UNL     1      -0.013   1.076   0.008  0.00  0.00    +0.020 A 
ATOM     30  C   UNL     1      -1.218   1.762   0.017  0.00  0.00    +0.005 A 
ATOM     31  C   UNL     1      -1.188   3.147   0.029  0.00  0.00    -0.046 A 
ATOM     32  C   UNL     1       0.033   3.795   0.022  0.00  0.00    +0.112 A 
ATOM     33  N   UNL     1       1.159   3.110   0.008  0.00  0.00    -0.263 NA
ATOM     34  C   UNL     1       1.169   1.792   0.001  0.00  0.00    +0.111 A 
ENDBRANCH  28  31
ENDBRANCH  25  28
ENDBRANCH  24  25
ENDBRANCH   1  24
TORSDOF 5
