REMARK  Name = ZINC35438960
REMARK  9 active torsions:
REMARK  status: ('A' for Active; 'I' for Inactive)
REMARK    1  A    between atoms: C_1  and  C_2
REMARK    2  A    between atoms: C_7  and  O_8
REMARK    3  A    between atoms: O_8  and  C_9
REMARK    4  A    between atoms: C_9  and  C_10
REMARK    5  A    between atoms: C_10  and  C_12
REMARK    6  A    between atoms: C_10  and  O_33
REMARK    7  A    between atoms: C_12  and  N_13
REMARK    8  A    between atoms: C_22  and  C_24
REMARK    9  A    between atoms: C_24  and  C_25
REMARK                            x       y       z     vdW  Elec       q    Type
REMARK                         _______ _______ _______ _____ _____    ______ ____
ROOT
ATOM      1  N   UNL     1       0.165   0.059   7.304  0.00  0.00    +0.385 N 
ATOM      2  C   UNL     1       0.484  -0.807   8.450  0.00  0.00    -0.072 C 
ATOM      3  C   UNL     1       0.729   0.076   9.674  0.00  0.00    +0.037 C 
ATOM      4  C   UNL     1      -0.413   1.045   9.842  0.00  0.00    +0.048 A 
ATOM      5  C   UNL     1      -1.283   1.297   8.832  0.00  0.00    +0.022 A 
ATOM      6  C   UNL     1      -2.328   2.222   9.052  0.00  0.00    +0.253 A 
ATOM      7  O   UNL     1      -3.127   2.479   8.167  0.00  0.00    -0.268 OA
ATOM      8  N   UNL     1      -2.424   2.817  10.259  0.00  0.00    -0.310 N 
ATOM      9  H   UNL     1      -3.134   3.455  10.433  0.00  0.00    +0.170 HD
ATOM     10  C   UNL     1      -1.530   2.520  11.224  0.00  0.00    +0.114 A 
ATOM     11  N   UNL     1      -0.565   1.667  11.018  0.00  0.00    -0.238 NA
ATOM     12  C   UNL     1      -1.176   0.623   7.492  0.00  0.00    -0.036 C 
ATOM     13  H   UNL     1       0.840   0.806   7.244  0.00  0.00    -0.081 HD
ENDROOT
BRANCH   1  14
ATOM     14  C   UNL     1       0.196  -0.732   6.066  0.00  0.00    -0.043 C 
BRANCH  14  15
ATOM     15  C   UNL     1       1.629  -1.191   5.790  0.00  0.00    +0.135 C 
BRANCH  15  16
ATOM     16  O   UNL     1       2.475  -0.049   5.643  0.00  0.00    -0.390 OA
ATOM     17  H   UNL     1       2.220   0.539   4.919  0.00  0.00    +0.210 HD
ENDBRANCH  15  16
BRANCH  15  18
ATOM     18  C   UNL     1       1.661  -2.018   4.504  0.00  0.00    +0.258 C 
BRANCH  18  19
ATOM     19  O   UNL     1       2.976  -2.544   4.308  0.00  0.00    -0.489 OA
BRANCH  19  26
ATOM     20  C   UNL     1       5.567  -3.592   3.902  0.00  0.00    +0.047 C 
ATOM     21  C   UNL     1       4.428  -3.850   2.950  0.00  0.00    -0.009 A 
ATOM     22  C   UNL     1       4.628  -4.632   1.828  0.00  0.00    +0.007 A 
ATOM     23  C   UNL     1       3.583  -4.868   0.954  0.00  0.00    +0.000 A 
ATOM     24  C   UNL     1       2.336  -4.324   1.200  0.00  0.00    +0.004 A 
ATOM     25  C   UNL     1       2.131  -3.543   2.321  0.00  0.00    +0.046 A 
ATOM     26  C   UNL     1       3.176  -3.308   3.202  0.00  0.00    +0.124 A 
ENDBRANCH  19  26
ENDBRANCH  18  19
ENDBRANCH  15  18
ENDBRANCH  14  15
ENDBRANCH   1  14
BRANCH  10  27
ATOM     27  C   UNL     1      -1.649   3.189  12.569  0.00  0.00    +0.112 C 
BRANCH  27  28
ATOM     28  C   UNL     1      -0.546   2.700  13.472  0.00  0.00    -0.005 A 
ATOM     29  C   UNL     1      -0.776   1.647  14.337  0.00  0.00    +0.007 A 
ATOM     30  C   UNL     1       0.235   1.199  15.166  0.00  0.00    +0.000 A 
ATOM     31  C   UNL     1       1.479   1.803  15.130  0.00  0.00    +0.003 A 
ATOM     32  C   UNL     1       1.711   2.855  14.265  0.00  0.00    +0.038 A 
ATOM     33  C   UNL     1       0.700   3.302  13.431  0.00  0.00    +0.127 A 
ATOM     34  F   UNL     1       0.928   4.328  12.582  0.00  0.00    -0.205 F 
ENDBRANCH  27  28
ENDBRANCH  10  27
TORSDOF 8
