REMARK  Name = ZINC02476888
REMARK  6 active torsions:
REMARK  status: ('A' for Active; 'I' for Inactive)
REMARK    1  A    between atoms: C_1  and  O_2
REMARK    2  A    between atoms: O_2  and  C_3
REMARK    3  A    between atoms: C_3  and  C_5
REMARK    4  A    between atoms: C_6  and  N_31
REMARK    5  A    between atoms: C_10  and  C_12
REMARK    6  A    between atoms: C_22  and  C_25
REMARK                            x       y       z     vdW  Elec       q    Type
REMARK                         _______ _______ _______ _____ _____    ______ ____
ROOT
ATOM      1  C   UNL     1      -2.131   1.743  -1.211  0.00  0.00    +0.105 C 
ATOM      2  C   UNL     1      -3.128   0.824  -1.123  0.00  0.00    +0.195 C 
ATOM      3  O   UNL     1      -3.443   0.246   0.045  0.00  0.00    -0.446 OA
ATOM      4  C   UNL     1      -3.106   0.845   1.203  0.00  0.00    +0.115 C 
ATOM      5  C   UNL     1      -2.122   1.760   1.258  0.00  0.00    +0.045 C 
ATOM      6  C   UNL     1      -1.356   2.142   0.014  0.00  0.00    +0.099 C 
ATOM      7  C   UNL     1      -1.775   2.392   2.469  0.00  0.00    +0.164 C 
ATOM      8  O   UNL     1      -0.870   3.201   2.481  0.00  0.00    -0.292 OA
ATOM      9  C   UNL     1      -2.507   2.082   3.746  0.00  0.00    +0.088 C 
ATOM     10  C   UNL     1      -3.936   1.645   3.405  0.00  0.00    +0.034 C 
ATOM     11  C   UNL     1      -3.864   0.453   2.450  0.00  0.00    +0.083 C 
ENDROOT
BRANCH   6  12
ATOM     12  C   UNL     1      -0.023   1.440   0.012  0.00  0.00    -0.017 A 
ATOM     13  C   UNL     1       0.032   0.059   0.016  0.00  0.00    +0.006 A 
ATOM     14  C   UNL     1       1.255  -0.585   0.009  0.00  0.00    +0.000 A 
ATOM     15  C   UNL     1       2.424   0.152  -0.002  0.00  0.00    +0.001 A 
ATOM     16  C   UNL     1       2.371   1.533  -0.007  0.00  0.00    +0.020 A 
ATOM     17  C   UNL     1       1.147   2.178   0.001  0.00  0.00    +0.045 A 
ATOM     18 CL   UNL     1       1.080   3.913  -0.004  0.00  0.00    -0.083 Cl
ENDBRANCH   6  12
BRANCH  10  19
ATOM     19  C   UNL     1      -4.657   1.242   4.666  0.00  0.00    -0.043 A 
ATOM     20  C   UNL     1      -4.160   0.215   5.447  0.00  0.00    +0.004 A 
ATOM     21  C   UNL     1      -4.819  -0.152   6.606  0.00  0.00    +0.000 A 
ATOM     22  C   UNL     1      -5.979   0.501   6.978  0.00  0.00    +0.000 A 
ATOM     23  C   UNL     1      -6.478   1.525   6.194  0.00  0.00    +0.000 A 
ATOM     24  C   UNL     1      -5.817   1.895   5.038  0.00  0.00    +0.004 A 
ENDBRANCH  10  19
BRANCH   2  25
ATOM     25  N   UNL     1      -3.824   0.480  -2.250  0.00  0.00    -0.329 N 
ATOM     26  H   UNL     1      -3.556   0.834  -3.113  0.00  0.00    +0.145 HD
ATOM     27  H   UNL     1      -4.586  -0.117  -2.187  0.00  0.00    +0.145 HD
ENDBRANCH   2  25
BRANCH   1  28
ATOM     28  C   UNL     1      -1.824   2.323  -2.451  0.00  0.00    +0.341 C 
ATOM     29  O   UNL     1      -2.222   3.443  -2.716  0.00  0.00    -0.245 OA
BRANCH  28  31
ATOM     30  C   UNL     1      -0.811   2.290  -4.594  0.00  0.00    +0.280 C 
ATOM     31  O   UNL     1      -1.086   1.639  -3.352  0.00  0.00    -0.465 OA
ENDBRANCH  28  31
ENDBRANCH   1  28
TORSDOF 5
