REMARK  Name = ZINC59121296
REMARK  5 active torsions:
REMARK  status: ('A' for Active; 'I' for Inactive)
REMARK    1  A    between atoms: C_7  and  C_11
REMARK    2  A    between atoms: C_11  and  S_12
REMARK    3  A    between atoms: S_12  and  C_13
REMARK    4  A    between atoms: C_16  and  C_19
REMARK    5  A    between atoms: N_17  and  N_18
REMARK                            x       y       z     vdW  Elec       q    Type
REMARK                         _______ _______ _______ _____ _____    ______ ____
ROOT
ATOM      1  C   UNL     1       3.452  -4.660   1.485  0.00  0.00    +0.209 A 
ATOM      2  N   UNL     1       3.434  -5.329   0.356  0.00  0.00    -0.121 NA
ATOM      3  N   UNL     1       3.411  -6.591   0.598  0.00  0.00    -0.132 NA
ATOM      4  C   UNL     1       3.412  -6.801   1.884  0.00  0.00    +0.154 A 
ATOM      5  N   UNL     1       3.444  -5.578   2.495  0.00  0.00    -0.228 N 
ENDROOT
BRANCH   4   6
ATOM      6  C   UNL     1       3.388  -8.142   2.570  0.00  0.00    +0.059 C 
ATOM      7  C   UNL     1       4.621  -8.949   2.156  0.00  0.00    +0.011 C 
ATOM      8  C   UNL     1       4.597 -10.311   2.853  0.00  0.00    +0.001 C 
ATOM      9  C   UNL     1       3.331 -11.069   2.447  0.00  0.00    +0.000 C 
ATOM     10  C   UNL     1       2.099 -10.262   2.862  0.00  0.00    +0.001 C 
ATOM     11  C   UNL     1       2.123  -8.900   2.165  0.00  0.00    +0.011 C 
ENDBRANCH   4   6
BRANCH   5  12
ATOM     12  N   UNL     1       3.462  -5.327   3.838  0.00  0.00    -0.295 N 
ATOM     13  H   UNL     1       2.525  -5.244   4.202  0.00  0.00    +0.163 HD
ATOM     14  H   UNL     1       3.979  -6.039   4.332  0.00  0.00    +0.163 HD
ENDBRANCH   5  12
BRANCH   1  15
ATOM     15  S   UNL     1       3.487  -2.907   1.663  0.00  0.00    -0.080 S 
BRANCH  15  16
ATOM     16  C   UNL     1       3.483  -2.292  -0.044  0.00  0.00    +0.116 C 
BRANCH  16  23
ATOM     17  C   UNL     1      -0.017   1.389   0.010  0.00  0.00    +0.020 A 
ATOM     18  C   UNL     1       1.158   2.086   0.002  0.00  0.00    +0.011 A 
ATOM     19  C   UNL     1       2.362   1.359  -0.013  0.00  0.00    +0.001 A 
ATOM     20  C   UNL     1       3.608   2.008  -0.021  0.00  0.00    +0.011 A 
ATOM     21  C   UNL     1       4.751   1.269  -0.035  0.00  0.00    +0.021 A 
ATOM     22  C   UNL     1       4.702  -0.125  -0.043  0.00  0.00    +0.047 A 
ATOM     23  C   UNL     1       3.512  -0.786  -0.035  0.00  0.00    +0.007 A 
ATOM     24  C   UNL     1       2.310  -0.057  -0.020  0.00  0.00    +0.076 A 
ATOM     25  N   UNL     1       1.126  -0.679  -0.013  0.00  0.00    -0.255 NA
ATOM     26  C   UNL     1       0.002  -0.004   0.002  0.00  0.00    +0.111 A 
ATOM     27 CL   UNL     1       6.183  -1.031  -0.062  0.00  0.00    -0.083 Cl
ENDBRANCH  16  23
ENDBRANCH  15  16
ENDBRANCH   1  15
TORSDOF 5
