REMARK  Name = ZINC01297781
REMARK  7 active torsions:
REMARK  status: ('A' for Active; 'I' for Inactive)
REMARK    1  A    between atoms: C_1  and  C_2
REMARK    2  A    between atoms: C_2  and  C_3
REMARK    3  A    between atoms: C_2  and  C_4
REMARK    4  A    between atoms: C_2  and  C_5
REMARK    5  A    between atoms: C_12  and  C_16
REMARK    6  A    between atoms: N_18  and  N_19
REMARK    7  A    between atoms: C_20  and  C_21
REMARK                            x       y       z     vdW  Elec       q    Type
REMARK                         _______ _______ _______ _____ _____    ______ ____
ROOT
ATOM      1  C   UNL     1       8.051   4.671   0.214  0.00  0.00    +0.276 C 
ATOM      2  O   UNL     1       7.371   5.612   0.568  0.00  0.00    -0.270 OA
ATOM      3  N   UNL     1       7.467   3.495  -0.088  0.00  0.00    -0.204 N 
ATOM      4  H   UNL     1       8.010   2.742  -0.371  0.00  0.00    +0.177 HD
ENDROOT
BRANCH   1  12
ATOM      5  C   UNL     1      13.058   7.964   0.785  0.00  0.00    -0.038 A 
ATOM      6  C   UNL     1      13.914   6.930   1.117  0.00  0.00    +0.008 A 
ATOM      7  C   UNL     1      13.436   5.636   1.203  0.00  0.00    +0.050 A 
ATOM      8  C   UNL     1      12.097   5.371   0.957  0.00  0.00    +0.162 A 
ATOM      9  C   UNL     1      11.237   6.411   0.625  0.00  0.00    +0.163 A 
ATOM     10  C   UNL     1      11.723   7.707   0.539  0.00  0.00    +0.053 A 
ATOM     11  O   UNL     1       9.919   6.174   0.383  0.00  0.00    -0.472 OA
ATOM     12  C   UNL     1       9.547   4.818   0.114  0.00  0.00    +0.297 C 
ATOM     13  C   UNL     1      10.226   3.917   1.155  0.00  0.00    +0.283 C 
ATOM     14  O   UNL     1      11.643   4.091   1.042  0.00  0.00    -0.484 OA
BRANCH   5  16
ATOM     15  C   UNL     1      15.080   9.383   1.007  0.00  0.00    +0.015 C 
ATOM     16  C   UNL     1      13.583   9.374   0.691  0.00  0.00    -0.013 C 
ATOM     17  C   UNL     1      13.357   9.908  -0.725  0.00  0.00    +0.015 C 
ATOM     18  C   UNL     1      12.844  10.261   1.695  0.00  0.00    +0.015 C 
ENDBRANCH   5  16
ENDBRANCH   1  12
BRANCH   3  19
ATOM     19  N   UNL     1       6.076   3.359   0.005  0.00  0.00    -0.188 NA
ATOM     20  C   UNL     1       5.513   2.226  -0.286  0.00  0.00    +0.138 C 
BRANCH  20  21
ATOM     21  C   UNL     1       4.050   2.083  -0.188  0.00  0.00    -0.002 A 
ATOM     22  C   UNL     1       3.265   3.165   0.219  0.00  0.00    +0.013 A 
ATOM     23  C   UNL     1       1.897   3.028   0.310  0.00  0.00    +0.050 A 
ATOM     24  C   UNL     1       1.293   1.818  -0.001  0.00  0.00    +0.166 A 
ATOM     25  C   UNL     1       2.069   0.734  -0.407  0.00  0.00    +0.167 A 
ATOM     26  C   UNL     1       3.442   0.864  -0.501  0.00  0.00    +0.059 A 
ATOM     27  O   UNL     1       1.244  -0.326  -0.651  0.00  0.00    -0.453 OA
ATOM     28  C   UNL     1       0.002  -0.004   0.002  0.00  0.00    +0.466 C 
ATOM     29  O   UNL     1      -0.017   1.435   0.010  0.00  0.00    -0.453 OA
ENDBRANCH  20  21
ENDBRANCH   3  19
TORSDOF 4
