REMARK  Name = ZINC62529897
REMARK  4 active torsions:
REMARK  status: ('A' for Active; 'I' for Inactive)
REMARK    1  A    between atoms: C_1  and  C_2
REMARK    2  A    between atoms: C_4  and  N_17
REMARK    3  A    between atoms: C_5  and  C_16
REMARK    4  A    between atoms: C_9  and  C_11
REMARK                            x       y       z     vdW  Elec       q    Type
REMARK                         _______ _______ _______ _____ _____    ______ ____
ROOT
ATOM      1  C   UNL     1      -0.018   1.503   0.010  0.00  0.00    +0.048 C 
ATOM      2  C   UNL     1       0.002  -0.004   0.002  0.00  0.00    -0.004 A 
ATOM      3  C   UNL     1       0.006  -0.687  -1.196  0.00  0.00    +0.030 A 
ATOM      4  C   UNL     1       0.025  -2.080  -1.213  0.00  0.00    +0.030 A 
ATOM      5  C   UNL     1       0.040  -2.791  -0.026  0.00  0.00    -0.001 A 
ATOM      6  C   UNL     1       0.037  -2.107   1.189  0.00  0.00    +0.114 A 
ATOM      7  C   UNL     1       0.023  -0.704   1.199  0.00  0.00    +0.159 A 
ATOM      8  O   UNL     1       0.029  -0.335   2.500  0.00  0.00    -0.439 OA
ATOM      9  C   UNL     1       0.052  -1.448   3.250  0.00  0.00    +0.200 A 
ATOM     10  N   UNL     1       0.049  -2.503   2.491  0.00  0.00    -0.213 NA
ATOM     11  C   UNL     1       0.060  -4.298  -0.048  0.00  0.00    +0.048 C 
ENDROOT
BRANCH   9  12
ATOM     12  C   UNL     1       0.066  -1.470   4.756  0.00  0.00    +0.075 C 
ATOM     13  C   UNL     1       1.244  -0.625   5.300  0.00  0.00    +0.013 C 
ATOM     14  C   UNL     1       0.772  -0.259   6.729  0.00  0.00    +0.001 C 
ATOM     15  C   UNL     1      -0.742  -0.004   6.573  0.00  0.00    +0.001 C 
ATOM     16  C   UNL     1      -1.190  -0.774   5.319  0.00  0.00    +0.013 C 
ENDBRANCH   9  12
BRANCH   4  17
ATOM     17  N   UNL     1       0.027  -2.761  -2.434  0.00  0.00    -0.358 N 
ATOM     18  H   UNL     1       0.016  -2.264  -3.267  0.00  0.00    +0.142 HD
ATOM     19  H   UNL     1       0.040  -3.731  -2.449  0.00  0.00    +0.142 HD
ENDBRANCH   4  17
TORSDOF 2
