REMARK  Name = ZINC14749229
REMARK  8 active torsions:
REMARK  status: ('A' for Active; 'I' for Inactive)
REMARK    1  A    between atoms: C_1  and  C_2
REMARK    2  A    between atoms: C_2  and  N_3
REMARK    3  A    between atoms: C_4  and  C_6
REMARK    4  A    between atoms: N_9  and  C_11
REMARK    5  A    between atoms: C_11  and  C_12
REMARK    6  A    between atoms: C_19  and  C_21
REMARK    7  A    between atoms: C_25  and  C_31
REMARK    8  A    between atoms: C_27  and  C_30
REMARK                            x       y       z     vdW  Elec       q    Type
REMARK                         _______ _______ _______ _____ _____    ______ ____
ROOT
ATOM      1  C   UNL     1      -7.133   6.410   7.828  0.00  0.00    +0.152 A 
ATOM      2  C   UNL     1      -6.252   5.507   7.213  0.00  0.00    +0.023 A 
ATOM      3  C   UNL     1      -5.012   6.039   7.348  0.00  0.00    +0.046 A 
ATOM      4  N   UNL     1      -5.152   7.197   8.016  0.00  0.00    -0.267 N 
ATOM      5  N   UNL     1      -6.393   7.404   8.290  0.00  0.00    -0.166 NA
ATOM      6  C   UNL     1      -3.753   5.402   6.821  0.00  0.00    +0.074 C 
ATOM      7  C   UNL     1      -4.031   3.914   6.541  0.00  0.00    +0.114 C 
ATOM      8  N   UNL     1      -5.310   3.791   5.827  0.00  0.00    -0.291 N 
ATOM      9  C   UNL     1      -6.544   4.200   6.525  0.00  0.00    +0.147 C 
ATOM     10  C   UNL     1      -5.355   3.312   4.568  0.00  0.00    +0.267 C 
ATOM     11  O   UNL     1      -4.337   2.926   4.028  0.00  0.00    -0.268 OA
ENDROOT
BRANCH  10  12
ATOM     12  C   UNL     1      -6.643   3.255   3.844  0.00  0.00    +0.150 A 
ATOM     13  C   UNL     1      -6.809   2.908   2.499  0.00  0.00    +0.083 A 
ATOM     14  C   UNL     1      -8.163   2.978   2.212  0.00  0.00    +0.157 A 
ATOM     15  N   UNL     1      -8.862   2.746   1.091  0.00  0.00    -0.233 NA
ATOM     16  C   UNL     1     -10.166   2.889   1.070  0.00  0.00    +0.042 A 
ATOM     17  C   UNL     1     -10.854   3.279   2.230  0.00  0.00    +0.046 A 
ATOM     18  C   UNL     1     -10.160   3.512   3.369  0.00  0.00    +0.044 A 
ATOM     19  N   UNL     1      -8.802   3.361   3.365  0.00  0.00    -0.218 N 
ATOM     20  N   UNL     1      -7.832   3.526   4.360  0.00  0.00    -0.160 NA
ATOM     21  C   UNL     1     -10.877   3.933   4.627  0.00  0.00    +0.066 C 
ATOM     22  C   UNL     1     -10.928   2.627  -0.203  0.00  0.00    +0.066 C 
ENDBRANCH  10  12
BRANCH   1  24
ATOM     23  N   UNL     1      -9.319   7.230   8.563  0.00  0.00    -0.310 N 
ATOM     24  C   UNL     1      -8.600   6.275   7.939  0.00  0.00    +0.264 C 
ATOM     25  O   UNL     1      -9.159   5.304   7.468  0.00  0.00    -0.268 OA
ATOM     26  H   UNL     1      -8.873   8.005   8.939  0.00  0.00    +0.149 HD
BRANCH  23  28
ATOM     27  C   UNL     1     -11.341   8.305   9.419  0.00  0.00    +0.024 C 
ATOM     28  C   UNL     1     -10.773   7.097   8.673  0.00  0.00    +0.101 C 
ENDBRANCH  23  28
ENDBRANCH   1  24
BRANCH   4  29
ATOM     29  C   UNL     1      -4.051   8.094   8.379  0.00  0.00    +0.147 C 
BRANCH  29  30
ATOM     30  C   UNL     1      -3.828   9.108   7.255  0.00  0.00    +0.010 C 
ATOM     31  C   UNL     1      -2.483   9.068   6.526  0.00  0.00    +0.005 C 
ATOM     32  C   UNL     1      -2.795  10.211   7.495  0.00  0.00    +0.005 C 
ENDBRANCH  29  30
ENDBRANCH   4  29
TORSDOF 5
