REMARK  Name = ZINC09450021
REMARK  8 active torsions:
REMARK  status: ('A' for Active; 'I' for Inactive)
REMARK    1  A    between atoms: C_1  and  C_2
REMARK    2  A    between atoms: C_2  and  C_4
REMARK    3  A    between atoms: C_2  and  N_56
REMARK    4  A    between atoms: N_10  and  C_11
REMARK    5  A    between atoms: N_10  and  C_12
REMARK    6  A    between atoms: C_16  and  C_19
REMARK    7  A    between atoms: C_19  and  C_20
REMARK    8  A    between atoms: C_20  and  C_21
REMARK                            x       y       z     vdW  Elec       q    Type
REMARK                         _______ _______ _______ _____ _____    ______ ____
ROOT
ATOM      1  C   UNL     1       5.993  -0.986  -2.938  0.00  0.00    -0.078 C 
ATOM      2  C   UNL     1       4.629  -0.293  -2.923  0.00  0.00    -0.015 C 
ATOM      3  C   UNL     1       4.257   0.059  -1.480  0.00  0.00    -0.014 C 
ATOM      4  C   UNL     1       5.349   0.951  -0.883  0.00  0.00    -0.015 C 
ATOM      5  C   UNL     1       6.693   0.222  -0.958  0.00  0.00    -0.078 C 
ATOM      6  N   UNL     1       7.004  -0.067  -2.374  0.00  0.00    +0.386 N 
ATOM      7  H   UNL     1       6.988   0.812  -2.904  0.00  0.00    -0.081 HD
ENDROOT
BRANCH   6   9
ATOM      8  C   UNL     1       8.677  -0.884  -3.961  0.00  0.00    -0.005 C 
ATOM      9  C   UNL     1       8.349  -0.668  -2.482  0.00  0.00    -0.002 C 
BRANCH   9  10
ATOM     10  C   UNL     1       9.357   0.275  -1.877  0.00  0.00    +0.123 A 
ATOM     11  N   UNL     1       9.295   1.567  -2.147  0.00  0.00    -0.201 NA
ATOM     12  C   UNL     1      10.181   2.404  -1.610  0.00  0.00    +0.217 A 
ATOM     13  N   UNL     1      11.134   1.937  -0.811  0.00  0.00    -0.181 NA
ATOM     14  C   UNL     1      11.196   0.636  -0.546  0.00  0.00    +0.222 A 
ATOM     15  N   UNL     1      10.303  -0.193  -1.083  0.00  0.00    -0.201 NA
ATOM     16  N   UNL     1      12.183   0.147   0.284  0.00  0.00    -0.306 N 
ATOM     17  C   UNL     1      12.251  -1.288   0.575  0.00  0.00    +0.132 C 
ATOM     18  C   UNL     1      13.165   1.061   0.873  0.00  0.00    +0.132 C 
ATOM     19  N   UNL     1      10.112   3.754  -1.888  0.00  0.00    -0.327 N 
ATOM     20  H   UNL     1      10.760   4.362  -1.500  0.00  0.00    +0.145 HD
ATOM     21  H   UNL     1       9.416   4.094  -2.472  0.00  0.00    +0.145 HD
ENDBRANCH   9  10
ENDBRANCH   6   9
BRANCH   3  22
ATOM     22  C   UNL     1       2.922   0.806  -1.464  0.00  0.00    +0.008 C 
BRANCH  22  23
ATOM     23  C   UNL     1       2.490   1.048  -0.016  0.00  0.00    +0.035 C 
BRANCH  23  24
ATOM     24  C   UNL     1       1.175   1.783   0.000  0.00  0.00    -0.047 A 
ATOM     25  C   UNL     1      -0.013   1.076   0.008  0.00  0.00    +0.003 A 
ATOM     26  C   UNL     1      -1.219   1.751   0.017  0.00  0.00    +0.000 A 
ATOM     27  C   UNL     1      -1.238   3.133   0.029  0.00  0.00    +0.000 A 
ATOM     28  C   UNL     1      -0.050   3.840   0.022  0.00  0.00    +0.000 A 
ATOM     29  C   UNL     1       1.156   3.165   0.008  0.00  0.00    +0.003 A 
ENDBRANCH  23  24
ENDBRANCH  22  23
ENDBRANCH   3  22
TORSDOF 5
