REMARK  Name = ZINC13672769
REMARK  14 active torsions:
REMARK  status: ('A' for Active; 'I' for Inactive)
REMARK    1  A    between atoms: C_1  and  C_2
REMARK    2  A    between atoms: C_2  and  N_62
REMARK    3  A    between atoms: C_3  and  C_4
REMARK    4  A    between atoms: C_3  and  N_62
REMARK    5  A    between atoms: C_5  and  C_6
REMARK    6  A    between atoms: C_5  and  N_62
REMARK    7  A    between atoms: C_6  and  N_7
REMARK    8  A    between atoms: C_9  and  C_21
REMARK    9  A    between atoms: C_15  and  C_17
REMARK   10  A    between atoms: C_17  and  C_18
REMARK   11  A    between atoms: C_18  and  C_19
REMARK   12  A    between atoms: C_19  and  O_20
REMARK   13  A    between atoms: N_23  and  C_24
REMARK   14  A    between atoms: C_24  and  C_25
REMARK                            x       y       z     vdW  Elec       q    Type
REMARK                         _______ _______ _______ _____ _____    ______ ____
ROOT
ATOM      1  N   UNL     1       3.046   0.670  -0.081  0.00  0.00    -0.342 N 
ATOM      2  C   UNL     1       3.396  -0.625  -0.017  0.00  0.00    +0.103 A 
ATOM      3  C   UNL     1       2.439  -1.617  -0.042  0.00  0.00    +0.100 A 
ATOM      4  C   UNL     1       1.022  -1.252  -0.140  0.00  0.00    +0.202 A 
ATOM      5  O   UNL     1       0.152  -2.108  -0.164  0.00  0.00    -0.286 OA
ATOM      6  C   UNL     1       0.677   0.187  -0.208  0.00  0.00    +0.054 A 
ATOM      7  C   UNL     1       1.755   1.076  -0.172  0.00  0.00    +0.091 A 
ATOM      8  S   UNL     1       0.978   2.671  -0.272  0.00  0.00    -0.075 S 
ATOM      9  C   UNL     1      -0.723   2.143  -0.358  0.00  0.00    -0.007 A 
ATOM     10  C   UNL     1      -0.633   0.806  -0.314  0.00  0.00    +0.025 A 
ENDROOT
BRANCH   3  11
ATOM     11  C   UNL     1       2.836  -3.033   0.029  0.00  0.00    +0.249 C 
ATOM     12  O   UNL     1       1.988  -3.904   0.006  0.00  0.00    -0.270 OA
ATOM     13  N   UNL     1       4.140  -3.363   0.119  0.00  0.00    -0.307 N 
ATOM     14  H   UNL     1       4.816  -2.668   0.137  0.00  0.00    +0.149 HD
BRANCH  13  15
ATOM     15  C   UNL     1       4.535  -4.772   0.189  0.00  0.00    +0.139 C 
BRANCH  15  16
ATOM     16  C   UNL     1       6.036  -4.868   0.283  0.00  0.00    -0.030 A 
ATOM     17  C   UNL     1       6.796  -4.957  -0.868  0.00  0.00    +0.006 A 
ATOM     18  C   UNL     1       8.174  -5.039  -0.783  0.00  0.00    +0.020 A 
ATOM     19  C   UNL     1       8.790  -5.044   0.456  0.00  0.00    +0.041 A 
ATOM     20  C   UNL     1       8.028  -4.961   1.608  0.00  0.00    +0.020 A 
ATOM     21  C   UNL     1       6.652  -4.873   1.521  0.00  0.00    +0.006 A 
ATOM     22 CL   UNL     1      10.519  -5.155   0.564  0.00  0.00    -0.084 Cl
ENDBRANCH  15  16
ENDBRANCH  13  15
ENDBRANCH   3  11
BRANCH   1  23
ATOM     23  C   UNL     1       4.102   1.685  -0.050  0.00  0.00    +0.104 C 
BRANCH  23  24
ATOM     24  C   UNL     1       4.296   2.177   1.386  0.00  0.00    -0.057 C 
BRANCH  24  25
ATOM     25  N   UNL     1       5.378   3.184   1.403  0.00  0.00    +0.380 N 
ATOM     26  H   UNL     1       6.203   2.795   0.932  0.00  0.00    -0.082 HD
BRANCH  25  28
ATOM     27  C   UNL     1       3.715   5.013   1.359  0.00  0.00    -0.017 C 
ATOM     28  C   UNL     1       4.945   4.402   0.686  0.00  0.00    -0.082 C 
ENDBRANCH  25  28
BRANCH  25  29
ATOM     29  C   UNL     1       5.734   3.518   2.798  0.00  0.00    -0.082 C 
ATOM     30  C   UNL     1       7.069   4.265   2.798  0.00  0.00    -0.017 C 
ENDBRANCH  25  29
ENDBRANCH  24  25
ENDBRANCH  23  24
ENDBRANCH   1  23
BRANCH   9  31
ATOM     31  C   UNL     1      -1.962   2.995  -0.461  0.00  0.00    +0.045 C 
BRANCH  31  32
ATOM     32  C   UNL     1      -2.468   3.331   0.943  0.00  0.00    +0.033 C 
BRANCH  32  33
ATOM     33  C   UNL     1      -3.727   4.196   0.838  0.00  0.00    +0.156 C 
BRANCH  33  34
ATOM     34  O   UNL     1      -4.199   4.510   2.150  0.00  0.00    -0.395 OA
ATOM     35  H   UNL     1      -4.997   5.057   2.160  0.00  0.00    +0.209 HD
ENDBRANCH  33  34
ENDBRANCH  32  33
ENDBRANCH  31  32
ENDBRANCH   9  31
TORSDOF 12
