REMARK  Name = ZINC00778228
REMARK  9 active torsions:
REMARK  status: ('A' for Active; 'I' for Inactive)
REMARK    1  A    between atoms: C_5  and  C_7
REMARK    2  A    between atoms: C_7  and  O_8
REMARK    3  A    between atoms: O_8  and  C_9
REMARK    4  A    between atoms: C_14  and  C_15
REMARK    5  A    between atoms: C_16  and  C_17
REMARK    6  A    between atoms: C_16  and  C_19
REMARK    7  A    between atoms: N_21  and  C_22
REMARK    8  A    between atoms: C_25  and  S_28
REMARK    9  A    between atoms: S_28  and  N_31
REMARK                            x       y       z     vdW  Elec       q    Type
REMARK                         _______ _______ _______ _____ _____    ______ ____
ROOT
ATOM      1  C   UNL     1      -0.184   1.147  -0.544  0.00  0.00    +0.035 C 
ATOM      2  C   UNL     1      -1.172   1.609   0.298  0.00  0.00    +0.114 C 
ENDROOT
BRANCH   1   8
ATOM      3  C   UNL     1       2.252   1.378  -1.002  0.00  0.00    +0.128 A 
ATOM      4  C   UNL     1       3.356   2.173  -1.264  0.00  0.00    +0.046 A 
ATOM      5  C   UNL     1       3.221   3.546  -1.331  0.00  0.00    +0.004 A 
ATOM      6  C   UNL     1       1.983   4.141  -1.145  0.00  0.00    +0.001 A 
ATOM      7  C   UNL     1       0.872   3.370  -0.888  0.00  0.00    +0.011 A 
ATOM      8  C   UNL     1       0.992   1.975  -0.816  0.00  0.00    +0.018 A 
BRANCH   3   9
ATOM      9  O   UNL     1       2.384   0.030  -0.930  0.00  0.00    -0.487 OA
BRANCH   9  10
ATOM     10  C   UNL     1       3.694  -0.505  -1.129  0.00  0.00    +0.266 C 
BRANCH  10  15
ATOM     11  C   UNL     1       2.404  -4.020  -0.644  0.00  0.00    +0.000 A 
ATOM     12  C   UNL     1       3.560  -4.763  -0.801  0.00  0.00    +0.001 A 
ATOM     13  C   UNL     1       4.759  -4.128  -1.063  0.00  0.00    +0.020 A 
ATOM     14  C   UNL     1       4.803  -2.749  -1.170  0.00  0.00    +0.047 A 
ATOM     15  C   UNL     1       3.647  -2.007  -1.014  0.00  0.00    +0.008 A 
ATOM     16  C   UNL     1       2.449  -2.642  -0.746  0.00  0.00    +0.008 A 
ATOM     17 CL   UNL     1       6.310  -1.952  -1.500  0.00  0.00    -0.083 Cl
ENDBRANCH  10  15
ENDBRANCH   9  10
ENDBRANCH   3   9
ENDBRANCH   1   8
BRANCH   2  18
ATOM     18  C   UNL     1      -2.422   0.849   0.452  0.00  0.00    +0.259 C 
ATOM     19  O   UNL     1      -2.584  -0.187  -0.164  0.00  0.00    -0.269 OA
ATOM     20  N   UNL     1      -3.388   1.301   1.276  0.00  0.00    -0.281 N 
ATOM     21  H   UNL     1      -3.291   2.162   1.712  0.00  0.00    +0.155 HD
BRANCH  20  22
ATOM     22  C   UNL     1      -4.531   0.528   1.503  0.00  0.00    +0.034 A 
ATOM     23  C   UNL     1      -5.770   1.141   1.642  0.00  0.00    +0.025 A 
ATOM     24  C   UNL     1      -6.897   0.375   1.860  0.00  0.00    +0.030 A 
ATOM     25  C   UNL     1      -6.793  -1.001   1.952  0.00  0.00    +0.105 A 
ATOM     26  C   UNL     1      -5.561  -1.614   1.820  0.00  0.00    +0.030 A 
ATOM     27  C   UNL     1      -4.430  -0.854   1.596  0.00  0.00    +0.025 A 
BRANCH  25  28
ATOM     28  S   UNL     1      -8.234  -1.975   2.237  0.00  0.00    +0.056 S 
ATOM     29  O   UNL     1      -9.339  -1.208   1.780  0.00  0.00    -0.153 OA
ATOM     30  O   UNL     1      -7.950  -3.275   1.738  0.00  0.00    -0.153 OA
BRANCH  28  31
ATOM     31  N   UNL     1      -8.407  -2.125   3.877  0.00  0.00    -0.204 NA
ATOM     32  H   UNL     1      -7.766  -1.706   4.473  0.00  0.00    +0.144 HD
ATOM     33  H   UNL     1      -9.149  -2.631   4.242  0.00  0.00    +0.144 HD
ENDBRANCH  28  31
ENDBRANCH  25  28
ENDBRANCH  20  22
ENDBRANCH   2  18
BRANCH   2  34
ATOM     34  C   UNL     1      -0.982   2.829   1.024  0.00  0.00    +0.104 C 
ATOM     35  N   UNL     1      -0.831   3.796   1.600  0.00  0.00    -0.191 NA
ENDBRANCH   2  34
TORSDOF 9
