REMARK  Name = ZINC12009295
REMARK  5 active torsions:
REMARK  status: ('A' for Active; 'I' for Inactive)
REMARK    1  A    between atoms: C_4  and  C_7
REMARK    2  A    between atoms: C_16  and  N_25
REMARK    3  A    between atoms: C_18  and  C_20
REMARK    4  A    between atoms: C_26  and  C_28
REMARK    5  A    between atoms: C_28  and  C_29
REMARK                            x       y       z     vdW  Elec       q    Type
REMARK                         _______ _______ _______ _____ _____    ______ ____
ROOT
ATOM      1  C   UNL     1       1.095   9.144   0.424  0.00  0.00    +0.080 A 
ATOM      2  C   UNL     1       1.087  10.435   0.928  0.00  0.00    +0.098 A 
ATOM      3  C   UNL     1       1.096  10.614   2.321  0.00  0.00    +0.253 A 
ATOM      4  O   UNL     1       1.088  11.735   2.803  0.00  0.00    -0.268 OA
ATOM      5  N   UNL     1       1.106   9.524   3.116  0.00  0.00    -0.291 N 
ATOM      6  H   UNL     1       1.109   9.629   4.081  0.00  0.00    +0.172 HD
ATOM      7  C   UNL     1       1.119   8.279   2.569  0.00  0.00    +0.234 A 
ATOM      8  N   UNL     1       1.111   8.102   1.268  0.00  0.00    -0.212 NA
ATOM      9  N   UNL     1       1.136   7.176   3.401  0.00  0.00    -0.184 N 
ATOM     10  C   UNL     1       1.145   5.869   3.002  0.00  0.00    +0.132 A 
ATOM     11  C   UNL     1       1.167   5.098   4.118  0.00  0.00    +0.077 A 
ATOM     12  C   UNL     1       1.165   5.957   5.237  0.00  0.00    +0.130 A 
ATOM     13  N   UNL     1       1.143   7.200   4.801  0.00  0.00    -0.159 NA
ENDROOT
BRANCH   1  17
ATOM     14  C   UNL     1       1.066   8.490  -3.776  0.00  0.00    +0.000 A 
ATOM     15  C   UNL     1       1.084   7.411  -2.910  0.00  0.00    +0.001 A 
ATOM     16  C   UNL     1       1.093   7.617  -1.546  0.00  0.00    +0.010 A 
ATOM     17  C   UNL     1       1.085   8.916  -1.040  0.00  0.00    +0.001 A 
ATOM     18  C   UNL     1       1.063  10.000  -1.917  0.00  0.00    +0.010 A 
ATOM     19  C   UNL     1       1.059   9.781  -3.279  0.00  0.00    +0.001 A 
ENDBRANCH   1  17
BRANCH  12  20
ATOM     20  C   UNL     1       1.185   5.535   6.654  0.00  0.00    +0.155 A 
ATOM     21  C   UNL     1       1.188   6.363   7.732  0.00  0.00    +0.051 A 
ATOM     22  C   UNL     1       1.206   5.539   8.876  0.00  0.00    +0.042 A 
ATOM     23  C   UNL     1       1.221   4.263   8.443  0.00  0.00    +0.196 A 
ATOM     24  O   UNL     1       1.208   4.265   7.100  0.00  0.00    -0.461 OA
ENDBRANCH  12  20
BRANCH  10  25
ATOM     25  N   UNL     1       1.140   5.411   1.686  0.00  0.00    -0.270 N 
ATOM     26  C   UNL     1       1.156   4.088   1.433  0.00  0.00    +0.223 C 
ATOM     27  O   UNL     1       1.176   3.295   2.351  0.00  0.00    -0.275 OA
ATOM     28  H   UNL     1       1.124   6.045   0.952  0.00  0.00    +0.156 HD
BRANCH  26  29
ATOM     29  C   UNL     1       1.150   3.592   0.010  0.00  0.00    +0.131 C 
BRANCH  29  30
ATOM     30  C   UNL     1       1.171   2.086   0.002  0.00  0.00    -0.039 A 
ATOM     31  C   UNL     1      -0.017   1.378   0.010  0.00  0.00    +0.005 A 
ATOM     32  C   UNL     1       0.002  -0.004   0.002  0.00  0.00    +0.020 A 
ATOM     33  C   UNL     1       1.210  -0.679  -0.013  0.00  0.00    +0.041 A 
ATOM     34  C   UNL     1       2.398   0.030  -0.021  0.00  0.00    +0.020 A 
ATOM     35  C   UNL     1       2.378   1.412  -0.013  0.00  0.00    +0.005 A 
ATOM     36 CL   UNL     1       1.234  -2.415  -0.022  0.00  0.00    -0.084 Cl
ENDBRANCH  29  30
ENDBRANCH  26  29
ENDBRANCH  10  25
TORSDOF 5
