REMARK  Name = ZINC00470095
REMARK  7 active torsions:
REMARK  status: ('A' for Active; 'I' for Inactive)
REMARK    1  A    between atoms: C_3  and  C_6
REMARK    2  A    between atoms: C_9  and  C_15
REMARK    3  A    between atoms: N_10  and  N_11
REMARK    4  A    between atoms: N_11  and  C_12
REMARK    5  A    between atoms: C_12  and  N_14
REMARK    6  A    between atoms: C_15  and  C_16
REMARK    7  A    between atoms: C_16  and  C_17
REMARK                            x       y       z     vdW  Elec       q    Type
REMARK                         _______ _______ _______ _____ _____    ______ ____
ROOT
ATOM      1  C   UNL     1      -3.142   0.179  -0.553  0.00  0.00    +0.075 A 
ATOM      2  C   UNL     1      -3.903  -0.143   0.533  0.00  0.00    +0.030 A 
ATOM      3  C   UNL     1      -4.301   1.062   1.136  0.00  0.00    +0.025 A 
ATOM      4  C   UNL     1      -3.776   2.076   0.416  0.00  0.00    +0.040 A 
ATOM      5  N   UNL     1      -3.061   1.547  -0.620  0.00  0.00    -0.263 N 
ENDROOT
BRANCH   1   8
ATOM      6  C   UNL     1      -1.996  -2.819  -2.554  0.00  0.00    +0.008 A 
ATOM      7  C   UNL     1      -2.700  -2.128  -1.592  0.00  0.00    +0.017 A 
ATOM      8  C   UNL     1      -2.516  -0.773  -1.487  0.00  0.00    +0.037 A 
ATOM      9  S   UNL     1      -1.326  -0.463  -2.781  0.00  0.00    -0.095 S 
ATOM     10  C   UNL     1      -1.145  -2.140  -3.365  0.00  0.00    +0.046 A 
ENDBRANCH   1   8
BRANCH   5  11
ATOM     11  N   UNL     1      -2.366   2.279  -1.592  0.00  0.00    -0.234 N 
ATOM     12  H   UNL     1      -2.555   2.138  -2.533  0.00  0.00    +0.175 HD
BRANCH  11  13
ATOM     13  C   UNL     1      -1.435   3.180  -1.220  0.00  0.00    +0.146 C 
ATOM     14  S   UNL     1      -1.201   3.533   0.439  0.00  0.00    -0.017 S 
BRANCH  13  15
ATOM     15  N   UNL     1      -0.685   3.799  -2.153  0.00  0.00    -0.339 N 
ATOM     16  H   UNL     1      -0.012   4.444  -1.884  0.00  0.00    +0.144 HD
ATOM     17  H   UNL     1      -0.818   3.599  -3.092  0.00  0.00    +0.144 HD
ENDBRANCH  13  15
ENDBRANCH  11  13
ENDBRANCH   5  11
BRANCH   4  18
ATOM     18  C   UNL     1      -3.950   3.544   0.707  0.00  0.00    +0.066 C 
BRANCH  18  19
ATOM     19  C   UNL     1      -3.800   3.788   2.210  0.00  0.00    +0.131 C 
BRANCH  19  20
ATOM     20  C   UNL     1      -4.017   5.250   2.506  0.00  0.00    +0.356 C 
ATOM     21  O   UNL     1      -4.265   6.018   1.607  0.00  0.00    -0.246 OA
ATOM     22  O   UNL     1      -3.934   5.698   3.768  0.00  0.00    -0.246 OA
ENDBRANCH  19  20
ENDBRANCH  18  19
ENDBRANCH   4  18
TORSDOF 7
