REMARK  Name = ZINC09871682
REMARK  13 active torsions:
REMARK  status: ('A' for Active; 'I' for Inactive)
REMARK    1  A    between atoms: C_1  and  C_2
REMARK    2  A    between atoms: C_2  and  C_3
REMARK    3  A    between atoms: C_3  and  C_4
REMARK    4  A    between atoms: C_4  and  N_5
REMARK    5  A    between atoms: N_13  and  N_14
REMARK    6  A    between atoms: C_15  and  C_17
REMARK    7  A    between atoms: C_17  and  C_18
REMARK    8  A    between atoms: C_18  and  C_19
REMARK    9  A    between atoms: N_21  and  N_22
REMARK   10  A    between atoms: N_30  and  C_33
REMARK   11  A    between atoms: C_33  and  C_34
REMARK   12  A    between atoms: C_34  and  C_35
REMARK   13  A    between atoms: C_35  and  C_36
REMARK                            x       y       z     vdW  Elec       q    Type
REMARK                         _______ _______ _______ _____ _____    ______ ____
ROOT
ATOM      1  C   UNL     1       3.853  -5.156   8.524  0.00  0.00    +0.107 C 
ENDROOT
BRANCH   1   3
ATOM      2  N   UNL     1       2.861  -4.136   6.500  0.00  0.00    -0.206 N 
ATOM      3  C   UNL     1       2.682  -4.606   7.751  0.00  0.00    +0.233 C 
ATOM      4  O   UNL     1       1.580  -4.585   8.255  0.00  0.00    -0.274 OA
ATOM      5  H   UNL     1       3.743  -4.153   6.097  0.00  0.00    +0.177 HD
BRANCH   2  14
ATOM      6  N   UNL     1       1.496  -2.441   2.447  0.00  0.00    -0.266 N 
ATOM      7  C   UNL     1       2.791  -2.945   2.415  0.00  0.00    +0.046 A 
ATOM      8  C   UNL     1       3.739  -2.994   1.398  0.00  0.00    +0.024 A 
ATOM      9  C   UNL     1       4.976  -3.560   1.630  0.00  0.00    +0.002 A 
ATOM     10  C   UNL     1       5.289  -4.085   2.873  0.00  0.00    +0.001 A 
ATOM     11  C   UNL     1       4.362  -4.046   3.894  0.00  0.00    +0.012 A 
ATOM     12  C   UNL     1       3.113  -3.477   3.670  0.00  0.00    +0.028 A 
ATOM     13  C   UNL     1       1.920  -3.279   4.526  0.00  0.00    +0.153 C 
ATOM     14  N   UNL     1       1.772  -3.625   5.782  0.00  0.00    -0.175 NA
ATOM     15  C   UNL     1       0.935  -2.602   3.658  0.00  0.00    +0.271 C 
ATOM     16  O   UNL     1      -0.185  -2.254   3.981  0.00  0.00    -0.268 OA
BRANCH   6  17
ATOM     17  C   UNL     1       0.828  -1.809   1.306  0.00  0.00    +0.114 C 
BRANCH  17  18
ATOM     18  C   UNL     1       1.111  -0.305   1.319  0.00  0.00    +0.019 C 
BRANCH  18  20
ATOM     19  C   UNL     1       0.697   1.859   0.141  0.00  0.00    +0.004 C 
ATOM     20  C   UNL     1       0.414   0.355   0.128  0.00  0.00    -0.002 C 
ENDBRANCH  18  20
ENDBRANCH  17  18
ENDBRANCH   6  17
ENDBRANCH   2  14
ENDBRANCH   1   3
BRANCH   1  21
ATOM     21  C   UNL     1       3.382  -5.618   9.904  0.00  0.00    +0.107 C 
BRANCH  21  22
ATOM     22  C   UNL     1       4.553  -6.169  10.677  0.00  0.00    +0.233 C 
ATOM     23  O   UNL     1       5.655  -6.190  10.173  0.00  0.00    -0.274 OA
ATOM     24  N   UNL     1       4.374  -6.638  11.927  0.00  0.00    -0.206 N 
ATOM     25  H   UNL     1       3.492  -6.621  12.330  0.00  0.00    +0.177 HD
BRANCH  24  26
ATOM     26  N   UNL     1       5.462  -7.150  12.646  0.00  0.00    -0.175 NA
ATOM     27  C   UNL     1       5.289  -7.606  13.862  0.00  0.00    +0.153 C 
ATOM     28  C   UNL     1       6.314  -8.174  14.768  0.00  0.00    +0.028 A 
ATOM     29  C   UNL     1       7.681  -8.394  14.639  0.00  0.00    +0.012 A 
ATOM     30  C   UNL     1       8.386  -8.955  15.685  0.00  0.00    +0.001 A 
ATOM     31  C   UNL     1       7.732  -9.297  16.858  0.00  0.00    +0.002 A 
ATOM     32  C   UNL     1       6.376  -9.084  16.994  0.00  0.00    +0.024 A 
ATOM     33  C   UNL     1       5.649  -8.519  15.951  0.00  0.00    +0.046 A 
ATOM     34  N   UNL     1       4.301  -8.203  15.830  0.00  0.00    -0.266 N 
ATOM     35  C   UNL     1       4.029  -7.660  14.631  0.00  0.00    +0.271 C 
ATOM     36  O   UNL     1       2.938  -7.282  14.247  0.00  0.00    -0.268 OA
BRANCH  34  37
ATOM     37  C   UNL     1       3.303  -8.427  16.880  0.00  0.00    +0.114 C 
BRANCH  37  38
ATOM     38  C   UNL     1       3.217  -7.190  17.775  0.00  0.00    +0.019 C 
BRANCH  38  39
ATOM     39  C   UNL     1       2.175  -7.424  18.870  0.00  0.00    -0.002 C 
ATOM     40  C   UNL     1       2.089  -6.187  19.766  0.00  0.00    +0.004 C 
ENDBRANCH  38  39
ENDBRANCH  37  38
ENDBRANCH  34  37
ENDBRANCH  24  26
ENDBRANCH  21  22
ENDBRANCH   1  21
TORSDOF 11
