REMARK  Name = ZINC13130817
REMARK  9 active torsions:
REMARK  status: ('A' for Active; 'I' for Inactive)
REMARK    1  A    between atoms: C_3  and  C_9
REMARK    2  A    between atoms: C_6  and  C_7
REMARK    3  A    between atoms: C_12  and  O_15
REMARK    4  A    between atoms: O_15  and  C_16
REMARK    5  A    between atoms: C_16  and  C_17
REMARK    6  A    between atoms: N_19  and  N_20
REMARK    7  A    between atoms: C_21  and  C_23
REMARK    8  A    between atoms: C_23  and  N_24
REMARK    9  A    between atoms: C_25  and  C_27
REMARK                            x       y       z     vdW  Elec       q    Type
REMARK                         _______ _______ _______ _____ _____    ______ ____
ROOT
ATOM      1  C   UNL     1       7.924  -5.659  -0.104  0.00  0.00    +0.267 C 
ATOM      2  O   UNL     1       7.328  -6.715  -0.104  0.00  0.00    -0.271 OA
ATOM      3  N   UNL     1       7.239  -4.498  -0.091  0.00  0.00    -0.232 N 
ATOM      4  H   UNL     1       7.716  -3.654  -0.091  0.00  0.00    +0.173 HD
ENDROOT
BRANCH   3   5
ATOM      5  N   UNL     1       5.838  -4.512  -0.078  0.00  0.00    -0.233 N 
ATOM      6  C   UNL     1       5.153  -3.352  -0.065  0.00  0.00    +0.246 C 
ATOM      7  O   UNL     1       5.749  -2.295  -0.065  0.00  0.00    -0.273 OA
ATOM      8  H   UNL     1       5.361  -5.357  -0.078  0.00  0.00    +0.173 HD
BRANCH   6   9
ATOM      9  C   UNL     1       3.646  -3.366  -0.051  0.00  0.00    +0.202 C 
BRANCH   9  10
ATOM     10  N   UNL     1       3.145  -1.990  -0.039  0.00  0.00    -0.300 N 
ATOM     11  C   UNL     1       1.817  -1.756  -0.025  0.00  0.00    +0.280 C 
ATOM     12  O   UNL     1       1.035  -2.689  -0.022  0.00  0.00    -0.267 OA
ATOM     13  H   UNL     1       3.768  -1.246  -0.041  0.00  0.00    +0.150 HD
BRANCH  11  14
ATOM     14  C   UNL     1       1.315  -0.380  -0.013  0.00  0.00    +0.191 A 
ATOM     15  C   UNL     1       0.002  -0.004   0.002  0.00  0.00    +0.056 A 
ATOM     16  C   UNL     1      -0.017   1.399   0.010  0.00  0.00    +0.058 A 
ATOM     17  C   UNL     1       1.271   1.814  -0.000  0.00  0.00    +0.171 A 
ATOM     18  O   UNL     1       2.070   0.740  -0.014  0.00  0.00    -0.444 OA
ATOM     19 BR   UNL     1       1.847   3.615   0.003  0.00  0.00    -0.008 Br
ENDBRANCH  11  14
ENDBRANCH   9  10
ENDBRANCH   6   9
ENDBRANCH   3   5
BRANCH   1  20
ATOM     20  C   UNL     1       9.431  -5.644  -0.118  0.00  0.00    +0.326 C 
BRANCH  20  21
ATOM     21  O   UNL     1       9.920  -6.987  -0.130  0.00  0.00    -0.483 OA
BRANCH  21  25
ATOM     22  C   UNL     1      14.018  -7.488  -0.173  0.00  0.00    -0.018 A 
ATOM     23  C   UNL     1      13.178  -8.601  -0.171  0.00  0.00    +0.012 A 
ATOM     24  C   UNL     1      11.810  -8.430  -0.156  0.00  0.00    +0.046 A 
ATOM     25  C   UNL     1      11.269  -7.152  -0.144  0.00  0.00    +0.121 A 
ATOM     26  C   UNL     1      12.102  -6.041  -0.152  0.00  0.00    +0.046 A 
ATOM     27  C   UNL     1      13.471  -6.205  -0.161  0.00  0.00    +0.012 A 
BRANCH  22  30
ATOM     28  C   UNL     1      17.694  -6.718  -0.207  0.00  0.00    +0.019 A 
ATOM     29  C   UNL     1      16.328  -6.553  -0.192  0.00  0.00    +0.010 A 
ATOM     30  C   UNL     1      15.489  -7.668  -0.190  0.00  0.00    -0.018 A 
ATOM     31  C   UNL     1      16.035  -8.952  -0.197  0.00  0.00    +0.010 A 
ATOM     32  C   UNL     1      17.400  -9.121  -0.218  0.00  0.00    +0.019 A 
ATOM     33  C   UNL     1      18.242  -8.005  -0.220  0.00  0.00    +0.052 A 
BRANCH  33  34
ATOM     34  C   UNL     1      19.663  -8.178  -0.235  0.00  0.00    +0.099 C 
ATOM     35  N   UNL     1      20.791  -8.316  -0.247  0.00  0.00    -0.191 NA
ENDBRANCH  33  34
ENDBRANCH  22  30
ENDBRANCH  21  25
ENDBRANCH  20  21
ENDBRANCH   1  20
TORSDOF 9
