REMARK  Name = ZINC44772528
REMARK  5 active torsions:
REMARK  status: ('A' for Active; 'I' for Inactive)
REMARK    1  A    between atoms: C_1  and  C_2
REMARK    2  A    between atoms: C_15  and  C_17
REMARK    3  A    between atoms: C_17  and  O_18
REMARK    4  A    between atoms: O_18  and  C_19
REMARK    5  A    between atoms: C_24  and  C_25
REMARK                            x       y       z     vdW  Elec       q    Type
REMARK                         _______ _______ _______ _____ _____    ______ ____
ROOT
ATOM      1  C   UNL     1      -0.019   1.526   0.010  0.00  0.00    +0.029 C 
ATOM      2  C   UNL     1       0.002  -0.004   0.002  0.00  0.00    +0.087 C 
ATOM      3  C   UNL     1      -1.433  -0.532   0.009  0.00  0.00    +0.118 C 
ATOM      4  C   UNL     1      -1.448  -1.987   0.396  0.00  0.00    +0.219 C 
ATOM      5  O   UNL     1      -1.623  -2.835  -0.454  0.00  0.00    -0.275 OA
ATOM      6  N   UNL     1      -1.268  -2.354   1.683  0.00  0.00    -0.284 N 
ATOM      7  C   UNL     1      -0.970  -1.397   2.659  0.00  0.00    +0.055 A 
ATOM      8  C   UNL     1      -1.673  -1.354   3.851  0.00  0.00    +0.025 A 
ATOM      9  C   UNL     1      -1.345  -0.414   4.811  0.00  0.00    +0.002 A 
ATOM     10  C   UNL     1      -0.316   0.482   4.584  0.00  0.00    +0.002 A 
ATOM     11  C   UNL     1       0.385   0.452   3.393  0.00  0.00    +0.025 A 
ATOM     12  C   UNL     1       0.054  -0.479   2.422  0.00  0.00    +0.058 A 
ATOM     13  N   UNL     1       0.714  -0.487   1.187  0.00  0.00    -0.264 N 
ATOM     14  C   UNL     1       1.982  -0.932   1.091  0.00  0.00    +0.258 C 
ATOM     15  O   UNL     1       2.545  -0.934   0.017  0.00  0.00    -0.272 OA
ATOM     16  H   UNL     1      -1.347  -3.288   1.933  0.00  0.00    +0.155 HD
ENDROOT
BRANCH  14  17
ATOM     17  C   UNL     1       2.702  -1.427   2.320  0.00  0.00    +0.325 C 
BRANCH  17  18
ATOM     18  O   UNL     1       4.022  -1.841   1.964  0.00  0.00    -0.482 OA
BRANCH  18  19
ATOM     19  C   UNL     1       4.808  -2.317   2.962  0.00  0.00    +0.131 A 
ATOM     20  C   UNL     1       4.321  -2.390   4.258  0.00  0.00    +0.048 A 
ATOM     21  C   UNL     1       5.121  -2.874   5.273  0.00  0.00    +0.023 A 
ATOM     22  C   UNL     1       6.418  -3.291   5.008  0.00  0.00    +0.042 A 
ATOM     23  C   UNL     1       6.920  -3.226   3.727  0.00  0.00    +0.034 A 
ATOM     24  C   UNL     1       6.118  -2.742   2.686  0.00  0.00    +0.057 A 
ATOM     25 CL   UNL     1       7.411  -3.896   6.296  0.00  0.00    -0.084 Cl
BRANCH  24  26
ATOM     26  C   UNL     1       6.644  -2.675   1.317  0.00  0.00    +0.262 C 
ATOM     27  O   UNL     1       7.776  -3.044   1.084  0.00  0.00    -0.296 OA
ENDBRANCH  24  26
ENDBRANCH  18  19
ENDBRANCH  17  18
ENDBRANCH  14  17
TORSDOF 4
