REMARK  Name = ZINC39675501
REMARK  11 active torsions:
REMARK  status: ('A' for Active; 'I' for Inactive)
REMARK    1  A    between atoms: C_1  and  C_2
REMARK    2  A    between atoms: C_7  and  C_8
REMARK    3  A    between atoms: C_8  and  C_9
REMARK    4  A    between atoms: C_13  and  C_22
REMARK    5  A    between atoms: N_24  and  C_25
REMARK    6  A    between atoms: C_25  and  C_27
REMARK    7  A    between atoms: C_25  and  C_28
REMARK    8  A    between atoms: C_28  and  C_29
REMARK    9  A    between atoms: C_29  and  C_30
REMARK   10  A    between atoms: C_33  and  O_36
REMARK   11  A    between atoms: O_36  and  C_37
REMARK                            x       y       z     vdW  Elec       q    Type
REMARK                         _______ _______ _______ _____ _____    ______ ____
ROOT
ATOM      1  C   UNL     1      -1.063   0.270   3.005  0.00  0.00    +0.220 C 
ATOM      2  O   UNL     1      -1.909  -0.144   2.240  0.00  0.00    -0.275 OA
ATOM      3  N   UNL     1      -1.427   0.974   4.095  0.00  0.00    -0.300 N 
ATOM      4  C   UNL     1      -0.547   1.562   5.131  0.00  0.00    +0.121 C 
ATOM      5  C   UNL     1      -1.190   2.928   5.460  0.00  0.00    +0.100 C 
ATOM      6  C   UNL     1      -2.667   2.772   5.063  0.00  0.00    -0.004 C 
ATOM      7  C   UNL     1      -2.798   1.340   4.524  0.00  0.00    +0.115 C 
ATOM      8  C   UNL     1      -3.030   3.775   3.973  0.00  0.00    -0.010 C 
ATOM      9  C   UNL     1      -4.518   3.639   3.635  0.00  0.00    -0.082 C 
ATOM     10  N   UNL     1      -5.319   3.885   4.841  0.00  0.00    +0.379 N 
ATOM     11  C   UNL     1      -5.031   2.859   5.851  0.00  0.00    -0.082 C 
ATOM     12  C   UNL     1      -3.565   2.962   6.282  0.00  0.00    -0.010 C 
ATOM     13  H   UNL     1      -5.094   4.795   5.213  0.00  0.00    -0.086 HD
ATOM     14  H   UNL     1      -6.299   3.855   4.603  0.00  0.00    -0.086 HD
ENDROOT
BRANCH   5  15
ATOM     15  C   UNL     1      -0.540   4.022   4.653  0.00  0.00    +0.218 C 
ATOM     16  O   UNL     1      -0.094   3.779   3.551  0.00  0.00    -0.275 OA
ATOM     17  N   UNL     1      -0.454   5.270   5.155  0.00  0.00    -0.312 N 
ATOM     18  H   UNL     1      -0.810   5.463   6.036  0.00  0.00    +0.149 HD
BRANCH  17  19
ATOM     19  C   UNL     1       0.178   6.333   4.370  0.00  0.00    +0.070 C 
ATOM     20  C   UNL     1       1.692   6.298   4.590  0.00  0.00    +0.028 C 
BRANCH  19  21
ATOM     21  C   UNL     1      -0.370   7.690   4.815  0.00  0.00    +0.026 C 
BRANCH  21  22
ATOM     22  C   UNL     1      -1.861   7.772   4.481  0.00  0.00    +0.037 C 
BRANCH  22  23
ATOM     23  C   UNL     1      -2.402   9.109   4.920  0.00  0.00    -0.047 A 
ATOM     24  C   UNL     1      -2.910   9.262   6.197  0.00  0.00    +0.007 A 
ATOM     25  C   UNL     1      -3.406  10.487   6.601  0.00  0.00    +0.046 A 
ATOM     26  C   UNL     1      -3.394  11.562   5.725  0.00  0.00    +0.120 A 
ATOM     27  C   UNL     1      -2.883  11.405   4.444  0.00  0.00    +0.046 A 
ATOM     28  C   UNL     1      -2.383  10.181   4.047  0.00  0.00    +0.007 A 
BRANCH  26  29
ATOM     29  O   UNL     1      -3.882  12.768   6.120  0.00  0.00    -0.495 OA
ATOM     30  C   UNL     1      -3.838  13.830   5.165  0.00  0.00    +0.277 C 
ENDBRANCH  26  29
ENDBRANCH  22  23
ENDBRANCH  21  22
ENDBRANCH  19  21
ENDBRANCH  17  19
ENDBRANCH   5  15
BRANCH   1  31
ATOM     31  C   UNL     1       0.395  -0.004   2.736  0.00  0.00    +0.131 C 
BRANCH  31  38
ATOM     32  C   UNL     1       0.461   1.344   0.181  0.00  0.00    +0.044 C 
ATOM     33  C   UNL     1       0.562  -0.159   0.243  0.00  0.00    -0.047 A 
ATOM     34  C   UNL     1       0.692  -0.892  -0.921  0.00  0.00    +0.003 A 
ATOM     35  C   UNL     1       0.784  -2.269  -0.864  0.00  0.00    +0.000 A 
ATOM     36  C   UNL     1       0.747  -2.915   0.358  0.00  0.00    +0.000 A 
ATOM     37  C   UNL     1       0.618  -2.182   1.523  0.00  0.00    +0.004 A 
ATOM     38  C   UNL     1       0.530  -0.803   1.466  0.00  0.00    -0.036 A 
ENDBRANCH  31  38
ENDBRANCH   1  31
TORSDOF 8
