REMARK  Name = ZINC32709451
REMARK  6 active torsions:
REMARK  status: ('A' for Active; 'I' for Inactive)
REMARK    1  A    between atoms: C_1  and  C_2
REMARK    2  A    between atoms: C_5  and  N_8
REMARK    3  A    between atoms: C_12  and  N_16
REMARK    4  A    between atoms: C_20  and  C_21
REMARK    5  A    between atoms: C_22  and  O_33
REMARK    6  A    between atoms: C_24  and  C_25
REMARK                            x       y       z     vdW  Elec       q    Type
REMARK                         _______ _______ _______ _____ _____    ______ ____
ROOT
ATOM      1  N   UNL     1       0.923  -7.045   0.420  0.00  0.00    -0.303 N 
ATOM      2  C   UNL     1       2.200  -6.458  -0.018  0.00  0.00    +0.128 C 
ATOM      3  C   UNL     1       3.256  -7.295   0.731  0.00  0.00    +0.133 C 
ATOM      4  N   UNL     1       2.466  -8.260   1.508  0.00  0.00    -0.371 N 
ATOM      5  C   UNL     1       1.196  -8.068   1.299  0.00  0.00    +0.102 C 
ATOM      6  H   UNL     1       2.836  -8.938   2.094  0.00  0.00    +0.161 HD
ENDROOT
BRANCH   1  11
ATOM      7  N   UNL     1      -0.806  -4.535  -0.977  0.00  0.00    -0.209 N 
ATOM      8  C   UNL     1      -0.828  -5.375  -2.018  0.00  0.00    +0.228 C 
ATOM      9  O   UNL     1      -1.015  -5.058  -3.173  0.00  0.00    -0.275 OA
ATOM     10  C   UNL     1      -0.580  -6.785  -1.526  0.00  0.00    +0.128 C 
ATOM     11  C   UNL     1      -0.410  -6.611  -0.003  0.00  0.00    +0.170 C 
ATOM     12  C   UNL     1      -0.574  -5.121   0.204  0.00  0.00    +0.247 C 
ATOM     13  O   UNL     1      -0.508  -4.549   1.271  0.00  0.00    -0.273 OA
BRANCH   7  18
ATOM     14  C   UNL     1      -1.610   1.056  -1.527  0.00  0.00    +0.044 C 
ATOM     15  C   UNL     1      -1.397  -0.428  -1.381  0.00  0.00    -0.050 A 
ATOM     16  C   UNL     1      -0.162  -0.912  -0.989  0.00  0.00    +0.005 A 
ATOM     17  C   UNL     1       0.036  -2.273  -0.854  0.00  0.00    +0.024 A 
ATOM     18  C   UNL     1      -1.005  -3.154  -1.112  0.00  0.00    +0.044 A 
ATOM     19  C   UNL     1      -2.243  -2.664  -1.505  0.00  0.00    +0.024 A 
ATOM     20  C   UNL     1      -2.437  -1.303  -1.633  0.00  0.00    +0.005 A 
ENDBRANCH   7  18
ENDBRANCH   1  11
BRANCH   5  21
ATOM     21  C   UNL     1       0.185  -8.846   1.918  0.00  0.00    +0.032 C 
ATOM     22  C   UNL     1      -0.004 -10.170   1.720  0.00  0.00    +0.126 C 
ATOM     23  C   UNL     1      -1.125 -10.680   2.501  0.00  0.00    -0.005 C 
ATOM     24  C   UNL     1      -1.566 -11.955   2.522  0.00  0.00    +0.015 C 
ATOM     25  C   UNL     1      -1.706  -9.523   3.284  0.00  0.00    +0.044 C 
ATOM     26  C   UNL     1      -0.832  -8.318   2.898  0.00  0.00    +0.047 C 
BRANCH  24  27
ATOM     27  C   UNL     1      -0.784 -13.014   1.864  0.00  0.00    -0.025 A 
ATOM     28  C   UNL     1       0.609 -13.037   1.983  0.00  0.00    +0.008 A 
ATOM     29  C   UNL     1       1.334 -14.033   1.363  0.00  0.00    +0.001 A 
ATOM     30  C   UNL     1       0.687 -15.009   0.626  0.00  0.00    +0.000 A 
ATOM     31  C   UNL     1      -0.692 -14.993   0.504  0.00  0.00    +0.001 A 
ATOM     32  C   UNL     1      -1.431 -14.007   1.122  0.00  0.00    +0.008 A 
ENDBRANCH  24  27
BRANCH  22  33
ATOM     33  O   UNL     1       0.755 -10.931   0.895  0.00  0.00    -0.506 OA
ATOM     34  H   UNL     1       1.409 -10.430   0.388  0.00  0.00    +0.292 HD
ENDBRANCH  22  33
ENDBRANCH   5  21
TORSDOF 5
