REMARK  Name = ZINC12042913
REMARK  8 active torsions:
REMARK  status: ('A' for Active; 'I' for Inactive)
REMARK    1  A    between atoms: C_1  and  O_2
REMARK    2  A    between atoms: O_2  and  C_3
REMARK    3  A    between atoms: C_10  and  C_14
REMARK    4  A    between atoms: N_19  and  N_20
REMARK    5  A    between atoms: C_21  and  C_22
REMARK    6  A    between atoms: C_26  and  C_29
REMARK    7  A    between atoms: C_27  and  O_28
REMARK    8  A    between atoms: C_29  and  C_30
REMARK                            x       y       z     vdW  Elec       q    Type
REMARK                         _______ _______ _______ _____ _____    ______ ____
ROOT
ATOM      1  C   UNL     1       2.345  -6.053  -3.431  0.00  0.00    +0.087 A 
ATOM      2  C   UNL     1       3.202  -6.557  -4.371  0.00  0.00    +0.077 A 
ATOM      3  S   UNL     1       2.963  -8.313  -4.131  0.00  0.00    -0.059 S 
ATOM      4  C   UNL     1       1.757  -8.197  -2.817  0.00  0.00    +0.178 A 
ATOM      5  N   UNL     1       1.647  -6.888  -2.674  0.00  0.00    -0.223 NA
ATOM      6  N   UNL     1       1.112  -9.210  -2.128  0.00  0.00    -0.215 N 
ATOM      7  H   UNL     1       0.474  -8.993  -1.431  0.00  0.00    +0.176 HD
ENDROOT
BRANCH   1  15
ATOM      8  C   UNL     1       0.606  -0.607  -1.056  0.00  0.00    +0.121 A 
ATOM      9  C   UNL     1       1.174   0.167  -2.064  0.00  0.00    +0.049 A 
ATOM     10  C   UNL     1       1.788  -0.429  -3.146  0.00  0.00    +0.050 A 
ATOM     11  C   UNL     1       1.846  -1.812  -3.235  0.00  0.00    +0.139 A 
ATOM     12  C   UNL     1       1.277  -2.600  -2.218  0.00  0.00    +0.022 A 
ATOM     13  C   UNL     1       0.658  -1.986  -1.124  0.00  0.00    +0.057 A 
ATOM     14  C   UNL     1       1.351  -4.060  -2.317  0.00  0.00    +0.028 A 
ATOM     15  C   UNL     1       2.202  -4.590  -3.257  0.00  0.00    +0.086 A 
ATOM     16  C   UNL     1       2.967  -3.641  -4.085  0.00  0.00    +0.347 A 
ATOM     17  O   UNL     1       4.039  -3.955  -4.568  0.00  0.00    -0.244 OA
ATOM     18  O   UNL     1       2.443  -2.412  -4.294  0.00  0.00    -0.422 OA
BRANCH   8  20
ATOM     19  C   UNL     1      -0.017   1.425   0.010  0.00  0.00    +0.277 C 
ATOM     20  O   UNL     1       0.002  -0.004   0.002  0.00  0.00    -0.495 OA
ENDBRANCH   8  20
ENDBRANCH   1  15
BRANCH   6  21
ATOM     21  N   UNL     1       1.381 -10.550  -2.438  0.00  0.00    -0.188 NA
ATOM     22  C   UNL     1       0.777 -11.500  -1.792  0.00  0.00    +0.142 C 
BRANCH  22  23
ATOM     23  C   UNL     1       1.060 -12.909  -2.118  0.00  0.00    +0.036 A 
ATOM     24  C   UNL     1       0.407 -13.934  -1.430  0.00  0.00    +0.013 A 
ATOM     25  C   UNL     1       0.677 -15.251  -1.740  0.00  0.00    +0.001 A 
ATOM     26  C   UNL     1       1.593 -15.561  -2.731  0.00  0.00    +0.007 A 
ATOM     27  C   UNL     1       2.246 -14.555  -3.419  0.00  0.00    -0.002 A 
ATOM     28  C   UNL     1       1.982 -13.228  -3.125  0.00  0.00    +0.129 A 
BRANCH  28  29
ATOM     29  O   UNL     1       2.618 -12.239  -3.805  0.00  0.00    -0.506 OA
ATOM     30  H   UNL     1       3.453 -11.960  -3.404  0.00  0.00    +0.292 HD
ENDBRANCH  28  29
BRANCH  27  31
ATOM     31  C   UNL     1       3.242 -14.904  -4.495  0.00  0.00    +0.065 C 
BRANCH  31  32
ATOM     32  C   UNL     1       4.630 -14.913  -3.910  0.00  0.00    -0.030 C 
ATOM     33  C   UNL     1       5.385 -15.976  -4.032  0.00  0.00    +0.004 C 
ENDBRANCH  31  32
ENDBRANCH  27  31
ENDBRANCH  22  23
ENDBRANCH   6  21
TORSDOF 7
