REMARK  Name = ZINC20972253
REMARK  12 active torsions:
REMARK  status: ('A' for Active; 'I' for Inactive)
REMARK    1  A    between atoms: C_1  and  C_2
REMARK    2  A    between atoms: C_2  and  C_4
REMARK    3  A    between atoms: C_2  and  S_17
REMARK    4  A    between atoms: N_6  and  C_7
REMARK    5  A    between atoms: C_10  and  N_14
REMARK    6  A    between atoms: S_17  and  C_18
REMARK    7  A    between atoms: C_21  and  C_24
REMARK    8  A    between atoms: N_22  and  N_23
REMARK    9  A    between atoms: C_27  and  C_30
REMARK   10  A    between atoms: C_30  and  C_31
REMARK   11  A    between atoms: C_30  and  C_32
REMARK   12  A    between atoms: C_30  and  C_33
REMARK                            x       y       z     vdW  Elec       q    Type
REMARK                         _______ _______ _______ _____ _____    ______ ____
ROOT
ATOM      1  C   UNL     1      -1.117   2.159   0.054  0.00  0.00    +0.209 A 
ATOM      2  N   UNL     1      -0.682   3.399   0.065  0.00  0.00    -0.121 NA
ATOM      3  N   UNL     1       0.603   3.416   0.063  0.00  0.00    -0.127 NA
ATOM      4  C   UNL     1       1.067   2.188   0.056  0.00  0.00    +0.182 A 
ATOM      5  N   UNL     1      -0.020   1.345   0.054  0.00  0.00    -0.224 N 
ENDROOT
BRANCH   4   6
ATOM      6  C   UNL     1       2.490   1.787   0.051  0.00  0.00    +0.021 A 
ATOM      7  C   UNL     1       2.850   0.475   0.361  0.00  0.00    +0.012 A 
ATOM      8  C   UNL     1       4.179   0.106   0.349  0.00  0.00    +0.005 A 
ATOM      9  C   UNL     1       5.156   1.036   0.041  0.00  0.00    -0.042 A 
ATOM     10  C   UNL     1       4.807   2.340  -0.262  0.00  0.00    +0.005 A 
ATOM     11  C   UNL     1       3.481   2.721  -0.259  0.00  0.00    +0.012 A 
BRANCH   9  12
ATOM     12  C   UNL     1       6.606   0.627   0.036  0.00  0.00    -0.013 C 
ATOM     13  C   UNL     1       7.376   1.465   1.058  0.00  0.00    +0.015 C 
ATOM     14  C   UNL     1       6.720  -0.854   0.401  0.00  0.00    +0.015 C 
ATOM     15  C   UNL     1       7.195   0.855  -1.358  0.00  0.00    +0.015 C 
ENDBRANCH   9  12
ENDBRANCH   4   6
BRANCH   5  16
ATOM     16  N   UNL     1      -0.005  -0.021   0.047  0.00  0.00    -0.295 N 
ATOM     17  H   UNL     1       0.953  -0.560   0.048  0.00  0.00    +0.163 HD
ATOM     18  H   UNL     1      -0.952  -0.581   0.041  0.00  0.00    +0.163 HD
ENDBRANCH   5  16
BRANCH   1  19
ATOM     19  S   UNL     1      -2.801   1.641   0.046  0.00  0.00    -0.072 S 
BRANCH  19  21
ATOM     20  C   UNL     1      -3.309   3.992  -1.251  0.00  0.00    +0.029 C 
ATOM     21  C   UNL     1      -3.625   3.253   0.051  0.00  0.00    +0.137 C 
BRANCH  21  22
ATOM     22  C   UNL     1      -5.114   3.056   0.169  0.00  0.00    +0.230 C 
ATOM     23  O   UNL     1      -5.609   1.986  -0.117  0.00  0.00    -0.274 OA
ATOM     24  N   UNL     1      -5.897   4.068   0.593  0.00  0.00    -0.283 N 
ATOM     25  H   UNL     1      -5.442   5.014   0.923  0.00  0.00    +0.155 HD
BRANCH  24  26
ATOM     26  C   UNL     1      -7.288   3.916   0.613  0.00  0.00    +0.052 A 
ATOM     27  C   UNL     1      -7.849   2.682   0.912  0.00  0.00    +0.027 A 
ATOM     28  C   UNL     1      -9.222   2.535   0.931  0.00  0.00    +0.034 A 
ATOM     29  C   UNL     1     -10.039   3.615   0.653  0.00  0.00    +0.128 A 
ATOM     30  C   UNL     1      -9.485   4.846   0.355  0.00  0.00    +0.054 A 
ATOM     31  C   UNL     1      -8.111   5.002   0.340  0.00  0.00    +0.064 A 
ATOM     32 CL   UNL     1      -7.416   6.549  -0.027  0.00  0.00    -0.082 Cl
BRANCH  29  33
ATOM     33  N   UNL     1     -11.510   3.454   0.675  0.00  0.00    +0.056 N 
ATOM     34  O   UNL     1     -12.000   2.370   0.938  0.00  0.00    -0.126 OA
ATOM     35  O   UNL     1     -12.231   4.404   0.430  0.00  0.00    -0.126 OA
ENDBRANCH  29  33
ENDBRANCH  24  26
ENDBRANCH  21  22
ENDBRANCH  19  21
ENDBRANCH   1  19
TORSDOF 8
