REMARK  Name = ZINC41125141
REMARK  7 active torsions:
REMARK  status: ('A' for Active; 'I' for Inactive)
REMARK    1  A    between atoms: C_1  and  C_2
REMARK    2  A    between atoms: C_2  and  C_3
REMARK    3  A    between atoms: C_3  and  N_4
REMARK    4  A    between atoms: C_8  and  S_17
REMARK    5  A    between atoms: S_17  and  N_20
REMARK    6  A    between atoms: N_20  and  N_21
REMARK    7  A    between atoms: C_22  and  C_24
REMARK                            x       y       z     vdW  Elec       q    Type
REMARK                         _______ _______ _______ _____ _____    ______ ____
ROOT
ATOM      1  N   UNL     1       0.762  -1.976   1.234  0.00  0.00    -0.267 N 
ATOM      2  C   UNL     1      -0.212  -2.786   1.804  0.00  0.00    +0.045 A 
ATOM      3  C   UNL     1      -1.396  -2.610   2.495  0.00  0.00    +0.026 A 
ATOM      4  C   UNL     1      -2.125  -3.719   2.923  0.00  0.00    +0.031 A 
ATOM      5  C   UNL     1      -1.730  -5.009   2.696  0.00  0.00    +0.115 A 
ATOM      6  C   UNL     1      -0.532  -5.231   1.997  0.00  0.00    +0.011 A 
ATOM      7  C   UNL     1       0.176  -4.103   1.580  0.00  0.00    +0.018 A 
ATOM      8  C   UNL     1       1.387  -4.147   0.874  0.00  0.00    +0.047 A 
ATOM      9  C   UNL     1       1.893  -5.402   0.582  0.00  0.00    +0.014 A 
ATOM     10  C   UNL     1       1.196  -6.539   0.991  0.00  0.00    +0.001 A 
ATOM     11  C   UNL     1       0.015  -6.486   1.681  0.00  0.00    +0.010 A 
ATOM     12  C   UNL     1       1.733  -2.736   0.662  0.00  0.00    +0.251 C 
ATOM     13  O   UNL     1       2.717  -2.320   0.080  0.00  0.00    -0.270 OA
ENDROOT
BRANCH   5  14
ATOM     14  S   UNL     1      -2.703  -6.363   3.268  0.00  0.00    +0.074 S 
ATOM     15  O   UNL     1      -1.814  -7.246   3.939  0.00  0.00    -0.152 OA
ATOM     16  O   UNL     1      -3.844  -5.803   3.902  0.00  0.00    -0.152 OA
BRANCH  14  17
ATOM     17  N   UNL     1      -3.252  -7.170   1.931  0.00  0.00    -0.108 NA
ATOM     18  H   UNL     1      -4.206  -7.259   1.776  0.00  0.00    +0.172 HD
BRANCH  17  19
ATOM     19  N   UNL     1      -2.341  -7.724   1.023  0.00  0.00    -0.228 N 
ATOM     20  C   UNL     1      -2.414  -9.032   0.708  0.00  0.00    +0.259 C 
ATOM     21  O   UNL     1      -3.271  -9.732   1.211  0.00  0.00    -0.269 OA
ATOM     22  H   UNL     1      -1.657  -7.166   0.621  0.00  0.00    +0.171 HD
BRANCH  20  23
ATOM     23  C   UNL     1      -1.452  -9.617  -0.250  0.00  0.00    +0.038 A 
ATOM     24  C   UNL     1      -0.463  -8.817  -0.826  0.00  0.00    +0.014 A 
ATOM     25  C   UNL     1       0.432  -9.368  -1.719  0.00  0.00    +0.021 A 
ATOM     26  C   UNL     1       0.351 -10.712  -2.045  0.00  0.00    +0.041 A 
ATOM     27  C   UNL     1      -0.629 -11.510  -1.477  0.00  0.00    +0.021 A 
ATOM     28  C   UNL     1      -1.526 -10.972  -0.579  0.00  0.00    +0.014 A 
ATOM     29 CL   UNL     1       1.480 -11.398  -3.171  0.00  0.00    -0.084 Cl
ENDBRANCH  20  23
ENDBRANCH  17  19
ENDBRANCH  14  17
ENDBRANCH   5  14
BRANCH   1  30
ATOM     30  C   UNL     1       0.742  -0.511   1.242  0.00  0.00    +0.114 C 
BRANCH  30  32
ATOM     31  C   UNL     1      -0.019   1.526   0.010  0.00  0.00    +0.005 C 
ATOM     32  C   UNL     1       0.002  -0.004   0.002  0.00  0.00    +0.016 C 
ENDBRANCH  30  32
ENDBRANCH   1  30
TORSDOF 6
