REMARK  Name = ZINC39672929
REMARK  5 active torsions:
REMARK  status: ('A' for Active; 'I' for Inactive)
REMARK    1  A    between atoms: C_9  and  C_12
REMARK    2  A    between atoms: C_16  and  C_25
REMARK    3  A    between atoms: N_27  and  C_28
REMARK    4  A    between atoms: C_28  and  C_29
REMARK    5  A    between atoms: C_29  and  N_35
REMARK                            x       y       z     vdW  Elec       q    Type
REMARK                         _______ _______ _______ _____ _____    ______ ____
ROOT
ATOM      1  C   UNL     1       4.687  -2.520  -0.084  0.00  0.00    +0.260 C 
ATOM      2  O   UNL     1       3.666  -2.040   0.363  0.00  0.00    -0.271 OA
ATOM      3  N   UNL     1       4.960  -3.825   0.113  0.00  0.00    -0.297 N 
ATOM      4  C   UNL     1       4.097  -4.848   0.751  0.00  0.00    +0.121 C 
ATOM      5  C   UNL     1       4.310  -6.122  -0.097  0.00  0.00    +0.100 C 
ATOM      6  C   UNL     1       5.686  -5.929  -0.756  0.00  0.00    -0.004 C 
ATOM      7  C   UNL     1       6.188  -4.564  -0.266  0.00  0.00    +0.115 C 
ATOM      8  C   UNL     1       5.547  -5.919  -2.276  0.00  0.00    -0.010 C 
ATOM      9  C   UNL     1       6.934  -5.784  -2.909  0.00  0.00    -0.082 C 
ATOM     10  N   UNL     1       7.780  -6.905  -2.483  0.00  0.00    +0.379 N 
ATOM     11  C   UNL     1       7.985  -6.854  -1.030  0.00  0.00    -0.082 C 
ATOM     12  C   UNL     1       6.642  -7.034  -0.317  0.00  0.00    -0.010 C 
ATOM     13  H   UNL     1       7.332  -7.775  -2.728  0.00  0.00    -0.086 HD
ATOM     14  H   UNL     1       8.673  -6.847  -2.949  0.00  0.00    -0.086 HD
ENDROOT
BRANCH   1  23
ATOM     15  C   UNL     1       7.586   2.642  -2.373  0.00  0.00    +0.004 A 
ATOM     16  C   UNL     1       6.217   2.768  -2.521  0.00  0.00    +0.004 A 
ATOM     17  C   UNL     1       5.378   1.758  -2.092  0.00  0.00    +0.049 A 
ATOM     18  C   UNL     1       5.906   0.615  -1.511  0.00  0.00    +0.163 A 
ATOM     19  C   UNL     1       7.282   0.487  -1.364  0.00  0.00    +0.162 A 
ATOM     20  C   UNL     1       8.119   1.505  -1.796  0.00  0.00    +0.049 A 
ATOM     21  O   UNL     1       7.822  -0.630  -0.804  0.00  0.00    -0.484 OA
ATOM     22  C   UNL     1       6.938  -1.463  -0.047  0.00  0.00    +0.283 C 
ATOM     23  C   UNL     1       5.649  -1.657  -0.858  0.00  0.00    +0.296 C 
ATOM     24  O   UNL     1       5.066  -0.370  -1.090  0.00  0.00    -0.473 OA
ENDBRANCH   1  23
BRANCH   5  25
ATOM     25  C   UNL     1       3.234  -6.239  -1.146  0.00  0.00    +0.218 C 
ATOM     26  O   UNL     1       2.778  -5.241  -1.662  0.00  0.00    -0.275 OA
ATOM     27  N   UNL     1       2.779  -7.454  -1.511  0.00  0.00    -0.313 N 
ATOM     28  H   UNL     1       3.193  -8.255  -1.153  0.00  0.00    +0.149 HD
BRANCH  27  29
ATOM     29  C   UNL     1       1.659  -7.565  -2.448  0.00  0.00    +0.126 C 
BRANCH  29  30
ATOM     30  C   UNL     1       1.224  -9.029  -2.552  0.00  0.00    +0.038 C 
ATOM     31  C   UNL     1       2.441  -9.901  -2.866  0.00  0.00    +0.024 C 
ATOM     32  C   UNL     1       3.058  -9.457  -4.194  0.00  0.00    +0.002 C 
ATOM     33  C   UNL     1       2.023  -9.603  -5.312  0.00  0.00    +0.000 C 
ATOM     34  C   UNL     1       0.806  -8.731  -4.998  0.00  0.00    +0.002 C 
ATOM     35  C   UNL     1       0.189  -9.175  -3.670  0.00  0.00    +0.024 C 
BRANCH  30  36
ATOM     36  N   UNL     1       0.631  -9.455  -1.278  0.00  0.00    -0.291 NA
ATOM     37  C   UNL     1      -0.631  -8.747  -1.020  0.00  0.00    +0.113 C 
ATOM     38  C   UNL     1      -1.243  -9.263   0.285  0.00  0.00    +0.175 C 
ATOM     39  O   UNL     1      -0.301  -9.094   1.347  0.00  0.00    -0.377 OA
ATOM     40  C   UNL     1       0.940  -9.771   1.130  0.00  0.00    +0.175 C 
ATOM     41  C   UNL     1       1.574  -9.259  -0.167  0.00  0.00    +0.113 C 
ENDBRANCH  30  36
ENDBRANCH  29  30
ENDBRANCH  27  29
ENDBRANCH   5  25
TORSDOF 5
