REMARK  Name = ZINC67219025
REMARK  6 active torsions:
REMARK  status: ('A' for Active; 'I' for Inactive)
REMARK    1  A    between atoms: C_3  and  C_6
REMARK    2  A    between atoms: C_7  and  C_12
REMARK    3  A    between atoms: C_12  and  N_13
REMARK    4  A    between atoms: N_13  and  C_14
REMARK    5  A    between atoms: C_14  and  C_15
REMARK    6  A    between atoms: N_17  and  C_18
REMARK                            x       y       z     vdW  Elec       q    Type
REMARK                         _______ _______ _______ _____ _____    ______ ____
ROOT
ATOM      1  N   UNL     1       4.817  -1.210   0.519  0.00  0.00    +0.387 N 
ATOM      2  H   UNL     1       4.000  -1.171  -0.073  0.00  0.00    -0.085 HD
ATOM      3  H   UNL     1       5.648  -1.195  -0.053  0.00  0.00    -0.085 HD
ENDROOT
BRANCH   1   4
ATOM      4  C   UNL     1       4.822  -0.052   1.423  0.00  0.00    -0.042 C 
BRANCH   4   6
ATOM      5  C   UNL     1       3.744   1.827  -0.015  0.00  0.00    +0.100 A 
ATOM      6  C   UNL     1       4.850   1.218   0.612  0.00  0.00    -0.019 A 
ATOM      7  C   UNL     1       5.939   1.975   0.358  0.00  0.00    +0.107 A 
ATOM      8  N   UNL     1       5.551   3.024  -0.399  0.00  0.00    -0.284 N 
ATOM      9  H   UNL     1       6.127   3.730  -0.730  0.00  0.00    +0.188 HD
ATOM     10  N   UNL     1       4.174   2.912  -0.627  0.00  0.00    -0.173 NA
BRANCH   5  13
ATOM     11  C   UNL     1      -0.013   1.361   0.046  0.00  0.00    +0.008 A 
ATOM     12  C   UNL     1       1.183   2.046   0.029  0.00  0.00    +0.018 A 
ATOM     13  C   UNL     1       2.350   1.333   0.006  0.00  0.00    +0.039 A 
ATOM     14  S   UNL     1       1.753  -0.349   0.006  0.00  0.00    -0.095 S 
ATOM     15  C   UNL     1       0.003   0.004   0.038  0.00  0.00    +0.046 A 
ENDBRANCH   5  13
ENDBRANCH   4   6
ENDBRANCH   1   4
BRANCH   1  16
ATOM     16  C   UNL     1       4.789  -2.448   1.309  0.00  0.00    +0.016 C 
BRANCH  16  17
ATOM     17  C   UNL     1       4.784  -3.636   0.382  0.00  0.00    +0.200 C 
ATOM     18  O   UNL     1       4.801  -3.468  -0.819  0.00  0.00    -0.278 OA
ATOM     19  N   UNL     1       4.760  -4.885   0.887  0.00  0.00    -0.287 N 
ATOM     20  H   UNL     1       4.814  -5.022   1.846  0.00  0.00    +0.155 HD
BRANCH  19  21
ATOM     21  C   UNL     1       4.657  -5.986   0.029  0.00  0.00    +0.033 A 
ATOM     22  C   UNL     1       3.933  -7.106   0.417  0.00  0.00    +0.025 A 
ATOM     23  C   UNL     1       3.833  -8.190  -0.432  0.00  0.00    +0.022 A 
ATOM     24  C   UNL     1       4.453  -8.162  -1.669  0.00  0.00    +0.041 A 
ATOM     25  C   UNL     1       5.174  -7.047  -2.059  0.00  0.00    +0.022 A 
ATOM     26  C   UNL     1       5.273  -5.957  -1.216  0.00  0.00    +0.025 A 
ATOM     27 CL   UNL     1       4.326  -9.527  -2.734  0.00  0.00    -0.084 Cl
ENDBRANCH  19  21
ENDBRANCH  16  17
ENDBRANCH   1  16
TORSDOF 6
