REMARK  Name = ZINC39687414
REMARK  7 active torsions:
REMARK  status: ('A' for Active; 'I' for Inactive)
REMARK    1  A    between atoms: C_1  and  C_2
REMARK    2  A    between atoms: C_2  and  C_3
REMARK    3  A    between atoms: C_3  and  C_4
REMARK    4  A    between atoms: C_3  and  C_6
REMARK    5  A    between atoms: C_4  and  C_5
REMARK    6  A    between atoms: C_10  and  C_19
REMARK    7  A    between atoms: N_21  and  C_22
REMARK                            x       y       z     vdW  Elec       q    Type
REMARK                         _______ _______ _______ _____ _____    ______ ____
ROOT
ATOM      1  C   UNL     1       1.321  -2.023   1.359  0.00  0.00    +0.219 C 
ATOM      2  O   UNL     1       1.011  -2.779   2.255  0.00  0.00    -0.275 OA
ATOM      3  N   UNL     1       1.960  -2.494   0.270  0.00  0.00    -0.300 N 
ATOM      4  C   UNL     1       2.422  -1.731  -0.913  0.00  0.00    +0.121 C 
ATOM      5  C   UNL     1       3.792  -2.353  -1.268  0.00  0.00    +0.100 C 
ATOM      6  C   UNL     1       3.744  -3.772  -0.677  0.00  0.00    -0.004 C 
ATOM      7  C   UNL     1       2.365  -3.892  -0.012  0.00  0.00    +0.115 C 
ATOM      8  C   UNL     1       4.843  -3.948   0.365  0.00  0.00    -0.010 C 
ATOM      9  C   UNL     1       4.811  -5.384   0.897  0.00  0.00    -0.082 C 
ATOM     10  N   UNL     1       5.007  -6.323  -0.214  0.00  0.00    +0.379 N 
ATOM     11  C   UNL     1       3.896  -6.212  -1.166  0.00  0.00    -0.082 C 
ATOM     12  C   UNL     1       3.889  -4.811  -1.785  0.00  0.00    -0.010 C 
ATOM     13  H   UNL     1       5.874  -6.109  -0.684  0.00  0.00    -0.086 HD
ATOM     14  H   UNL     1       5.047  -7.264   0.146  0.00  0.00    -0.086 HD
ENDROOT
BRANCH   5  15
ATOM     15  C   UNL     1       3.970  -2.410  -2.763  0.00  0.00    +0.218 C 
ATOM     16  O   UNL     1       2.999  -2.449  -3.489  0.00  0.00    -0.275 OA
ATOM     17  N   UNL     1       5.209  -2.418  -3.294  0.00  0.00    -0.312 N 
ATOM     18  H   UNL     1       5.986  -2.387  -2.714  0.00  0.00    +0.149 HD
BRANCH  17  19
ATOM     19  C   UNL     1       5.383  -2.474  -4.748  0.00  0.00    +0.076 C 
ATOM     20  C   UNL     1       5.332  -3.932  -5.212  0.00  0.00    +0.041 C 
ATOM     21  C   UNL     1       5.479  -3.983  -6.736  0.00  0.00    +0.108 C 
ATOM     22  N   UNL     1       6.706  -3.272  -7.117  0.00  0.00    -0.317 N 
ATOM     23  C   UNL     1       6.899  -1.893  -6.646  0.00  0.00    +0.108 C 
ATOM     24  C   UNL     1       6.735  -1.865  -5.124  0.00  0.00    +0.041 C 
ATOM     25  C   UNL     1       7.668  -3.891  -7.907  0.00  0.00    +0.099 A 
ATOM     26  C   UNL     1       8.881  -3.252  -8.144  0.00  0.00    +0.042 A 
ATOM     27  C   UNL     1       9.829  -3.880  -8.932  0.00  0.00    +0.005 A 
ATOM     28  C   UNL     1       9.530  -5.130  -9.459  0.00  0.00    +0.018 A 
ATOM     29  C   UNL     1       8.306  -5.705  -9.183  0.00  0.00    +0.084 A 
ATOM     30  N   UNL     1       7.423  -5.085  -8.423  0.00  0.00    -0.350 N 
ATOM     31  H   UNL     1       6.572  -5.513  -8.242  0.00  0.00    +0.166 HD
ENDBRANCH  17  19
ENDBRANCH   5  15
BRANCH   1  32
ATOM     32  C   UNL     1       0.993  -0.556   1.464  0.00  0.00    +0.075 C 
BRANCH  32  34
ATOM     33  C   UNL     1      -0.133   1.363   0.325  0.00  0.00    +0.004 C 
ATOM     34  C   UNL     1       0.086  -0.152   0.299  0.00  0.00    +0.009 C 
ENDBRANCH  32  34
BRANCH  32  35
ATOM     35  C   UNL     1       0.274  -0.287   2.787  0.00  0.00    +0.009 C 
ATOM     36  C   UNL     1       1.236  -0.536   3.950  0.00  0.00    +0.004 C 
ENDBRANCH  32  35
ENDBRANCH   1  32
TORSDOF 5
