REMARK  Name = ZINC39850358
REMARK  8 active torsions:
REMARK  status: ('A' for Active; 'I' for Inactive)
REMARK    1  A    between atoms: C_1  and  C_2
REMARK    2  A    between atoms: C_2  and  O_3
REMARK    3  A    between atoms: O_3  and  C_4
REMARK    4  A    between atoms: C_7  and  C_10
REMARK    5  A    between atoms: C_12  and  C_24
REMARK    6  A    between atoms: C_14  and  C_19
REMARK    7  A    between atoms: C_14  and  O_23
REMARK    8  A    between atoms: C_24  and  C_26
REMARK                            x       y       z     vdW  Elec       q    Type
REMARK                         _______ _______ _______ _____ _____    ______ ____
ROOT
ATOM      1  C   UNL     1      -1.986  -6.075  -0.003  0.00  0.00    +0.120 C 
ATOM      2  C   UNL     1      -2.182  -6.592   1.426  0.00  0.00    +0.145 C 
ATOM      3  C   UNL     1      -2.486  -8.093   1.364  0.00  0.00    +0.243 C 
ATOM      4  N   UNL     1      -3.641  -8.314   0.493  0.00  0.00    -0.264 N 
ATOM      5  C   UNL     1      -3.916  -7.484  -0.525  0.00  0.00    +0.302 C 
ATOM      6  O   UNL     1      -4.882  -7.719  -1.225  0.00  0.00    -0.253 OA
ATOM      7  N   UNL     1      -3.167  -6.406  -0.802  0.00  0.00    -0.292 N 
ATOM      8  H   UNL     1      -4.219  -9.076   0.654  0.00  0.00    +0.153 HD
ATOM      9  H   UNL     1      -3.413  -5.833  -1.545  0.00  0.00    +0.151 HD
ENDROOT
BRANCH   1  13
ATOM     10  C   UNL     1      -1.453  -1.836   0.072  0.00  0.00    +0.121 A 
ATOM     11  C   UNL     1      -0.356  -2.676   0.196  0.00  0.00    +0.046 A 
ATOM     12  C   UNL     1      -0.531  -4.046   0.171  0.00  0.00    +0.009 A 
ATOM     13  C   UNL     1      -1.798  -4.580   0.024  0.00  0.00    -0.026 A 
ATOM     14  C   UNL     1      -2.893  -3.745  -0.100  0.00  0.00    +0.009 A 
ATOM     15  C   UNL     1      -2.724  -2.374  -0.070  0.00  0.00    +0.046 A 
BRANCH  10  16
ATOM     16  O   UNL     1      -1.284  -0.487   0.097  0.00  0.00    -0.492 OA
BRANCH  16  18
ATOM     17  C   UNL     1       0.044   1.526   0.251  0.00  0.00    +0.048 C 
ATOM     18  C   UNL     1       0.052  -0.004   0.246  0.00  0.00    +0.225 C 
ENDBRANCH  16  18
ENDBRANCH  10  16
ENDBRANCH   1  13
BRANCH   3  19
ATOM     19  C   UNL     1      -1.272  -8.838   0.803  0.00  0.00    +0.436 C 
ATOM     20  F   UNL     1      -0.167  -8.620   1.633  0.00  0.00    -0.166 F 
ATOM     21  F   UNL     1      -1.551 -10.207   0.748  0.00  0.00    -0.166 F 
ATOM     22  F   UNL     1      -0.990  -8.366  -0.483  0.00  0.00    -0.166 F 
ENDBRANCH   3  19
BRANCH   3  23
ATOM     23  O   UNL     1      -2.779  -8.575   2.677  0.00  0.00    -0.364 OA
ATOM     24  H   UNL     1      -2.981  -9.520   2.713  0.00  0.00    +0.212 HD
ENDBRANCH   3  23
BRANCH   2  25
ATOM     25  C   UNL     1      -3.333  -5.866   2.073  0.00  0.00    +0.179 C 
ATOM     26  O   UNL     1      -4.302  -5.552   1.412  0.00  0.00    -0.291 OA
BRANCH  25  27
ATOM     27  C   UNL     1      -3.284  -5.549   3.449  0.00  0.00    +0.055 A 
ATOM     28  C   UNL     1      -4.230  -4.896   4.233  0.00  0.00    +0.019 A 
ATOM     29  C   UNL     1      -3.897  -4.731   5.553  0.00  0.00    +0.008 A 
ATOM     30  C   UNL     1      -2.703  -5.202   5.997  0.00  0.00    +0.046 A 
ATOM     31  S   UNL     1      -1.998  -5.889   4.636  0.00  0.00    -0.094 S 
ENDBRANCH  25  27
ENDBRANCH   2  25
TORSDOF 7
