REMARK  Name = ZINC64097974
REMARK  6 active torsions:
REMARK  status: ('A' for Active; 'I' for Inactive)
REMARK    1  A    between atoms: C_1  and  O_2
REMARK    2  A    between atoms: O_2  and  C_3
REMARK    3  A    between atoms: C_10  and  C_18
REMARK    4  A    between atoms: C_20  and  O_35
REMARK    5  A    between atoms: C_22  and  O_34
REMARK    6  A    between atoms: N_24  and  C_27
REMARK                            x       y       z     vdW  Elec       q    Type
REMARK                         _______ _______ _______ _____ _____    ______ ____
ROOT
ATOM      1  C   UNL     1       4.349  -4.321   3.529  0.00  0.00    +0.179 C 
ATOM      2  C   UNL     1       5.489  -4.801   2.679  0.00  0.00    +0.200 C 
ATOM      3  N   UNL     1       6.651  -4.275   2.717  0.00  0.00    -0.204 NA
ATOM      4  C   UNL     1       7.017  -3.162   3.578  0.00  0.00    +0.338 C 
ATOM      5  N   UNL     1       5.854  -2.414   4.031  0.00  0.00    -0.225 N 
ATOM      6  C   UNL     1       4.622  -2.929   4.027  0.00  0.00    +0.237 C 
ATOM      7  O   UNL     1       3.701  -2.255   4.435  0.00  0.00    -0.274 OA
ENDROOT
BRANCH   1  14
ATOM      8  C   UNL     1      -0.932  -2.851   3.736  0.00  0.00    +0.121 A 
ATOM      9  C   UNL     1      -0.369  -1.785   4.458  0.00  0.00    +0.047 A 
ATOM     10  C   UNL     1       0.793  -1.901   5.135  0.00  0.00    +0.029 A 
ATOM     11  C   UNL     1       1.515  -3.176   5.132  0.00  0.00    +0.043 A 
ATOM     12  N   UNL     1       2.653  -3.541   5.678  0.00  0.00    -0.376 N 
ATOM     13  C   UNL     1       2.850  -4.965   5.428  0.00  0.00    +0.124 C 
ATOM     14  C   UNL     1       4.178  -5.261   4.724  0.00  0.00    +0.101 C 
ATOM     15  N   UNL     1       4.153  -6.656   4.258  0.00  0.00    -0.310 NA
ATOM     16  C   UNL     1       3.169  -6.895   3.199  0.00  0.00    +0.085 C 
ATOM     17  C   UNL     1       1.744  -6.690   3.746  0.00  0.00    +0.048 C 
ATOM     18  C   UNL     1       1.737  -5.362   4.471  0.00  0.00    -0.036 C 
ATOM     19  C   UNL     1       0.928  -4.302   4.362  0.00  0.00    +0.003 A 
ATOM     20  C   UNL     1      -0.346  -4.070   3.670  0.00  0.00    +0.055 A 
ATOM     21  H   UNL     1       5.073  -6.958   3.972  0.00  0.00    +0.122 HD
ATOM     22  H   UNL     1       3.259  -2.961   6.166  0.00  0.00    +0.160 HD
BRANCH   8  24
ATOM     23  C   UNL     1      -2.693  -1.353   3.181  0.00  0.00    +0.277 C 
ATOM     24  O   UNL     1      -2.109  -2.653   3.085  0.00  0.00    -0.495 OA
ENDBRANCH   8  24
ENDBRANCH   1  14
BRANCH   5  25
ATOM     25  C   UNL     1       6.035  -1.104   4.490  0.00  0.00    +0.042 A 
ATOM     26  C   UNL     1       5.981  -0.041   3.598  0.00  0.00    +0.024 A 
ATOM     27  C   UNL     1       6.160   1.250   4.053  0.00  0.00    +0.003 A 
ATOM     28  C   UNL     1       6.392   1.486   5.396  0.00  0.00    +0.020 A 
ATOM     29  C   UNL     1       6.446   0.429   6.287  0.00  0.00    +0.043 A 
ATOM     30  C   UNL     1       6.262  -0.865   5.838  0.00  0.00    +0.043 A 
ATOM     31 CL   UNL     1       6.739   0.730   7.972  0.00  0.00    -0.083 Cl
ENDBRANCH   5  25
BRANCH   4  32
ATOM     32  O   UNL     1       7.715  -3.668   4.718  0.00  0.00    -0.356 OA
ATOM     33  H   UNL     1       8.527  -4.146   4.501  0.00  0.00    +0.214 HD
ENDBRANCH   4  32
BRANCH   2  34
ATOM     34  O   UNL     1       5.275  -5.834   1.838  0.00  0.00    -0.495 OA
ATOM     35  H   UNL     1       6.053  -6.088   1.323  0.00  0.00    +0.293 HD
ENDBRANCH   2  34
TORSDOF 5
