REMARK  Name = ZINC01804672
REMARK  10 active torsions:
REMARK  status: ('A' for Active; 'I' for Inactive)
REMARK    1  A    between atoms: C_1  and  O_2
REMARK    2  A    between atoms: O_2  and  C_3
REMARK    3  A    between atoms: C_6  and  C_9
REMARK    4  A    between atoms: C_12  and  S_21
REMARK    5  A    between atoms: N_13  and  C_14
REMARK    6  A    between atoms: S_21  and  C_22
REMARK    7  A    between atoms: C_22  and  C_23
REMARK    8  A    between atoms: N_25  and  N_26
REMARK    9  A    between atoms: N_26  and  C_27
REMARK   10  A    between atoms: C_27  and  C_29
REMARK                            x       y       z     vdW  Elec       q    Type
REMARK                         _______ _______ _______ _____ _____    ______ ____
ROOT
ATOM      1  C   UNL     1       2.318  -2.470  -4.479  0.00  0.00    +0.169 A 
ATOM      2  N   UNL     1       2.717  -1.897  -5.591  0.00  0.00    -0.128 NA
ATOM      3  N   UNL     1       3.274  -2.764  -6.358  0.00  0.00    -0.122 NA
ATOM      4  C   UNL     1       3.266  -3.946  -5.785  0.00  0.00    +0.197 A 
ATOM      5  N   UNL     1       2.662  -3.801  -4.566  0.00  0.00    -0.270 N 
ENDROOT
BRANCH   5   6
ATOM      6  C   UNL     1       2.438  -4.800  -3.607  0.00  0.00    +0.051 A 
ATOM      7  C   UNL     1       3.066  -4.730  -2.371  0.00  0.00    +0.028 A 
ATOM      8  C   UNL     1       2.844  -5.714  -1.428  0.00  0.00    +0.022 A 
ATOM      9  C   UNL     1       1.996  -6.769  -1.714  0.00  0.00    +0.041 A 
ATOM     10  C   UNL     1       1.369  -6.841  -2.946  0.00  0.00    +0.022 A 
ATOM     11  C   UNL     1       1.583  -5.856  -3.890  0.00  0.00    +0.028 A 
ATOM     12 CL   UNL     1       1.719  -8.005  -0.527  0.00  0.00    -0.084 Cl
ENDBRANCH   5   6
BRANCH   1  16
ATOM     13  C   UNL     1       0.351  -0.576  -1.224  0.00  0.00    +0.120 A 
ATOM     14  C   UNL     1       0.985   0.192  -2.192  0.00  0.00    +0.046 A 
ATOM     15  C   UNL     1       1.624  -0.419  -3.250  0.00  0.00    +0.015 A 
ATOM     16  C   UNL     1       1.634  -1.812  -3.347  0.00  0.00    +0.020 A 
ATOM     17  C   UNL     1       0.997  -2.580  -2.371  0.00  0.00    +0.015 A 
ATOM     18  C   UNL     1       0.364  -1.962  -1.314  0.00  0.00    +0.046 A 
BRANCH  13  20
ATOM     19  C   UNL     1      -0.253   1.458  -0.153  0.00  0.00    +0.277 C 
ATOM     20  O   UNL     1      -0.278   0.030  -0.183  0.00  0.00    -0.495 OA
ENDBRANCH  13  20
ENDBRANCH   1  16
BRANCH   4  21
ATOM     21  S   UNL     1       3.917  -5.439  -6.459  0.00  0.00    -0.076 S 
BRANCH  21  22
ATOM     22  C   UNL     1       4.573  -4.941  -8.075  0.00  0.00    +0.174 C 
BRANCH  22  23
ATOM     23  C   UNL     1       5.168  -6.141  -8.767  0.00  0.00    +0.239 C 
ATOM     24  O   UNL     1       5.151  -7.225  -8.223  0.00  0.00    -0.273 OA
ATOM     25  N   UNL     1       5.719  -6.009  -9.990  0.00  0.00    -0.236 N 
ATOM     26  H   UNL     1       5.732  -5.142 -10.425  0.00  0.00    +0.173 HD
BRANCH  25  27
ATOM     27  N   UNL     1       6.272  -7.124 -10.633  0.00  0.00    -0.264 N 
ATOM     28  H   UNL     1       6.258  -7.991 -10.198  0.00  0.00    +0.170 HD
BRANCH  27  29
ATOM     29  C   UNL     1       6.842  -6.988 -11.899  0.00  0.00    +0.046 C 
ATOM     30  C   UNL     1       6.860  -5.796 -12.498  0.00  0.00    +0.035 C 
BRANCH  29  31
ATOM     31  C   UNL     1       7.426  -8.167 -12.579  0.00  0.00    +0.015 A 
ATOM     32  C   UNL     1       8.757  -8.146 -12.995  0.00  0.00    +0.012 A 
ATOM     33  C   UNL     1       9.297  -9.247 -13.628  0.00  0.00    +0.021 A 
ATOM     34  C   UNL     1       8.520 -10.372 -13.850  0.00  0.00    +0.042 A 
ATOM     35  C   UNL     1       7.199 -10.399 -13.439  0.00  0.00    +0.040 A 
ATOM     36  C   UNL     1       6.649  -9.304 -12.800  0.00  0.00    +0.051 A 
ATOM     37 CL   UNL     1       4.994  -9.342 -12.279  0.00  0.00    -0.083 Cl
ATOM     38 CL   UNL     1       9.206 -11.753 -14.647  0.00  0.00    -0.083 Cl
ENDBRANCH  29  31
ENDBRANCH  27  29
ENDBRANCH  25  27
ENDBRANCH  22  23
ENDBRANCH  21  22
ENDBRANCH   4  21
TORSDOF 9
