REMARK  Name = ZINC34791337
REMARK  15 active torsions:
REMARK  status: ('A' for Active; 'I' for Inactive)
REMARK    1  A    between atoms: C_1  and  C_2
REMARK    2  A    between atoms: C_2  and  N_3
REMARK    3  A    between atoms: C_6  and  C_11
REMARK    4  A    between atoms: C_14  and  C_18
REMARK    5  A    between atoms: C_16  and  C_17
REMARK    6  A    between atoms: N_21  and  C_23
REMARK    7  A    between atoms: C_23  and  C_25
REMARK    8  A    between atoms: C_23  and  C_29
REMARK    9  A    between atoms: C_25  and  C_26
REMARK   10  A    between atoms: C_26  and  C_27
REMARK   11  A    between atoms: C_26  and  C_28
REMARK   12  A    between atoms: C_35  and  C_38
REMARK   13  A    between atoms: C_38  and  O_40
REMARK   14  A    between atoms: O_40  and  C_41
REMARK   15  A    between atoms: C_41  and  C_42
REMARK                            x       y       z     vdW  Elec       q    Type
REMARK                         _______ _______ _______ _____ _____    ______ ____
ROOT
ATOM      1  N   UNL     1       1.177  -0.760  -1.632  0.00  0.00    -0.257 N 
ATOM      2  C   UNL     1       0.497  -1.042  -2.783  0.00  0.00    +0.042 C 
ATOM      3  C   UNL     1       1.145  -1.446  -3.895  0.00  0.00    +0.058 C 
ATOM      4  C   UNL     1       2.653  -1.577  -3.824  0.00  0.00    +0.142 C 
ATOM      5  N   UNL     1       3.291  -1.249  -2.538  0.00  0.00    -0.288 N 
ATOM      6  C   UNL     1       2.507  -0.853  -1.515  0.00  0.00    +0.307 C 
ATOM      7  O   UNL     1       3.025  -0.577  -0.451  0.00  0.00    -0.252 OA
ATOM      8  C   UNL     1       0.227  -1.673  -4.941  0.00  0.00    +0.247 C 
ATOM      9  O   UNL     1       0.536  -2.046  -6.058  0.00  0.00    -0.270 OA
ATOM     10  N   UNL     1      -1.034  -1.425  -4.543  0.00  0.00    -0.281 N 
ATOM     11  C   UNL     1      -0.972  -1.002  -3.136  0.00  0.00    +0.160 C 
ATOM     12  H   UNL     1       4.253  -1.314  -2.430  0.00  0.00    +0.151 HD
ENDROOT
BRANCH   4  13
ATOM     13  C   UNL     1       3.247  -0.679  -4.878  0.00  0.00    -0.020 A 
ATOM     14  C   UNL     1       2.499   0.358  -5.405  0.00  0.00    +0.006 A 
ATOM     15  C   UNL     1       3.044   1.181  -6.372  0.00  0.00    +0.004 A 
ATOM     16  C   UNL     1       4.337   0.968  -6.813  0.00  0.00    -0.050 A 
ATOM     17  C   UNL     1       5.085  -0.068  -6.286  0.00  0.00    +0.007 A 
ATOM     18  C   UNL     1       4.541  -0.889  -5.316  0.00  0.00    -0.045 A 
ATOM     19  C   UNL     1       5.358  -2.016  -4.738  0.00  0.00    +0.044 C 
ATOM     20  C   UNL     1       4.931   1.865  -7.868  0.00  0.00    +0.044 C 
ENDBRANCH   4  13
BRANCH   1  22
ATOM     21  C   UNL     1       0.273   1.198  -0.478  0.00  0.00    +0.025 C 
ATOM     22  C   UNL     1       0.407  -0.326  -0.463  0.00  0.00    +0.111 C 
ENDBRANCH   1  22
BRANCH  10  23
ATOM     23  C   UNL     1      -2.243  -1.552  -5.360  0.00  0.00    +0.163 C 
BRANCH  23  24
ATOM     24  C   UNL     1      -2.381  -2.976  -5.836  0.00  0.00    +0.236 C 
ATOM     25  O   UNL     1      -1.399  -3.680  -5.934  0.00  0.00    -0.274 OA
ATOM     26  N   UNL     1      -3.596  -3.466  -6.151  0.00  0.00    -0.299 N 
ATOM     27  C   UNL     1      -4.779  -2.594  -6.149  0.00  0.00    +0.108 C 
ATOM     28  C   UNL     1      -5.479  -2.710  -7.507  0.00  0.00    +0.020 C 
ATOM     29  C   UNL     1      -5.784  -4.182  -7.795  0.00  0.00    +0.018 C 
ATOM     30  C   UNL     1      -4.475  -4.973  -7.857  0.00  0.00    +0.115 C 
ATOM     31  C   UNL     1      -3.763  -4.881  -6.510  0.00  0.00    +0.122 C 
BRANCH  30  32
ATOM     32  C   UNL     1      -4.774  -6.416  -8.174  0.00  0.00    +0.312 C 
ATOM     33  O   UNL     1      -4.449  -7.284  -7.399  0.00  0.00    -0.250 OA
BRANCH  32  34
ATOM     34  O   UNL     1      -5.401  -6.737  -9.316  0.00  0.00    -0.465 OA
BRANCH  34  35
ATOM     35  C   UNL     1      -5.652  -8.123  -9.552  0.00  0.00    +0.229 C 
ATOM     36  C   UNL     1      -6.369  -8.292 -10.893  0.00  0.00    +0.048 C 
ENDBRANCH  34  35
ENDBRANCH  32  34
ENDBRANCH  30  32
ENDBRANCH  23  24
BRANCH  23  37
ATOM     37  C   UNL     1      -2.143  -0.619  -6.568  0.00  0.00    +0.035 C 
BRANCH  37  38
ATOM     38  C   UNL     1      -2.107   0.834  -6.089  0.00  0.00    -0.015 C 
ATOM     39  C   UNL     1      -1.881   1.760  -7.285  0.00  0.00    +0.007 C 
ATOM     40  C   UNL     1      -3.436   1.183  -5.417  0.00  0.00    +0.007 C 
ENDBRANCH  37  38
ENDBRANCH  23  37
ENDBRANCH  10  23
TORSDOF 9
