REMARK  Name = ZINC39938594
REMARK  5 active torsions:
REMARK  status: ('A' for Active; 'I' for Inactive)
REMARK    1  A    between atoms: C_7  and  C_10
REMARK    2  A    between atoms: C_13  and  S_16
REMARK    3  A    between atoms: S_16  and  C_17
REMARK    4  A    between atoms: C_17  and  C_18
REMARK    5  A    between atoms: N_20  and  C_21
REMARK                            x       y       z     vdW  Elec       q    Type
REMARK                         _______ _______ _______ _____ _____    ______ ____
ROOT
ATOM      1  C   UNL     1      -0.012  -5.097   2.832  0.00  0.00    +0.170 C 
ENDROOT
BRANCH   1   2
ATOM      2  C   UNL     1      -0.050  -5.838   4.144  0.00  0.00    +0.227 C 
ATOM      3  O   UNL     1      -0.169  -7.045   4.155  0.00  0.00    -0.275 OA
ATOM      4  N   UNL     1       0.048  -5.160   5.304  0.00  0.00    -0.285 N 
ATOM      5  H   UNL     1       0.209  -4.203   5.295  0.00  0.00    +0.155 HD
BRANCH   4   6
ATOM      6  C   UNL     1      -0.085  -5.836   6.524  0.00  0.00    +0.037 A 
ATOM      7  C   UNL     1      -0.701  -5.212   7.600  0.00  0.00    +0.027 A 
ATOM      8  C   UNL     1      -0.833  -5.877   8.804  0.00  0.00    +0.051 A 
ATOM      9  C   UNL     1      -0.350  -7.168   8.941  0.00  0.00    +0.167 A 
ATOM     10  C   UNL     1       0.268  -7.797   7.863  0.00  0.00    +0.169 A 
ATOM     11  C   UNL     1       0.395  -7.132   6.655  0.00  0.00    +0.072 A 
ATOM     12  O   UNL     1       0.651  -9.051   8.248  0.00  0.00    -0.447 OA
ATOM     13  C   UNL     1       0.613  -9.036   9.682  0.00  0.00    +0.254 C 
ATOM     14  O   UNL     1      -0.355  -8.027  10.004  0.00  0.00    -0.448 OA
ATOM     15  C   UNL     1       0.165 -10.392  10.216  0.00  0.00    +0.093 C 
ATOM     16  C   UNL     1       0.101 -10.345  11.745  0.00  0.00    +0.008 C 
ATOM     17  C   UNL     1       1.482  -9.992  12.301  0.00  0.00    +0.000 C 
ATOM     18  C   UNL     1       1.910  -8.620  11.775  0.00  0.00    +0.008 C 
ATOM     19  C   UNL     1       1.980  -8.661  10.246  0.00  0.00    +0.093 C 
ENDBRANCH   4   6
ENDBRANCH   1   2
BRANCH   1  20
ATOM     20  S   UNL     1      -0.165  -6.279   1.465  0.00  0.00    -0.087 S 
BRANCH  20  24
ATOM     21  C   UNL     1       0.704  -3.136  -0.020  0.00  0.00    +0.238 C 
ATOM     22  N   UNL     1      -0.596  -3.006  -0.016  0.00  0.00    -0.145 NA
ATOM     23  N   UNL     1      -1.207  -4.268  -0.017  0.00  0.00    -0.219 N 
ATOM     24  C   UNL     1      -0.102  -5.242  -0.022  0.00  0.00    +0.339 C 
ATOM     25  O   UNL     1       1.085  -4.436  -0.029  0.00  0.00    -0.443 OA
ATOM     26  H   UNL     1      -2.158  -4.460  -0.014  0.00  0.00    +0.173 HD
BRANCH  21  33
ATOM     27  C   UNL     1       0.044   1.352   0.007  0.00  0.00    +0.001 A 
ATOM     28  C   UNL     1       1.228   2.091   0.003  0.00  0.00    +0.002 A 
ATOM     29  C   UNL     1       2.445   1.492  -0.009  0.00  0.00    +0.026 A 
ATOM     30  C   UNL     1       2.534   0.076  -0.017  0.00  0.00    +0.043 A 
ATOM     31  N   UNL     1       3.576  -0.732  -0.029  0.00  0.00    -0.380 N 
ATOM     32  C   UNL     1       3.110  -2.122  -0.032  0.00  0.00    +0.154 C 
ATOM     33  C   UNL     1       1.599  -2.057  -0.021  0.00  0.00    +0.043 C 
ATOM     34  C   UNL     1       1.282  -0.698  -0.012  0.00  0.00    +0.008 A 
ATOM     35  C   UNL     1       0.052  -0.006   0.000  0.00  0.00    +0.010 A 
ATOM     36  H   UNL     1       4.504  -0.451  -0.034  0.00  0.00    +0.160 HD
ENDBRANCH  21  33
ENDBRANCH  20  24
ENDBRANCH   1  20
TORSDOF 5
