REMARK  Name = ZINC39161281
REMARK  5 active torsions:
REMARK  status: ('A' for Active; 'I' for Inactive)
REMARK    1  A    between atoms: C_7  and  C_10
REMARK    2  A    between atoms: C_10  and  C_11
REMARK    3  A    between atoms: N_13  and  C_14
REMARK    4  A    between atoms: N_18  and  C_20
REMARK    5  A    between atoms: C_20  and  C_21
REMARK                            x       y       z     vdW  Elec       q    Type
REMARK                         _______ _______ _______ _____ _____    ______ ____
ROOT
ATOM      1  C   UNL     1      -4.436   3.672  -1.352  0.00  0.00    +0.219 C 
ATOM      2  O   UNL     1      -4.087   2.970  -2.278  0.00  0.00    -0.275 OA
ATOM      3  N   UNL     1      -4.893   4.918  -1.587  0.00  0.00    -0.299 N 
ATOM      4  H   UNL     1      -5.173   5.479  -0.847  0.00  0.00    +0.150 HD
ENDROOT
BRANCH   3   5
ATOM      5  C   UNL     1      -4.969   5.424  -2.959  0.00  0.00    +0.156 C 
ATOM      6  C   UNL     1      -6.312   6.154  -3.185  0.00  0.00    +0.056 C 
ATOM      7  C   UNL     1      -5.923   7.642  -2.986  0.00  0.00    +0.105 C 
ATOM      8  N   UNL     1      -4.556   7.691  -3.568  0.00  0.00    -0.237 NA
ATOM      9  N   UNL     1      -3.914   6.432  -3.188  0.00  0.00    -0.234 NA
ATOM     10  H   UNL     1      -3.342   6.551  -2.366  0.00  0.00    +0.143 HD
BRANCH   8  11
ATOM     11  C   UNL     1      -3.804   8.842  -3.051  0.00  0.00    +0.138 C 
BRANCH  11  12
ATOM     12  C   UNL     1      -2.474   8.930  -3.752  0.00  0.00    -0.012 A 
ATOM     13  C   UNL     1      -1.334   8.446  -3.137  0.00  0.00    +0.026 A 
ATOM     14  C   UNL     1      -0.113   8.526  -3.781  0.00  0.00    +0.041 A 
ATOM     15  C   UNL     1      -0.031   9.091  -5.042  0.00  0.00    +0.021 A 
ATOM     16  C   UNL     1      -1.170   9.574  -5.657  0.00  0.00    +0.022 A 
ATOM     17  C   UNL     1      -2.393   9.488  -5.015  0.00  0.00    +0.046 A 
ATOM     18 CL   UNL     1      -3.825  10.089  -5.792  0.00  0.00    -0.083 Cl
ATOM     19 CL   UNL     1       1.318   7.920  -3.007  0.00  0.00    -0.084 Cl
ENDBRANCH  11  12
ENDBRANCH   8  11
ENDBRANCH   3   5
BRANCH   1  20
ATOM     20  C   UNL     1      -4.358   3.151   0.060  0.00  0.00    +0.133 C 
BRANCH  20  27
ATOM     21  C   UNL     1      -0.017   1.384   0.010  0.00  0.00    +0.001 A 
ATOM     22  C   UNL     1       0.002  -0.004   0.002  0.00  0.00    +0.002 A 
ATOM     23  C   UNL     1      -1.173  -0.723   0.009  0.00  0.00    +0.026 A 
ATOM     24  C   UNL     1      -2.392  -0.053   0.024  0.00  0.00    +0.047 A 
ATOM     25  N   UNL     1      -3.704  -0.472   0.034  0.00  0.00    -0.360 N 
ATOM     26  C   UNL     1      -4.539   0.612   0.047  0.00  0.00    +0.087 A 
ATOM     27  C   UNL     1      -3.818   1.744   0.047  0.00  0.00    -0.014 A 
ATOM     28  C   UNL     1      -2.406   1.353   0.032  0.00  0.00    +0.003 A 
ATOM     29  C   UNL     1      -1.203   2.062   0.030  0.00  0.00    +0.010 A 
ATOM     30  H   UNL     1      -3.993  -1.398   0.030  0.00  0.00    +0.165 HD
ENDBRANCH  20  27
ENDBRANCH   1  20
TORSDOF 5
