REMARK  Name = ZINC21041890
REMARK  11 active torsions:
REMARK  status: ('A' for Active; 'I' for Inactive)
REMARK    1  A    between atoms: C_1  and  C_2
REMARK    2  A    between atoms: C_5  and  N_8
REMARK    3  A    between atoms: C_11  and  C_33
REMARK    4  A    between atoms: C_12  and  C_17
REMARK    5  A    between atoms: N_15  and  C_16
REMARK    6  A    between atoms: C_17  and  C_18
REMARK    7  A    between atoms: C_18  and  C_19
REMARK    8  A    between atoms: N_21  and  C_22
REMARK    9  A    between atoms: C_25  and  O_28
REMARK   10  A    between atoms: O_28  and  C_29
REMARK   11  A    between atoms: C_34  and  C_36
REMARK                            x       y       z     vdW  Elec       q    Type
REMARK                         _______ _______ _______ _____ _____    ______ ____
ROOT
ATOM      1  N   UNL     1       3.986 -10.440   0.347  0.00  0.00    -0.215 N 
ATOM      2  C   UNL     1       4.072  -9.101   0.564  0.00  0.00    +0.147 A 
ATOM      3  C   UNL     1       4.147  -8.492  -0.691  0.00  0.00    +0.044 A 
ATOM      4  C   UNL     1       4.240  -7.084  -0.777  0.00  0.00    -0.030 A 
ATOM      5  C   UNL     1       4.266  -6.351   0.367  0.00  0.00    +0.021 A 
ATOM      6  C   UNL     1       4.189  -6.994   1.616  0.00  0.00    +0.256 A 
ATOM      7  O   UNL     1       4.207  -6.329   2.638  0.00  0.00    -0.267 OA
ATOM      8  N   UNL     1       4.094  -8.335   1.697  0.00  0.00    -0.296 N 
ATOM      9  C   UNL     1       4.015  -8.979   3.011  0.00  0.00    +0.154 C 
ATOM     10  C   UNL     1       4.317  -6.405  -2.120  0.00  0.00    +0.045 C 
ATOM     11  C   UNL     1       4.101  -9.524  -1.658  0.00  0.00    +0.070 A 
ATOM     12  N   UNL     1       4.006 -10.664  -1.034  0.00  0.00    -0.169 NA
ATOM     13  C   UNL     1       4.154  -9.336  -3.152  0.00  0.00    +0.068 C 
ENDROOT
BRANCH   1  18
ATOM     14  C   UNL     1       3.604 -14.436   4.359  0.00  0.00    +0.044 C 
ATOM     15  C   UNL     1       3.705 -13.375   3.293  0.00  0.00    -0.050 A 
ATOM     16  C   UNL     1       2.818 -12.314   3.289  0.00  0.00    +0.005 A 
ATOM     17  C   UNL     1       2.908 -11.340   2.314  0.00  0.00    +0.028 A 
ATOM     18  C   UNL     1       3.891 -11.427   1.337  0.00  0.00    +0.068 A 
ATOM     19  C   UNL     1       4.777 -12.496   1.341  0.00  0.00    +0.028 A 
ATOM     20  C   UNL     1       4.685 -13.464   2.321  0.00  0.00    +0.005 A 
ENDBRANCH   1  18
BRANCH   5  21
ATOM     21  C   UNL     1       4.372  -4.850   0.298  0.00  0.00    +0.050 C 
BRANCH  21  22
ATOM     22  C   UNL     1       5.839  -4.435   0.425  0.00  0.00    +0.101 C 
BRANCH  22  23
ATOM     23  C   UNL     1       5.945  -2.933   0.356  0.00  0.00    +0.218 C 
ATOM     24  O   UNL     1       4.945  -2.261   0.219  0.00  0.00    -0.275 OA
ATOM     25  N   UNL     1       7.150  -2.338   0.447  0.00  0.00    -0.285 N 
ATOM     26  H   UNL     1       8.064  -2.949   0.487  0.00  0.00    +0.155 HD
BRANCH  25  27
ATOM     27  C   UNL     1       7.240  -0.940   0.490  0.00  0.00    +0.034 A 
ATOM     28  C   UNL     1       6.202  -0.194   1.032  0.00  0.00    +0.027 A 
ATOM     29  C   UNL     1       6.291   1.183   1.074  0.00  0.00    +0.048 A 
ATOM     30  C   UNL     1       7.417   1.821   0.576  0.00  0.00    +0.130 A 
ATOM     31  C   UNL     1       8.454   1.077   0.034  0.00  0.00    +0.048 A 
ATOM     32  C   UNL     1       8.367  -0.301  -0.009  0.00  0.00    +0.027 A 
BRANCH  30  33
ATOM     33  O   UNL     1       7.504   3.178   0.617  0.00  0.00    -0.406 OA
BRANCH  33  34
ATOM     34  C   UNL     1       8.692   3.768   0.087  0.00  0.00    +0.575 C 
ATOM     35  F   UNL     1       8.820   3.425  -1.264  0.00  0.00    -0.133 F 
ATOM     36  F   UNL     1       8.615   5.160   0.208  0.00  0.00    -0.133 F 
ATOM     37  F   UNL     1       9.803   3.299   0.795  0.00  0.00    -0.133 F 
ENDBRANCH  33  34
ENDBRANCH  30  33
ENDBRANCH  25  27
ENDBRANCH  22  23
ENDBRANCH  21  22
ENDBRANCH   5  21
TORSDOF 7
