REMARK  Name = ZINC36500548
REMARK  14 active torsions:
REMARK  status: ('A' for Active; 'I' for Inactive)
REMARK    1  A    between atoms: C_1  and  C_2
REMARK    2  A    between atoms: C_2  and  C_3
REMARK    3  A    between atoms: C_3  and  C_4
REMARK    4  A    between atoms: C_4  and  N_5
REMARK    5  A    between atoms: C_6  and  C_8
REMARK    6  A    between atoms: C_8  and  C_10
REMARK    7  A    between atoms: C_8  and  N_22
REMARK    8  A    between atoms: C_19  and  O_20
REMARK    9  A    between atoms: O_20  and  C_21
REMARK   10  A    between atoms: N_22  and  C_23
REMARK   11  A    between atoms: C_23  and  C_24
REMARK   12  A    between atoms: C_29  and  C_31
REMARK   13  A    between atoms: C_32  and  O_38
REMARK   14  A    between atoms: C_36  and  O_37
REMARK                            x       y       z     vdW  Elec       q    Type
REMARK                         _______ _______ _______ _____ _____    ______ ____
ROOT
ATOM      1  C   UNL     1       2.239  -4.240  -3.721  0.00  0.00    +0.197 C 
ENDROOT
BRANCH   1   2
ATOM      2  C   UNL     1       3.634  -3.675  -3.793  0.00  0.00    +0.031 A 
ATOM      3  C   UNL     1       3.887  -2.512  -4.539  0.00  0.00    -0.009 A 
ATOM      4  C   UNL     1       2.857  -1.851  -5.230  0.00  0.00    +0.009 A 
ATOM      5  C   UNL     1       3.139  -0.726  -5.943  0.00  0.00    +0.001 A 
ATOM      6  C   UNL     1       4.435  -0.217  -5.999  0.00  0.00    +0.001 A 
ATOM      7  C   UNL     1       5.457  -0.831  -5.342  0.00  0.00    +0.008 A 
ATOM      8  C   UNL     1       5.206  -1.994  -4.595  0.00  0.00    -0.017 A 
ATOM      9  C   UNL     1       6.237  -2.654  -3.904  0.00  0.00    +0.012 A 
ATOM     10  C   UNL     1       5.959  -3.778  -3.190  0.00  0.00    +0.046 A 
ATOM     11  C   UNL     1       4.658  -4.287  -3.129  0.00  0.00    +0.126 A 
BRANCH  11  12
ATOM     12  O   UNL     1       4.411  -5.409  -2.404  0.00  0.00    -0.495 OA
ATOM     13  C   UNL     1       5.528  -6.023  -1.757  0.00  0.00    +0.277 C 
ENDBRANCH  11  12
ENDBRANCH   1   2
BRANCH   1  15
ATOM     14  N   UNL     1       2.024  -2.878  -1.667  0.00  0.00    -0.313 N 
ATOM     15  C   UNL     1       1.662  -3.980  -2.353  0.00  0.00    +0.238 C 
ATOM     16  O   UNL     1       0.872  -4.763  -1.870  0.00  0.00    -0.273 OA
ATOM     17  H   UNL     1       2.656  -2.252  -2.054  0.00  0.00    +0.149 HD
BRANCH  14  18
ATOM     18  C   UNL     1       1.463  -2.625  -0.338  0.00  0.00    +0.104 C 
BRANCH  18  19
ATOM     19  C   UNL     1       2.034  -1.319   0.217  0.00  0.00    +0.018 C 
BRANCH  19  21
ATOM     20  C   UNL     1       2.019   0.252   2.160  0.00  0.00    +0.004 C 
ATOM     21  C   UNL     1       1.448  -1.055   1.605  0.00  0.00    -0.002 C 
ENDBRANCH  19  21
ENDBRANCH  18  19
ENDBRANCH  14  18
ENDBRANCH   1  15
BRANCH   1  22
ATOM     22  N   UNL     1       2.283  -5.684  -3.966  0.00  0.00    -0.274 N 
ATOM     23  C   UNL     1       2.668  -6.151  -5.170  0.00  0.00    +0.255 C 
ATOM     24  O   UNL     1       2.978  -5.375  -6.053  0.00  0.00    -0.270 OA
BRANCH  23  25
ATOM     25  C   UNL     1       2.713  -7.602  -5.416  0.00  0.00    +0.119 A 
ATOM     26  C   UNL     1       1.586  -8.269  -5.918  0.00  0.00    +0.133 A 
ATOM     27  C   UNL     1       1.639  -9.634  -6.146  0.00  0.00    +0.046 A 
ATOM     28  C   UNL     1       2.798 -10.340  -5.881  0.00  0.00    +0.007 A 
ATOM     29  C   UNL     1       3.915  -9.693  -5.385  0.00  0.00    +0.046 A 
ATOM     30  C   UNL     1       3.885  -8.327  -5.155  0.00  0.00    +0.133 A 
BRANCH  30  31
ATOM     31  O   UNL     1       4.984  -7.694  -4.674  0.00  0.00    -0.506 OA
ATOM     32  H   UNL     1       5.027  -7.659  -3.709  0.00  0.00    +0.292 HD
ENDBRANCH  30  31
BRANCH  26  33
ATOM     33  O   UNL     1       0.447  -7.579  -6.179  0.00  0.00    -0.506 OA
ATOM     34  H   UNL     1       0.396  -7.230  -7.079  0.00  0.00    +0.292 HD
ENDBRANCH  26  33
ENDBRANCH  23  25
BRANCH  22  35
ATOM     35  C   UNL     1       1.910  -6.619  -2.902  0.00  0.00    +0.183 C 
BRANCH  35  36
ATOM     36  C   UNL     1       0.480  -7.054  -3.095  0.00  0.00    +0.122 A 
ATOM     37  C   UNL     1       0.078  -8.201  -3.673  0.00  0.00    +0.046 A 
ATOM     38  C   UNL     1      -1.335  -8.200  -3.643  0.00  0.00    +0.041 A 
ATOM     39  C   UNL     1      -1.713  -7.054  -3.049  0.00  0.00    +0.195 A 
ATOM     40  O   UNL     1      -0.609  -6.367  -2.714  0.00  0.00    -0.466 OA
ENDBRANCH  35  36
ENDBRANCH  22  35
ENDBRANCH   1  22
TORSDOF 12
