REMARK  Name = ZINC13370356
REMARK  8 active torsions:
REMARK  status: ('A' for Active; 'I' for Inactive)
REMARK    1  A    between atoms: C_1  and  C_2
REMARK    2  A    between atoms: C_2  and  C_3
REMARK    3  A    between atoms: C_9  and  C_13
REMARK    4  A    between atoms: C_13  and  O_14
REMARK    5  A    between atoms: O_14  and  C_15
REMARK    6  A    between atoms: C_15  and  C_17
REMARK    7  A    between atoms: C_22  and  N_23
REMARK    8  A    between atoms: C_24  and  C_26
REMARK                            x       y       z     vdW  Elec       q    Type
REMARK                         _______ _______ _______ _____ _____    ______ ____
ROOT
ATOM      1  C   UNL     1      -2.885   7.920  -1.826  0.00  0.00    +0.080 A 
ATOM      2  C   UNL     1      -2.950   9.312  -1.716  0.00  0.00    +0.017 A 
ATOM      3  C   UNL     1      -2.330   9.948  -0.663  0.00  0.00    +0.001 A 
ATOM      4  C   UNL     1      -1.641   9.215   0.290  0.00  0.00    +0.002 A 
ATOM      5  C   UNL     1      -1.571   7.840   0.198  0.00  0.00    +0.024 A 
ATOM      6  C   UNL     1      -2.186   7.181  -0.859  0.00  0.00    +0.047 A 
ENDROOT
BRANCH   6   7
ATOM      7  N   UNL     1      -2.114   5.794  -0.957  0.00  0.00    -0.284 N 
ATOM      8  C   UNL     1      -1.089   5.131  -0.385  0.00  0.00    +0.223 C 
ATOM      9  O   UNL     1      -0.178   5.747   0.127  0.00  0.00    -0.275 OA
ATOM     10  H   UNL     1      -2.801   5.305  -1.436  0.00  0.00    +0.155 HD
BRANCH   8  11
ATOM     11  C   UNL     1      -1.075   3.624  -0.382  0.00  0.00    +0.048 C 
ATOM     12  C   UNL     1      -1.089   3.111  -1.823  0.00  0.00    +0.019 C 
ATOM     13  C   UNL     1      -1.074   1.581  -1.820  0.00  0.00    -0.009 C 
ATOM     14  C   UNL     1       0.189   1.084  -1.114  0.00  0.00    +0.007 C 
ATOM     15  C   UNL     1       0.203   1.597   0.327  0.00  0.00    -0.009 C 
ATOM     16  C   UNL     1       0.189   3.127   0.324  0.00  0.00    +0.019 C 
ATOM     17  C   UNL     1      -1.032   1.077   1.065  0.00  0.00    +0.007 C 
ATOM     18  C   UNL     1      -2.295   1.574   0.359  0.00  0.00    -0.009 C 
ATOM     19  C   UNL     1      -2.309   1.061  -1.082  0.00  0.00    +0.007 C 
ATOM     20  C   UNL     1      -2.310   3.104   0.356  0.00  0.00    +0.019 C 
ENDBRANCH   8  11
ENDBRANCH   6   7
BRANCH   1  21
ATOM     21  C   UNL     1      -3.547   7.233  -2.949  0.00  0.00    +0.341 C 
ATOM     22  O   UNL     1      -3.565   6.019  -2.993  0.00  0.00    -0.245 OA
BRANCH  21  23
ATOM     23  O   UNL     1      -4.131   7.952  -3.928  0.00  0.00    -0.455 OA
BRANCH  23  24
ATOM     24  C   UNL     1      -4.764   7.209  -5.003  0.00  0.00    +0.288 C 
BRANCH  24  31
ATOM     25  C   UNL     1      -8.107  11.602  -8.083  0.00  0.00    +0.102 A 
ATOM     26  N   UNL     1      -7.137  10.890  -8.570  0.00  0.00    -0.159 NA
ATOM     27  N   UNL     1      -6.466   9.945  -7.799  0.00  0.00    -0.171 N 
ATOM     28  C   UNL     1      -5.437   9.139  -8.192  0.00  0.00    +0.275 A 
ATOM     29  O   UNL     1      -5.010   9.205  -9.334  0.00  0.00    -0.266 OA
ATOM     30  C   UNL     1      -4.872   8.241  -7.286  0.00  0.00    +0.099 A 
ATOM     31  C   UNL     1      -5.359   8.172  -5.997  0.00  0.00    +0.087 A 
ATOM     32  N   UNL     1      -6.367   8.968  -5.649  0.00  0.00    -0.223 NA
ATOM     33  C   UNL     1      -6.887   9.812  -6.504  0.00  0.00    +0.199 A 
ATOM     34  S   UNL     1      -8.202  11.006  -6.402  0.00  0.00    -0.033 S 
BRANCH  25  36
ATOM     35  C   UNL     1      -8.478  12.819 -10.212  0.00  0.00    +0.011 C 
ATOM     36  C   UNL     1      -8.939  12.660  -8.761  0.00  0.00    +0.061 C 
ENDBRANCH  25  36
ENDBRANCH  24  31
ENDBRANCH  23  24
ENDBRANCH  21  23
ENDBRANCH   1  21
TORSDOF 7
