REMARK  Name = ZINC39709242
REMARK  11 active torsions:
REMARK  status: ('A' for Active; 'I' for Inactive)
REMARK    1  A    between atoms: C_1  and  C_2
REMARK    2  A    between atoms: C_2  and  O_3
REMARK    3  A    between atoms: O_3  and  C_4
REMARK    4  A    between atoms: C_7  and  N_10
REMARK    5  A    between atoms: N_10  and  C_11
REMARK    6  A    between atoms: C_11  and  N_13
REMARK    7  A    between atoms: N_13  and  C_14
REMARK    8  A    between atoms: N_13  and  C_21
REMARK    9  A    between atoms: C_14  and  C_15
REMARK   10  A    between atoms: C_21  and  C_22
REMARK   11  A    between atoms: C_27  and  C_34
REMARK                            x       y       z     vdW  Elec       q    Type
REMARK                         _______ _______ _______ _____ _____    ______ ____
ROOT
ATOM      1  N   UNL     1       1.942  -7.934   2.920  0.00  0.00    -0.307 N 
ENDROOT
BRANCH   1   2
ATOM      2  C   UNL     1       1.908  -6.664   2.472  0.00  0.00    +0.137 C 
ATOM      3  S   UNL     1       2.892  -5.471   3.207  0.00  0.00    -0.018 S 
BRANCH   2   4
ATOM      4  N   UNL     1       1.100  -6.332   1.446  0.00  0.00    -0.297 N 
ATOM      5  H   UNL     1       0.488  -6.989   1.078  0.00  0.00    +0.154 HD
BRANCH   4   9
ATOM      6  C   UNL     1       1.230  -2.482  -0.150  0.00  0.00    +0.121 A 
ATOM      7  C   UNL     1       2.407  -3.131   0.190  0.00  0.00    +0.047 A 
ATOM      8  C   UNL     1       2.365  -4.406   0.719  0.00  0.00    +0.027 A 
ATOM      9  C   UNL     1       1.143  -5.038   0.910  0.00  0.00    +0.033 A 
ATOM     10  C   UNL     1      -0.035  -4.387   0.569  0.00  0.00    +0.027 A 
ATOM     11  C   UNL     1       0.009  -3.111   0.045  0.00  0.00    +0.047 A 
BRANCH   6  12
ATOM     12  O   UNL     1       1.272  -1.226  -0.671  0.00  0.00    -0.492 OA
BRANCH  12  14
ATOM     13  C   UNL     1       2.410   0.763  -1.438  0.00  0.00    +0.048 C 
ATOM     14  C   UNL     1       2.563  -0.640  -0.846  0.00  0.00    +0.225 C 
ENDBRANCH  12  14
ENDBRANCH   6  12
ENDBRANCH   4   9
ENDBRANCH   2   4
ENDBRANCH   1   2
BRANCH   1  15
ATOM     15  C   UNL     1       1.099  -8.955   2.291  0.00  0.00    +0.142 C 
BRANCH  15  16
ATOM     16  C   UNL     1       1.873  -9.637   1.192  0.00  0.00    -0.030 A 
ATOM     17  C   UNL     1       1.833  -9.134  -0.095  0.00  0.00    +0.005 A 
ATOM     18  C   UNL     1       2.543  -9.760  -1.104  0.00  0.00    +0.000 A 
ATOM     19  C   UNL     1       3.292 -10.888  -0.825  0.00  0.00    +0.000 A 
ATOM     20  C   UNL     1       3.332 -11.390   0.463  0.00  0.00    +0.000 A 
ATOM     21  C   UNL     1       2.626 -10.762   1.472  0.00  0.00    +0.005 A 
ENDBRANCH  15  16
ENDBRANCH   1  15
BRANCH   1  22
ATOM     22  C   UNL     1       2.820  -8.295   4.035  0.00  0.00    +0.124 C 
BRANCH  22  23
ATOM     23  C   UNL     1       2.023  -8.272   5.341  0.00  0.00    +0.116 C 
ATOM     24  C   UNL     1       1.440  -6.882   5.505  0.00  0.00    -0.003 C 
ATOM     25  C   UNL     1       1.771  -6.195   6.635  0.00  0.00    -0.007 A 
ATOM     26  C   UNL     1       1.253  -4.847   6.874  0.00  0.00    +0.012 A 
ATOM     27  C   UNL     1       1.610  -4.201   8.014  0.00  0.00    -0.050 A 
ATOM     28  C   UNL     1       2.453  -4.795   8.952  0.00  0.00    +0.005 A 
ATOM     29  C   UNL     1       2.967  -6.043   8.790  0.00  0.00    +0.024 A 
ATOM     30  C   UNL     1       2.660  -6.798   7.644  0.00  0.00    +0.040 A 
ATOM     31  N   UNL     1       3.169  -8.021   7.495  0.00  0.00    -0.284 N 
ATOM     32  C   UNL     1       2.923  -8.782   6.443  0.00  0.00    +0.226 C 
ATOM     33  O   UNL     1       3.418  -9.891   6.364  0.00  0.00    -0.275 OA
ATOM     34  C   UNL     1       1.083  -2.812   8.270  0.00  0.00    +0.044 C 
ATOM     35  H   UNL     1       3.749  -8.368   8.192  0.00  0.00    +0.155 HD
ENDBRANCH  22  23
ENDBRANCH   1  22
TORSDOF 9
