REMARK  Name = ZINC65989056
REMARK  6 active torsions:
REMARK  status: ('A' for Active; 'I' for Inactive)
REMARK    1  A    between atoms: C_1  and  N_2
REMARK    2  A    between atoms: N_2  and  C_3
REMARK    3  A    between atoms: C_7  and  C_10
REMARK    4  A    between atoms: C_10  and  N_11
REMARK    5  A    between atoms: C_17  and  N_20
REMARK    6  A    between atoms: C_21  and  C_23
REMARK                            x       y       z     vdW  Elec       q    Type
REMARK                         _______ _______ _______ _____ _____    ______ ____
ROOT
ATOM      1  N   UNL     1      -0.614  -3.938  -7.314  0.00  0.00    -0.295 N 
ATOM      2  C   UNL     1      -1.637  -3.548  -6.528  0.00  0.00    +0.302 C 
ATOM      3  O   UNL     1      -1.415  -3.082  -5.427  0.00  0.00    -0.253 OA
ATOM      4  N   UNL     1      -2.907  -3.674  -6.962  0.00  0.00    -0.286 N 
ATOM      5  C   UNL     1      -4.026  -3.148  -6.168  0.00  0.00    +0.111 C 
ATOM      6  C   UNL     1      -4.867  -2.224  -7.053  0.00  0.00    +0.041 C 
ATOM      7  C   UNL     1      -5.293  -2.980  -8.314  0.00  0.00    +0.076 C 
ATOM      8  C   UNL     1      -4.050  -3.403  -9.101  0.00  0.00    +0.041 C 
ATOM      9  C   UNL     1      -3.198  -4.335  -8.241  0.00  0.00    +0.111 C 
ATOM     10  H   UNL     1      -0.793  -4.377  -8.160  0.00  0.00    +0.151 HD
ENDROOT
BRANCH   7  11
ATOM     11  N   UNL     1      -6.125  -2.110  -9.148  0.00  0.00    -0.312 N 
ATOM     12  C   UNL     1      -7.011  -2.648 -10.009  0.00  0.00    +0.216 C 
ATOM     13  O   UNL     1      -7.118  -3.853 -10.094  0.00  0.00    -0.276 OA
ATOM     14  H   UNL     1      -6.039  -1.146  -9.079  0.00  0.00    +0.149 HD
BRANCH  12  15
ATOM     15  C   UNL     1      -7.868  -1.753 -10.867  0.00  0.00    +0.075 C 
ATOM     16  C   UNL     1      -8.723  -0.855  -9.971  0.00  0.00    +0.013 C 
ATOM     17  C   UNL     1      -9.593   0.054 -10.842  0.00  0.00    +0.001 C 
ATOM     18  C   UNL     1     -10.504  -0.803 -11.723  0.00  0.00    +0.000 C 
ATOM     19  C   UNL     1      -9.648  -1.701 -12.619  0.00  0.00    +0.001 C 
ATOM     20  C   UNL     1      -8.778  -2.610 -11.748  0.00  0.00    +0.013 C 
ENDBRANCH  12  15
ENDBRANCH   7  11
BRANCH   1  21
ATOM     21  C   UNL     1       0.767  -3.700  -6.890  0.00  0.00    +0.142 C 
BRANCH  21  28
ATOM     22  C   UNL     1       4.731  -7.182 -10.613  0.00  0.00    +0.130 C 
ATOM     23  N   UNL     1       4.293  -5.789 -10.733  0.00  0.00    -0.323 N 
ATOM     24  C   UNL     1       4.775  -4.963 -11.843  0.00  0.00    +0.130 C 
ATOM     25  C   UNL     1       3.421  -5.251  -9.794  0.00  0.00    +0.098 A 
ATOM     26  C   UNL     1       3.005  -3.929  -9.917  0.00  0.00    +0.042 A 
ATOM     27  C   UNL     1       2.137  -3.406  -8.976  0.00  0.00    +0.010 A 
ATOM     28  C   UNL     1       1.713  -4.227  -7.939  0.00  0.00    -0.014 A 
ATOM     29  C   UNL     1       2.166  -5.529  -7.878  0.00  0.00    +0.089 A 
ATOM     30  N   UNL     1       2.990  -6.003  -8.793  0.00  0.00    -0.349 N 
ATOM     31  H   UNL     1       3.290  -6.923  -8.729  0.00  0.00    +0.167 HD
ENDBRANCH  21  28
ENDBRANCH   1  21
TORSDOF 4
