REMARK  Name = ZINC43548726
REMARK  10 active torsions:
REMARK  status: ('A' for Active; 'I' for Inactive)
REMARK    1  A    between atoms: C_1  and  C_2
REMARK    2  A    between atoms: N_9  and  C_10
REMARK    3  A    between atoms: C_18  and  C_38
REMARK    4  A    between atoms: C_21  and  O_37
REMARK    5  A    between atoms: C_23  and  C_27
REMARK    6  A    between atoms: C_27  and  C_29
REMARK    7  A    between atoms: C_27  and  C_30
REMARK    8  A    between atoms: N_32  and  C_33
REMARK    9  A    between atoms: N_32  and  C_34
REMARK   10  A    between atoms: C_34  and  C_35
REMARK                            x       y       z     vdW  Elec       q    Type
REMARK                         _______ _______ _______ _____ _____    ______ ____
ROOT
ATOM      1  C   UNL     1      -1.338   1.793   0.479  0.00  0.00    +0.014 C 
ATOM      2  C   UNL     1      -0.958   0.327   0.261  0.00  0.00    +0.042 C 
ATOM      3  C   UNL     1      -2.208  -0.537   0.328  0.00  0.00    +0.057 A 
ATOM      4  C   UNL     1      -2.489  -1.254   1.446  0.00  0.00    +0.015 A 
ATOM      5  S   UNL     1      -4.006  -2.061   1.016  0.00  0.00    -0.057 S 
ATOM      6  C   UNL     1      -4.159  -1.427  -0.538  0.00  0.00    +0.163 A 
ATOM      7  N   UNL     1      -3.095  -0.663  -0.656  0.00  0.00    -0.229 NA
ATOM      8  N   UNL     1      -5.162  -1.657  -1.468  0.00  0.00    -0.294 N 
ATOM      9  C   UNL     1      -1.698  -1.326   2.706  0.00  0.00    +0.051 C 
ATOM     10  C   UNL     1      -0.679  -0.171   2.716  0.00  0.00    -0.022 C 
ATOM     11  C   UNL     1       0.015  -0.114   1.349  0.00  0.00    +0.033 C 
ATOM     12  C   UNL     1       0.600  -1.488   1.024  0.00  0.00    +0.123 C 
ATOM     13  C   UNL     1       1.644  -1.851   2.085  0.00  0.00    +0.029 C 
ATOM     14  C   UNL     1       0.992  -1.865   3.468  0.00  0.00    +0.007 C 
ATOM     15  C   UNL     1       0.385  -0.493   3.776  0.00  0.00    +0.008 C 
ATOM     16  C   UNL     1      -1.373   1.155   3.036  0.00  0.00    +0.012 C 
ATOM     17  H   UNL     1      -5.084  -1.296  -2.365  0.00  0.00    +0.154 HD
ENDROOT
BRANCH   8  18
ATOM     18  C   UNL     1      -6.287  -2.408  -1.112  0.00  0.00    +0.033 A 
ATOM     19  C   UNL     1      -6.896  -3.236  -2.047  0.00  0.00    +0.026 A 
ATOM     20  C   UNL     1      -8.006  -3.977  -1.693  0.00  0.00    +0.040 A 
ATOM     21  C   UNL     1      -8.513  -3.895  -0.407  0.00  0.00    +0.124 A 
ATOM     22  C   UNL     1      -7.908  -3.071   0.527  0.00  0.00    +0.040 A 
ATOM     23  C   UNL     1      -6.794  -2.332   0.179  0.00  0.00    +0.026 A 
ATOM     24  F   UNL     1      -9.599  -4.621  -0.063  0.00  0.00    -0.205 F 
ENDBRANCH   8  18
BRANCH  13  25
ATOM     25  C   UNL     1       2.219  -3.235   1.780  0.00  0.00    +0.078 C 
ATOM     26  C   UNL     1       1.089  -4.267   1.777  0.00  0.00    +0.017 C 
BRANCH  25  27
ATOM     27  C   UNL     1       3.231  -3.602   2.834  0.00  0.00    +0.219 C 
ATOM     28  O   UNL     1       2.901  -4.285   3.780  0.00  0.00    -0.275 OA
ATOM     29  N   UNL     1       4.503  -3.171   2.726  0.00  0.00    -0.293 N 
ATOM     30  C   UNL     1       4.881  -2.269   1.635  0.00  0.00    +0.133 C 
BRANCH  29  31
ATOM     31  C   UNL     1       5.509  -3.604   3.699  0.00  0.00    +0.196 C 
BRANCH  31  32
ATOM     32  C   UNL     1       6.149  -4.842   3.226  0.00  0.00    -0.086 C 
ATOM     33  C   UNL     1       6.659  -5.830   2.849  0.00  0.00    +0.005 C 
ENDBRANCH  31  32
ENDBRANCH  29  31
ENDBRANCH  25  27
ENDBRANCH  13  25
BRANCH  12  34
ATOM     34  O   UNL     1       1.218  -1.452  -0.264  0.00  0.00    -0.391 OA
ATOM     35  H   UNL     1       1.539  -2.312  -0.570  0.00  0.00    +0.210 HD
ENDBRANCH  12  34
TORSDOF 6
