REMARK  Name = ZINC09452412
REMARK  9 active torsions:
REMARK  status: ('A' for Active; 'I' for Inactive)
REMARK    1  A    between atoms: C_1  and  C_2
REMARK    2  A    between atoms: C_2  and  C_30
REMARK    3  A    between atoms: C_4  and  C_8
REMARK    4  A    between atoms: C_4  and  C_20
REMARK    5  A    between atoms: C_8  and  C_9
REMARK    6  A    between atoms: C_9  and  N_58
REMARK    7  A    between atoms: C_10  and  C_11
REMARK    8  A    between atoms: C_10  and  N_58
REMARK    9  A    between atoms: C_24  and  C_26
REMARK                            x       y       z     vdW  Elec       q    Type
REMARK                         _______ _______ _______ _____ _____    ______ ____
ROOT
ATOM      1  C   UNL     1      -0.134  -6.327  -6.727  0.00  0.00    +0.041 C 
ATOM      2  C   UNL     1      -0.025  -5.918  -5.256  0.00  0.00    +0.065 C 
ATOM      3  C   UNL     1       1.271  -6.482  -4.664  0.00  0.00    +0.046 C 
ATOM      4  C   UNL     1       1.341  -6.119  -3.178  0.00  0.00    -0.001 C 
ATOM      5  C   UNL     1       0.095  -6.660  -2.470  0.00  0.00    +0.039 C 
ATOM      6  C   UNL     1      -1.154  -6.089  -3.147  0.00  0.00    +0.161 C 
ATOM      7  O   UNL     1      -1.144  -6.436  -4.534  0.00  0.00    -0.374 OA
ATOM      8  C   UNL     1      -0.013  -4.392  -5.151  0.00  0.00    +0.041 C 
ENDROOT
BRANCH   4   9
ATOM      9  C   UNL     1       2.574  -6.734  -2.566  0.00  0.00    -0.041 A 
ATOM     10  C   UNL     1       3.485  -7.399  -3.367  0.00  0.00    +0.004 A 
ATOM     11  C   UNL     1       4.615  -7.963  -2.806  0.00  0.00    +0.001 A 
ATOM     12  C   UNL     1       4.836  -7.861  -1.445  0.00  0.00    +0.012 A 
ATOM     13  C   UNL     1       3.926  -7.196  -0.645  0.00  0.00    +0.055 A 
ATOM     14  C   UNL     1       2.797  -6.628  -1.206  0.00  0.00    +0.016 A 
BRANCH  13  15
ATOM     15  C   UNL     1       4.167  -7.085   0.839  0.00  0.00    +0.417 C 
ATOM     16  F   UNL     1       5.365  -7.728   1.166  0.00  0.00    -0.166 F 
ATOM     17  F   UNL     1       4.248  -5.736   1.199  0.00  0.00    -0.166 F 
ATOM     18  F   UNL     1       3.110  -7.690   1.528  0.00  0.00    -0.166 F 
ENDBRANCH  13  15
ENDBRANCH   4   9
BRANCH   4  19
ATOM     19  C   UNL     1       1.398  -4.598  -3.024  0.00  0.00    -0.007 C 
BRANCH  19  20
ATOM     20  C   UNL     1       2.584  -4.049  -3.819  0.00  0.00    -0.081 C 
BRANCH  20  21
ATOM     21  N   UNL     1       2.546  -2.575  -3.788  0.00  0.00    +0.382 N 
ATOM     22  H   UNL     1       2.601  -2.255  -2.814  0.00  0.00    -0.085 HD
ATOM     23  H   UNL     1       1.666  -2.250  -4.206  0.00  0.00    -0.085 HD
BRANCH  21  24
ATOM     24  C   UNL     1       3.680  -2.017  -4.548  0.00  0.00    -0.047 C 
BRANCH  24  25
ATOM     25  C   UNL     1       3.615  -0.512  -4.500  0.00  0.00    -0.061 A 
ATOM     26  C   UNL     1       4.254   0.173  -3.482  0.00  0.00    +0.005 A 
ATOM     27  C   UNL     1       4.196   1.554  -3.433  0.00  0.00    +0.050 A 
ATOM     28  C   UNL     1       3.499   2.254  -4.404  0.00  0.00    +0.166 A 
ATOM     29  C   UNL     1       2.856   1.563  -5.429  0.00  0.00    +0.166 A 
ATOM     30  C   UNL     1       2.917   0.180  -5.471  0.00  0.00    +0.051 A 
ATOM     31  O   UNL     1       2.246   2.468  -6.249  0.00  0.00    -0.453 OA
ATOM     32  C   UNL     1       2.178   3.690  -5.490  0.00  0.00    +0.466 C 
ATOM     33  O   UNL     1       3.292   3.591  -4.582  0.00  0.00    -0.453 OA
ENDBRANCH  24  25
ENDBRANCH  21  24
ENDBRANCH  20  21
ENDBRANCH  19  20
ENDBRANCH   4  19
TORSDOF 7
