REMARK  Name = ZINC36633748
REMARK  6 active torsions:
REMARK  status: ('A' for Active; 'I' for Inactive)
REMARK    1  A    between atoms: C_4  and  C_7
REMARK    2  A    between atoms: C_10  and  C_13
REMARK    3  A    between atoms: C_18  and  O_19
REMARK    4  A    between atoms: N_26  and  N_27
REMARK    5  A    between atoms: N_27  and  C_28
REMARK    6  A    between atoms: C_33  and  N_34
REMARK                            x       y       z     vdW  Elec       q    Type
REMARK                         _______ _______ _______ _____ _____    ______ ____
ROOT
ATOM      1  C   UNL     1       3.773  -0.591  -1.212  0.00  0.00    +0.069 C 
ATOM      2  N   UNL     1       4.927  -0.022  -1.127  0.00  0.00    -0.182 NA
ATOM      3  N   UNL     1       6.003  -0.881  -1.345  0.00  0.00    -0.199 N 
ATOM      4  C   UNL     1       5.485  -2.231  -1.619  0.00  0.00    +0.139 C 
ATOM      5  C   UNL     1       3.956  -2.059  -1.527  0.00  0.00    +0.087 C 
ATOM      6  C   UNL     1       7.329  -0.525  -1.311  0.00  0.00    +0.169 C 
ATOM      7  N   UNL     1       8.272  -1.393  -1.534  0.00  0.00    -0.151 NA
ATOM      8  C   UNL     1       9.569  -1.061  -1.504  0.00  0.00    +0.303 C 
ATOM      9  O   UNL     1      10.541  -1.774  -1.694  0.00  0.00    -0.260 OA
ATOM     10  S   UNL     1       9.527   0.683  -1.120  0.00  0.00    -0.005 S 
ATOM     11  C   UNL     1       7.749   0.859  -1.027  0.00  0.00    +0.163 C 
ATOM     12  N   UNL     1       7.023   1.921  -0.775  0.00  0.00    -0.172 NA
ENDROOT
BRANCH   1  16
ATOM     13  C   UNL     1       0.039   1.353  -0.678  0.00  0.00    +0.000 A 
ATOM     14  C   UNL     1       1.214   2.076  -0.565  0.00  0.00    +0.001 A 
ATOM     15  C   UNL     1       2.431   1.450  -0.738  0.00  0.00    +0.010 A 
ATOM     16  C   UNL     1       2.476   0.084  -1.026  0.00  0.00    -0.002 A 
ATOM     17  C   UNL     1       1.286  -0.639  -1.138  0.00  0.00    +0.010 A 
ATOM     18  C   UNL     1       0.076  -0.000  -0.964  0.00  0.00    +0.001 A 
ENDBRANCH   1  16
BRANCH   4  19
ATOM     19  C   UNL     1       5.970  -3.207  -0.578  0.00  0.00    +0.017 A 
ATOM     20  C   UNL     1       6.347  -2.753   0.672  0.00  0.00    +0.009 A 
ATOM     21  C   UNL     1       6.793  -3.647   1.627  0.00  0.00    +0.001 A 
ATOM     22  C   UNL     1       6.862  -4.997   1.336  0.00  0.00    +0.004 A 
ATOM     23  C   UNL     1       6.486  -5.456   0.088  0.00  0.00    +0.046 A 
ATOM     24  C   UNL     1       6.034  -4.561  -0.871  0.00  0.00    +0.122 A 
BRANCH  24  25
ATOM     25  O   UNL     1       5.658  -5.010  -2.098  0.00  0.00    -0.506 OA
ATOM     26  H   UNL     1       6.378  -5.038  -2.743  0.00  0.00    +0.292 HD
ENDBRANCH  24  25
ENDBRANCH   4  19
BRANCH  12  27
ATOM     27  N   UNL     1       7.645   3.152  -0.530  0.00  0.00    -0.234 N 
ATOM     28  H   UNL     1       8.612   3.219  -0.547  0.00  0.00    +0.174 HD
BRANCH  27  29
ATOM     29  C   UNL     1       6.872   4.282  -0.262  0.00  0.00    +0.078 A 
ATOM     30  C   UNL     1       5.486   4.216  -0.349  0.00  0.00    +0.027 A 
ATOM     31  C   UNL     1       4.725   5.336  -0.083  0.00  0.00    +0.002 A 
ATOM     32  C   UNL     1       5.340   6.524   0.271  0.00  0.00    +0.002 A 
ATOM     33  C   UNL     1       6.718   6.594   0.358  0.00  0.00    +0.034 A 
ATOM     34  C   UNL     1       7.486   5.476   0.098  0.00  0.00    +0.149 A 
BRANCH  34  35
ATOM     35  N   UNL     1       8.961   5.551   0.198  0.00  0.00    +0.058 N 
ATOM     36  O   UNL     1       9.585   4.611   0.633  0.00  0.00    -0.126 OA
ATOM     37  O   UNL     1       9.541   6.551  -0.155  0.00  0.00    -0.126 OA
ENDBRANCH  34  35
ENDBRANCH  27  29
ENDBRANCH  12  27
TORSDOF 6
