REMARK  Name = ZINC14866631
REMARK  7 active torsions:
REMARK  status: ('A' for Active; 'I' for Inactive)
REMARK    1  A    between atoms: C_1  and  C_2
REMARK    2  A    between atoms: C_2  and  C_4
REMARK    3  A    between atoms: C_2  and  O_24
REMARK    4  A    between atoms: N_6  and  C_7
REMARK    5  A    between atoms: C_10  and  S_13
REMARK    6  A    between atoms: S_13  and  N_16
REMARK    7  A    between atoms: O_24  and  C_25
REMARK                            x       y       z     vdW  Elec       q    Type
REMARK                         _______ _______ _______ _____ _____    ______ ____
ROOT
ATOM      1  C   UNL     1       2.312   1.237  -0.402  0.00  0.00    +0.034 A 
ATOM      2  C   UNL     1       1.086   1.784  -0.759  0.00  0.00    +0.025 A 
ATOM      3  C   UNL     1      -0.050   0.999  -0.741  0.00  0.00    +0.031 A 
ATOM      4  C   UNL     1       0.031  -0.331  -0.368  0.00  0.00    +0.113 A 
ATOM      5  C   UNL     1       1.250  -0.878  -0.012  0.00  0.00    +0.031 A 
ATOM      6  C   UNL     1       2.390  -0.099  -0.028  0.00  0.00    +0.025 A 
ENDROOT
BRANCH   1   9
ATOM      7  C   UNL     1       4.654   1.481  -0.737  0.00  0.00    +0.258 C 
ATOM      8  O   UNL     1       4.712   0.325  -1.100  0.00  0.00    -0.271 OA
ATOM      9  N   UNL     1       3.465   2.029  -0.419  0.00  0.00    -0.282 N 
ATOM     10  H   UNL     1       3.408   2.973  -0.203  0.00  0.00    +0.155 HD
BRANCH   7  12
ATOM     11  C   UNL     1       6.167   2.680   0.819  0.00  0.00    +0.062 C 
ATOM     12  C   UNL     1       5.913   2.304  -0.642  0.00  0.00    +0.256 C 
BRANCH  12  13
ATOM     13  O   UNL     1       7.017   1.545  -1.138  0.00  0.00    -0.478 OA
BRANCH  13  14
ATOM     14  C   UNL     1       8.085   2.244  -1.607  0.00  0.00    +0.140 A 
ATOM     15  C   UNL     1       8.120   3.625  -1.485  0.00  0.00    +0.048 A 
ATOM     16  C   UNL     1       9.208   4.332  -1.958  0.00  0.00    +0.023 A 
ATOM     17  C   UNL     1      10.259   3.666  -2.562  0.00  0.00    +0.043 A 
ATOM     18  C   UNL     1      10.225   2.288  -2.690  0.00  0.00    +0.043 A 
ATOM     19  C   UNL     1       9.140   1.576  -2.213  0.00  0.00    +0.084 A 
ATOM     20 CL   UNL     1       9.097  -0.152  -2.374  0.00  0.00    -0.080 Cl
ATOM     21 CL   UNL     1      11.622   4.558  -3.161  0.00  0.00    -0.083 Cl
ENDBRANCH  13  14
ENDBRANCH  12  13
ENDBRANCH   7  12
ENDBRANCH   1   9
BRANCH   4  22
ATOM     22  S   UNL     1      -1.421  -1.328  -0.346  0.00  0.00    +0.100 S 
ATOM     23  O   UNL     1      -1.169  -2.392   0.562  0.00  0.00    -0.146 OA
ATOM     24  O   UNL     1      -2.521  -0.442  -0.194  0.00  0.00    -0.146 OA
BRANCH  22  25
ATOM     25  N   UNL     1      -1.567  -2.012  -1.847  0.00  0.00    -0.118 NA
ATOM     26  C   UNL     1      -2.560  -2.800  -2.104  0.00  0.00    +0.117 C 
ATOM     27  C   UNL     1      -3.557  -3.101  -1.099  0.00  0.00    +0.073 C 
ATOM     28  C   UNL     1      -3.756  -4.611  -0.893  0.00  0.00    +0.008 C 
ATOM     29  C   UNL     1      -4.612  -5.087  -2.033  0.00  0.00    +0.002 C 
ATOM     30  C   UNL     1      -3.785  -5.664  -3.210  0.00  0.00    +0.019 C 
ATOM     31  C   UNL     1      -2.527  -4.812  -3.451  0.00  0.00    +0.102 C 
ATOM     32  N   UNL     1      -2.711  -3.388  -3.369  0.00  0.00    -0.331 N 
ATOM     33  H   UNL     1      -2.930  -2.857  -4.151  0.00  0.00    +0.147 HD
ENDBRANCH  22  25
ENDBRANCH   4  22
TORSDOF 6
