REMARK  Name = ZINC12430396
REMARK  14 active torsions:
REMARK  status: ('A' for Active; 'I' for Inactive)
REMARK    1  A    between atoms: C_1  and  N_63
REMARK    2  A    between atoms: C_2  and  N_63
REMARK    3  A    between atoms: C_3  and  C_4
REMARK    4  A    between atoms: C_3  and  N_63
REMARK    5  A    between atoms: C_4  and  N_5
REMARK    6  A    between atoms: N_5  and  C_6
REMARK    7  A    between atoms: C_6  and  C_7
REMARK    8  A    between atoms: C_13  and  C_14
REMARK    9  A    between atoms: C_13  and  N_65
REMARK   10  A    between atoms: C_19  and  O_20
REMARK   11  A    between atoms: O_20  and  C_21
REMARK   12  A    between atoms: C_22  and  C_24
REMARK   13  A    between atoms: C_24  and  C_25
REMARK   14  A    between atoms: C_25  and  C_26
REMARK                            x       y       z     vdW  Elec       q    Type
REMARK                         _______ _______ _______ _____ _____    ______ ____
ROOT
ATOM      1  C   UNL     1      -0.049   1.081  -2.491  0.00  0.00    +0.109 C 
ENDROOT
BRANCH   1   2
ATOM      2  C   UNL     1      -0.752   1.593  -1.232  0.00  0.00    -0.010 C 
ATOM      3  C   UNL     1      -2.194   1.077  -1.207  0.00  0.00    +0.001 C 
ATOM      4  C   UNL     1      -2.872   1.544   0.085  0.00  0.00    -0.018 C 
ATOM      5  C   UNL     1      -2.071   1.038   1.287  0.00  0.00    -0.078 C 
ATOM      6  C   UNL     1      -0.013   1.086   0.008  0.00  0.00    -0.073 C 
ATOM      7  N   UNL     1      -0.701   1.589   1.216  0.00  0.00    +0.383 N 
ATOM      8  H   UNL     1      -0.756   2.613   1.166  0.00  0.00    -0.081 HD
BRANCH   7   9
ATOM      9  C   UNL     1       0.059   1.209   2.425  0.00  0.00    -0.039 C 
BRANCH   9  10
ATOM     10  C   UNL     1      -0.538   1.914   3.615  0.00  0.00    -0.022 A 
ATOM     11  C   UNL     1       0.051   3.064   4.104  0.00  0.00    +0.005 A 
ATOM     12  C   UNL     1      -0.499   3.714   5.193  0.00  0.00    +0.000 A 
ATOM     13  C   UNL     1      -1.634   3.210   5.802  0.00  0.00    +0.004 A 
ATOM     14  C   UNL     1      -2.223   2.057   5.320  0.00  0.00    +0.046 A 
ATOM     15  C   UNL     1      -1.676   1.406   4.224  0.00  0.00    +0.121 A 
BRANCH  15  16
ATOM     16  O   UNL     1      -2.254   0.272   3.748  0.00  0.00    -0.495 OA
ATOM     17  C   UNL     1      -3.424  -0.194   4.425  0.00  0.00    +0.277 C 
ENDBRANCH  15  16
ENDBRANCH   9  10
ENDBRANCH   7   9
ENDBRANCH   1   2
BRANCH   1  18
ATOM     18  N   UNL     1      -0.685   1.662  -3.676  0.00  0.00    -0.303 N 
ATOM     19  C   UNL     1      -1.716   1.028  -4.267  0.00  0.00    +0.216 C 
ATOM     20  O   UNL     1      -2.118  -0.025  -3.818  0.00  0.00    -0.276 OA
BRANCH  18  21
ATOM     21  C   UNL     1      -0.200   2.934  -4.218  0.00  0.00    +0.089 C 
BRANCH  21  22
ATOM     22  C   UNL     1       0.894   2.662  -5.253  0.00  0.00    -0.060 C 
BRANCH  22  25
ATOM     23  C   UNL     1       2.586   3.736  -6.613  0.00  0.00    -0.097 C 
ATOM     24  C   UNL     1       0.331   4.616  -6.568  0.00  0.00    -0.097 C 
ATOM     25  N   UNL     1       1.388   3.954  -5.775  0.00  0.00    +0.377 N 
ATOM     26  H   UNL     1       1.640   4.559  -4.984  0.00  0.00    -0.083 HD
ENDBRANCH  22  25
ENDBRANCH  21  22
ENDBRANCH  18  21
BRANCH  19  27
ATOM     27  C   UNL     1      -2.370   1.626  -5.486  0.00  0.00    +0.105 C 
BRANCH  27  28
ATOM     28  C   UNL     1      -3.505   0.713  -5.956  0.00  0.00    +0.122 C 
BRANCH  28  29
ATOM     29  C   UNL     1      -4.169   1.320  -7.193  0.00  0.00    +0.391 C 
ATOM     30  F   UNL     1      -3.222   1.450  -8.214  0.00  0.00    -0.171 F 
ATOM     31  F   UNL     1      -5.207   0.486  -7.622  0.00  0.00    -0.171 F 
ATOM     32  F   UNL     1      -4.686   2.580  -6.874  0.00  0.00    -0.171 F 
ENDBRANCH  28  29
ENDBRANCH  27  28
ENDBRANCH  19  27
ENDBRANCH   1  18
TORSDOF 11
