REMARK  Name = ZINC33568248
REMARK  13 active torsions:
REMARK  status: ('A' for Active; 'I' for Inactive)
REMARK    1  A    between atoms: C_1  and  C_2
REMARK    2  A    between atoms: C_2  and  O_3
REMARK    3  A    between atoms: O_3  and  C_4
REMARK    4  A    between atoms: C_4  and  C_6
REMARK    5  A    between atoms: C_7  and  C_34
REMARK    6  A    between atoms: C_8  and  C_33
REMARK    7  A    between atoms: C_10  and  N_11
REMARK    8  A    between atoms: C_12  and  C_14
REMARK    9  A    between atoms: C_14  and  C_31
REMARK   10  A    between atoms: C_15  and  C_16
REMARK   11  A    between atoms: C_19  and  C_21
REMARK   12  A    between atoms: C_24  and  S_27
REMARK   13  A    between atoms: S_27  and  N_30
REMARK                            x       y       z     vdW  Elec       q    Type
REMARK                         _______ _______ _______ _____ _____    ______ ____
ROOT
ATOM      1  C   UNL     1      -6.050   1.284   7.321  0.00  0.00    +0.117 C 
ATOM      2  C   UNL     1      -5.501   2.550   7.474  0.00  0.00    +0.070 C 
ENDROOT
BRANCH   2   3
ATOM      3  C   UNL     1      -4.524   3.005   6.573  0.00  0.00    +0.130 A 
ATOM      4  C   UNL     1      -3.896   4.242   6.610  0.00  0.00    +0.050 A 
ATOM      5  C   UNL     1      -3.006   4.274   5.538  0.00  0.00    +0.050 A 
ATOM      6  C   UNL     1      -3.117   3.064   4.885  0.00  0.00    +0.136 A 
ATOM      7  O   UNL     1      -4.038   2.318   5.518  0.00  0.00    -0.455 OA
BRANCH   6   8
ATOM      8  C   UNL     1      -2.356   2.660   3.687  0.00  0.00    +0.017 A 
ATOM      9  C   UNL     1      -2.561   1.401   3.117  0.00  0.00    +0.013 A 
ATOM     10  C   UNL     1      -1.846   1.029   1.998  0.00  0.00    +0.029 A 
ATOM     11  C   UNL     1      -0.927   1.900   1.439  0.00  0.00    +0.105 A 
ATOM     12  C   UNL     1      -0.714   3.147   2.002  0.00  0.00    +0.029 A 
ATOM     13  C   UNL     1      -1.426   3.534   3.118  0.00  0.00    +0.013 A 
BRANCH  11  14
ATOM     14  S   UNL     1      -0.017   1.417   0.010  0.00  0.00    +0.056 S 
ATOM     15  O   UNL     1       0.002  -0.004   0.002  0.00  0.00    -0.153 OA
ATOM     16  O   UNL     1       1.172   2.195   0.003  0.00  0.00    -0.153 OA
BRANCH  14  17
ATOM     17  N   UNL     1      -0.897   1.885  -1.312  0.00  0.00    -0.204 NA
ATOM     18  H   UNL     1      -0.361   1.601  -2.229  0.00  0.00    +0.144 HD
ATOM     19  H   UNL     1      -1.036   2.977  -1.292  0.00  0.00    +0.144 HD
ENDBRANCH  14  17
ENDBRANCH  11  14
ENDBRANCH   6   8
ENDBRANCH   2   3
BRANCH   1  21
ATOM     20  N   UNL     1      -7.604  -0.420   8.113  0.00  0.00    -0.275 N 
ATOM     21  C   UNL     1      -7.071   0.809   8.261  0.00  0.00    +0.259 C 
ATOM     22  O   UNL     1      -7.436   1.524   9.176  0.00  0.00    -0.269 OA
ATOM     23  H   UNL     1      -7.274  -1.067   7.287  0.00  0.00    +0.156 HD
BRANCH  20  28
ATOM     24  C   UNL     1      -9.228  -2.093   9.013  0.00  0.00    +0.091 A 
ATOM     25  C   UNL     1     -10.195  -2.297  10.066  0.00  0.00    -0.025 A 
ATOM     26  C   UNL     1     -10.372  -1.292  10.940  0.00  0.00    -0.008 A 
ATOM     27  S   UNL     1      -9.235  -0.046  10.370  0.00  0.00    -0.078 S 
ATOM     28  C   UNL     1      -8.566  -0.869   9.001  0.00  0.00    +0.087 A 
ATOM     29  C   UNL     1     -11.305  -1.234  12.123  0.00  0.00    +0.052 C 
ATOM     30  C   UNL     1     -10.972  -3.583  10.179  0.00  0.00    +0.045 C 
BRANCH  24  31
ATOM     31  C   UNL     1      -8.957  -3.123   8.008  0.00  0.00    +0.342 C 
ATOM     32  O   UNL     1      -8.090  -3.953   8.205  0.00  0.00    -0.245 OA
BRANCH  31  33
ATOM     33  O   UNL     1      -9.669  -3.151   6.862  0.00  0.00    -0.461 OA
BRANCH  33  35
ATOM     34  C   UNL     1     -10.252  -4.071   4.684  0.00  0.00    +0.048 C 
ATOM     35  C   UNL     1      -9.347  -4.200   5.911  0.00  0.00    +0.229 C 
ENDBRANCH  33  35
ENDBRANCH  31  33
ENDBRANCH  24  31
ENDBRANCH  20  28
ENDBRANCH   1  21
BRANCH   1  36
ATOM     36  C   UNL     1      -5.620   0.443   6.245  0.00  0.00    +0.104 C 
ATOM     37  N   UNL     1      -5.279  -0.225   5.391  0.00  0.00    -0.191 NA
ENDBRANCH   1  36
TORSDOF 10
