REMARK  Name = ZINC34747537
REMARK  4 active torsions:
REMARK  status: ('A' for Active; 'I' for Inactive)
REMARK    1  A    between atoms: C_6  and  C_7
REMARK    2  A    between atoms: C_7  and  N_8
REMARK    3  A    between atoms: N_21  and  C_24
REMARK    4  A    between atoms: C_24  and  C_25
REMARK                            x       y       z     vdW  Elec       q    Type
REMARK                         _______ _______ _______ _____ _____    ______ ____
ROOT
ATOM      1  N   UNL     1      -1.634  -0.842  -1.438  0.00  0.00    -0.276 N 
ATOM      2  C   UNL     1      -2.360   0.152  -1.982  0.00  0.00    +0.264 A 
ATOM      3  O   UNL     1      -2.471   1.222  -1.409  0.00  0.00    -0.267 OA
ATOM      4  C   UNL     1      -3.000  -0.066  -3.244  0.00  0.00    +0.076 A 
ATOM      5  C   UNL     1      -3.831   0.864  -4.012  0.00  0.00    -0.023 A 
ATOM      6  C   UNL     1      -4.324   0.417  -5.185  0.00  0.00    -0.004 A 
ATOM      7  S   UNL     1      -3.721  -1.243  -5.335  0.00  0.00    -0.073 S 
ATOM      8  C   UNL     1      -2.806  -1.333  -3.817  0.00  0.00    +0.117 A 
ATOM      9  N   UNL     1      -2.075  -2.272  -3.226  0.00  0.00    -0.208 NA
ATOM     10  C   UNL     1      -1.493  -2.043  -2.067  0.00  0.00    +0.202 A 
ATOM     11  N   UNL     1      -0.739  -3.030  -1.482  0.00  0.00    -0.304 N 
ATOM     12  C   UNL     1      -0.938  -3.398  -0.072  0.00  0.00    +0.089 C 
ATOM     13  C   UNL     1      -1.096  -4.920   0.015  0.00  0.00    -0.059 C 
ATOM     14  N   UNL     1       0.056  -5.568  -0.624  0.00  0.00    +0.387 N 
ATOM     15  C   UNL     1       0.075  -5.254  -2.058  0.00  0.00    -0.059 C 
ATOM     16  C   UNL     1       0.287  -3.752  -2.249  0.00  0.00    +0.089 C 
ATOM     17  C   UNL     1      -5.194   1.166  -6.148  0.00  0.00    +0.043 C 
ATOM     18  C   UNL     1      -5.756   2.402  -5.432  0.00  0.00    +0.005 C 
ATOM     19  C   UNL     1      -4.609   3.117  -4.713  0.00  0.00    +0.005 C 
ATOM     20  C   UNL     1      -4.137   2.277  -3.525  0.00  0.00    +0.037 C 
ATOM     21  H   UNL     1       0.907  -5.235  -0.197  0.00  0.00    -0.081 HD
ENDROOT
BRANCH   1  22
ATOM     22  C   UNL     1      -0.976  -0.626  -0.146  0.00  0.00    +0.163 C 
BRANCH  22  28
ATOM     23  C   UNL     1       0.713   1.166  -0.592  0.00  0.00    +0.007 A 
ATOM     24  C   UNL     1       2.014   1.583  -0.801  0.00  0.00    +0.020 A 
ATOM     25  C   UNL     1       3.046   0.662  -0.793  0.00  0.00    +0.041 A 
ATOM     26  C   UNL     1       2.774  -0.677  -0.576  0.00  0.00    +0.020 A 
ATOM     27  C   UNL     1       1.473  -1.093  -0.367  0.00  0.00    +0.007 A 
ATOM     28  C   UNL     1       0.443  -0.172  -0.375  0.00  0.00    -0.027 A 
ATOM     29 CL   UNL     1       4.680   1.185  -1.056  0.00  0.00    -0.084 Cl
ENDBRANCH  22  28
ENDBRANCH   1  22
BRANCH  14  30
ATOM     30  C   UNL     1      -0.041  -7.023  -0.444  0.00  0.00    +0.019 C 
BRANCH  30  31
ATOM     31  C   UNL     1       1.200  -7.680  -0.991  0.00  0.00    +0.199 C 
ATOM     32  O   UNL     1       2.079  -7.003  -1.482  0.00  0.00    -0.278 OA
ATOM     33  N   UNL     1       1.333  -9.020  -0.934  0.00  0.00    -0.303 N 
ATOM     34  C   UNL     1       0.347  -9.956  -0.375  0.00  0.00    +0.108 C 
ATOM     35  C   UNL     1       0.940 -11.376  -0.503  0.00  0.00    +0.020 C 
ATOM     36  C   UNL     1       2.464 -11.108  -0.611  0.00  0.00    +0.020 C 
ATOM     37  C   UNL     1       2.489  -9.790  -1.429  0.00  0.00    +0.108 C 
ENDBRANCH  30  31
ENDBRANCH  14  30
TORSDOF 4
