REMARK  Name = ZINC44323075
REMARK  8 active torsions:
REMARK  status: ('A' for Active; 'I' for Inactive)
REMARK    1  A    between atoms: C_13  and  C_14
REMARK    2  A    between atoms: C_14  and  O_15
REMARK    3  A    between atoms: O_15  and  C_16
REMARK    4  A    between atoms: N_18  and  CA_19
REMARK    5  A    between atoms: CA_19  and  C_21
REMARK    6  A    between atoms: CA_19  and  C_34
REMARK    7  A    between atoms: C_21  and  C_22
REMARK    8  A    between atoms: C_25  and  C_27
REMARK                            x       y       z     vdW  Elec       q    Type
REMARK                         _______ _______ _______ _____ _____    ______ ____
ROOT
ATOM      1  C   UNL     1       6.424  -1.603   2.148  0.00  0.00    +0.401 C 
ATOM      2  O   UNL     1       6.225  -0.862   3.091  0.00  0.00    -0.226 OA
ATOM      3  N   UNL     1       7.517  -2.391   2.129  0.00  0.00    -0.267 N 
ATOM      4  H   UNL     1       7.676  -2.982   1.376  0.00  0.00    +0.153 HD
ENDROOT
BRANCH   1   5
ATOM      5  O   UNL     1       5.553  -1.635   1.122  0.00  0.00    -0.449 OA
BRANCH   5   6
ATOM      6  C   UNL     1       4.416  -0.773   1.209  0.00  0.00    +0.246 C 
BRANCH   6  19
ATOM      7  C   UNL     1      -0.017   1.375   0.010  0.00  0.00    +0.001 A 
ATOM      8  C   UNL     1       1.169   2.088   0.002  0.00  0.00    +0.000 A 
ATOM      9  C   UNL     1       2.380   1.420  -0.013  0.00  0.00    +0.005 A 
ATOM     10  C   UNL     1       2.408   0.042  -0.021  0.00  0.00    -0.029 A 
ATOM     11  C   UNL     1       1.221  -0.685  -0.013  0.00  0.00    -0.014 A 
ATOM     12  C   UNL     1       0.002  -0.004   0.002  0.00  0.00    +0.009 A 
ATOM     13  C   UNL     1       1.530  -2.136  -0.025  0.00  0.00    -0.014 A 
ATOM     14  C   UNL     1       0.694  -3.254  -0.023  0.00  0.00    +0.009 A 
ATOM     15  C   UNL     1       1.238  -4.521  -0.035  0.00  0.00    +0.001 A 
ATOM     16  C   UNL     1       2.611  -4.690  -0.050  0.00  0.00    +0.000 A 
ATOM     17  C   UNL     1       3.445  -3.587  -0.052  0.00  0.00    +0.005 A 
ATOM     18  C   UNL     1       2.910  -2.316  -0.040  0.00  0.00    -0.029 A 
ATOM     19  C   UNL     1       3.547  -0.948  -0.038  0.00  0.00    +0.088 C 
ENDBRANCH   6  19
ENDBRANCH   5   6
ENDBRANCH   1   5
BRANCH   3  20
ATOM     20  CA  UNL     1       8.466  -2.355   3.245  0.00  0.00    +0.194 C 
BRANCH  20  21
ATOM     21  C   UNL     1       9.449  -1.233   3.033  0.00  0.00    +0.376 C 
ATOM     22  O   UNL     1       9.365  -0.528   2.041  0.00  0.00    -0.244 OA
ATOM     23  OXT UNL     1      10.328  -1.030   3.853  0.00  0.00    -0.244 OA
ENDBRANCH  20  21
BRANCH  20  24
ATOM     24  C   UNL     1       9.218  -3.686   3.317  0.00  0.00    +0.076 C 
BRANCH  24  25
ATOM     25  C   UNL     1       8.251  -4.792   3.651  0.00  0.00    -0.007 A 
ATOM     26  C   UNL     1       7.531  -5.578   2.811  0.00  0.00    +0.012 A 
ATOM     27  C   UNL     1       6.697  -6.540   3.340  0.00  0.00    +0.016 A 
ATOM     28  C   UNL     1       6.624  -6.670   4.701  0.00  0.00    +0.020 A 
ATOM     29  S   UNL     1       7.763  -5.411   5.253  0.00  0.00    -0.093 S 
BRANCH  28  30
ATOM     30  C   UNL     1       5.816  -7.612   5.505  0.00  0.00    -0.011 A 
ATOM     31  C   UNL     1       4.986  -8.539   4.872  0.00  0.00    +0.012 A 
ATOM     32  C   UNL     1       4.235  -9.416   5.626  0.00  0.00    +0.039 A 
ATOM     33  C   UNL     1       4.303  -9.377   7.010  0.00  0.00    +0.123 A 
ATOM     34  C   UNL     1       5.125  -8.460   7.643  0.00  0.00    +0.039 A 
ATOM     35  C   UNL     1       5.885  -7.582   6.898  0.00  0.00    +0.012 A 
ATOM     36  F   UNL     1       3.564 -10.238   7.744  0.00  0.00    -0.205 F 
ENDBRANCH  28  30
ENDBRANCH  24  25
ENDBRANCH  20  24
ENDBRANCH   3  20
TORSDOF 8
