REMARK  Name = ZINC12089918
REMARK  9 active torsions:
REMARK  status: ('A' for Active; 'I' for Inactive)
REMARK    1  A    between atoms: C_1  and  C_2
REMARK    2  A    between atoms: C_2  and  O_3
REMARK    3  A    between atoms: O_3  and  C_4
REMARK    4  A    between atoms: C_7  and  C_10
REMARK    5  A    between atoms: C_10  and  N_56
REMARK    6  A    between atoms: C_16  and  C_18
REMARK    7  A    between atoms: C_18  and  C_19
REMARK    8  A    between atoms: N_21  and  C_22
REMARK    9  A    between atoms: C_22  and  C_23
REMARK                            x       y       z     vdW  Elec       q    Type
REMARK                         _______ _______ _______ _____ _____    ______ ____
ROOT
ATOM      1  C   UNL     1       9.249   3.954  -2.537  0.00  0.00    -0.058 C 
ATOM      2  C   UNL     1       9.686   4.042  -4.001  0.00  0.00    +0.085 C 
ATOM      3  N   UNL     1       8.560   4.450  -4.836  0.00  0.00    -0.318 N 
ATOM      4  C   UNL     1       7.288   4.362  -4.434  0.00  0.00    +0.200 C 
ATOM      5  O   UNL     1       6.411   4.694  -5.203  0.00  0.00    -0.278 OA
ATOM      6  C   UNL     1       6.898   3.867  -3.070  0.00  0.00    +0.028 C 
ATOM      7  H   UNL     1       8.743   4.802  -5.721  0.00  0.00    +0.149 HD
ATOM      8  N   UNL     1       8.027   3.128  -2.474  0.00  0.00    +0.391 N 
ATOM      9  H   UNL     1       8.179   2.263  -3.005  0.00  0.00    -0.080 HD
ENDROOT
BRANCH   8  10
ATOM     10  C   UNL     1       7.720   2.782  -1.067  0.00  0.00    -0.042 C 
BRANCH  10  14
ATOM     11  C   UNL     1      11.145   0.933   0.698  0.00  0.00    +0.121 A 
ATOM     12  C   UNL     1      10.979   2.309   0.777  0.00  0.00    +0.046 A 
ATOM     13  C   UNL     1       9.871   2.904   0.205  0.00  0.00    +0.005 A 
ATOM     14  C   UNL     1       8.927   2.130  -0.445  0.00  0.00    -0.064 A 
ATOM     15  C   UNL     1       9.087   0.759  -0.520  0.00  0.00    +0.005 A 
ATOM     16  C   UNL     1      10.196   0.159   0.045  0.00  0.00    +0.046 A 
BRANCH  11  17
ATOM     17  O   UNL     1      12.234   0.346   1.260  0.00  0.00    -0.492 OA
BRANCH  17  19
ATOM     18  C   UNL     1      13.619  -1.551   1.827  0.00  0.00    +0.048 C 
ATOM     19  C   UNL     1      12.338  -1.074   1.140  0.00  0.00    +0.225 C 
ENDBRANCH  17  19
ENDBRANCH  11  17
ENDBRANCH  10  14
ENDBRANCH   8  10
BRANCH   6  20
ATOM     20  C   UNL     1       5.698   2.927  -3.194  0.00  0.00    +0.089 C 
BRANCH  20  21
ATOM     21  C   UNL     1       6.068   1.751  -4.061  0.00  0.00    +0.212 C 
ATOM     22  O   UNL     1       7.208   1.623  -4.453  0.00  0.00    -0.276 OA
ATOM     23  N   UNL     1       5.132   0.843  -4.400  0.00  0.00    -0.311 N 
ATOM     24  H   UNL     1       4.220   0.946  -4.086  0.00  0.00    +0.149 HD
BRANCH  23  25
ATOM     25  C   UNL     1       5.491  -0.300  -5.242  0.00  0.00    +0.139 C 
BRANCH  25  26
ATOM     26  C   UNL     1       4.274  -1.158  -5.472  0.00  0.00    -0.028 A 
ATOM     27  C   UNL     1       3.454  -0.897  -6.571  0.00  0.00    +0.007 A 
ATOM     28  C   UNL     1       2.349  -1.638  -6.822  0.00  0.00    +0.031 A 
ATOM     29  C   UNL     1       2.001  -2.709  -5.958  0.00  0.00    +0.100 A 
ATOM     30  C   UNL     1       2.859  -2.982  -4.809  0.00  0.00    +0.100 A 
ATOM     31  C   UNL     1       4.001  -2.164  -4.608  0.00  0.00    +0.035 A 
ATOM     32  N   UNL     1       2.419  -4.013  -4.090  0.00  0.00    -0.191 NA
ATOM     33  S   UNL     1       1.114  -4.515  -4.798  0.00  0.00    +0.116 S 
ATOM     34  N   UNL     1       0.971  -3.550  -6.024  0.00  0.00    -0.191 NA
ENDBRANCH  25  26
ENDBRANCH  23  25
ENDBRANCH  20  21
ENDBRANCH   6  20
TORSDOF 8
