REMARK  Name = ZINC12285386
REMARK  11 active torsions:
REMARK  status: ('A' for Active; 'I' for Inactive)
REMARK    1  A    between atoms: C_1  and  C_2
REMARK    2  A    between atoms: C_2  and  C_3
REMARK    3  A    between atoms: C_3  and  C_4
REMARK    4  A    between atoms: C_4  and  C_5
REMARK    5  A    between atoms: C_11  and  C_12
REMARK    6  A    between atoms: N_14  and  C_21
REMARK    7  A    between atoms: C_21  and  C_22
REMARK    8  A    between atoms: C_22  and  O_23
REMARK    9  A    between atoms: O_23  and  C_24
REMARK   10  A    between atoms: C_29  and  O_30
REMARK   11  A    between atoms: O_30  and  C_31
REMARK                            x       y       z     vdW  Elec       q    Type
REMARK                         _______ _______ _______ _____ _____    ______ ____
ROOT
ATOM      1  C   UNL     1      -9.726  -2.993   1.549  0.00  0.00    +0.001 A 
ATOM      2  C   UNL     1      -9.834  -4.370   1.511  0.00  0.00    +0.095 A 
ATOM      3  N   UNL     1     -11.028  -4.743   2.012  0.00  0.00    -0.343 N 
ATOM      4  C   UNL     1     -11.760  -3.640   2.403  0.00  0.00    +0.050 A 
ATOM      5  C   UNL     1     -10.986  -2.499   2.139  0.00  0.00    +0.007 A 
ATOM      6  C   UNL     1     -11.481  -1.234   2.442  0.00  0.00    +0.010 A 
ATOM      7  C   UNL     1     -12.733  -1.107   3.004  0.00  0.00    +0.001 A 
ATOM      8  C   UNL     1     -13.498  -2.233   3.268  0.00  0.00    +0.002 A 
ATOM      9  C   UNL     1     -13.023  -3.491   2.967  0.00  0.00    +0.026 A 
ENDROOT
BRANCH   1  16
ATOM     10  C   UNL     1      -3.516  -3.401  -1.618  0.00  0.00    +0.100 C 
ATOM     11  N   UNL     1      -4.309  -2.581  -0.989  0.00  0.00    -0.169 NA
ATOM     12  N   UNL     1      -5.669  -2.798  -0.938  0.00  0.00    -0.152 N 
ATOM     13  C   UNL     1      -6.622  -1.931  -0.363  0.00  0.00    +0.152 C 
ATOM     14  N   UNL     1      -6.415  -0.652  -0.185  0.00  0.00    -0.283 NA
ATOM     15  C   UNL     1      -7.888  -2.615   0.019  0.00  0.00    +0.081 C 
ATOM     16  C   UNL     1      -8.629  -2.215   1.115  0.00  0.00    +0.026 C 
ATOM     17  C   UNL     1      -8.311  -3.747  -0.837  0.00  0.00    +0.273 C 
ATOM     18  O   UNL     1      -9.485  -4.072  -0.914  0.00  0.00    -0.268 OA
ATOM     19  N   UNL     1      -7.362  -4.409  -1.530  0.00  0.00    -0.152 NA
ATOM     20  C   UNL     1      -6.134  -3.954  -1.527  0.00  0.00    +0.181 C 
ATOM     21  S   UNL     1      -4.656  -4.630  -2.236  0.00  0.00    -0.038 S 
ATOM     22  H   UNL     1      -5.571  -0.256  -0.453  0.00  0.00    +0.188 HD
BRANCH  10  23
ATOM     23  C   UNL     1      -2.020  -3.328  -1.786  0.00  0.00    +0.064 C 
BRANCH  23  24
ATOM     24  C   UNL     1      -1.486  -2.084  -1.072  0.00  0.00    +0.006 C 
BRANCH  24  26
ATOM     25  C   UNL     1       0.566  -0.767  -0.529  0.00  0.00    +0.004 C 
ATOM     26  C   UNL     1       0.032  -2.010  -1.244  0.00  0.00    -0.003 C 
ENDBRANCH  24  26
ENDBRANCH  23  24
ENDBRANCH  10  23
ENDBRANCH   1  16
BRANCH   3  27
ATOM     27  C   UNL     1     -11.486  -6.130   2.127  0.00  0.00    +0.163 C 
BRANCH  27  28
ATOM     28  C   UNL     1     -12.330  -6.491   0.904  0.00  0.00    +0.250 C 
BRANCH  28  29
ATOM     29  O   UNL     1     -12.777  -7.844   1.016  0.00  0.00    -0.487 OA
BRANCH  29  30
ATOM     30  C   UNL     1     -13.546  -8.326   0.003  0.00  0.00    +0.162 A 
ATOM     31  C   UNL     1     -13.858  -7.517  -1.077  0.00  0.00    +0.049 A 
ATOM     32  C   UNL     1     -14.639  -8.009  -2.106  0.00  0.00    +0.004 A 
ATOM     33  C   UNL     1     -15.111  -9.308  -2.060  0.00  0.00    +0.004 A 
ATOM     34  C   UNL     1     -14.803 -10.120  -0.985  0.00  0.00    +0.049 A 
ATOM     35  C   UNL     1     -14.016  -9.636   0.047  0.00  0.00    +0.161 A 
BRANCH  35  36
ATOM     36  O   UNL     1     -13.707 -10.435   1.103  0.00  0.00    -0.491 OA
ATOM     37  C   UNL     1     -14.224 -11.767   1.080  0.00  0.00    +0.277 C 
ENDBRANCH  35  36
ENDBRANCH  29  30
ENDBRANCH  28  29
ENDBRANCH  27  28
ENDBRANCH   3  27
TORSDOF 9
