REMARK  Name = ZINC00413714
REMARK  6 active torsions:
REMARK  status: ('A' for Active; 'I' for Inactive)
REMARK    1  A    between atoms: C_1  and  C_2
REMARK    2  A    between atoms: C_7  and  C_18
REMARK    3  A    between atoms: C_8  and  N_11
REMARK    4  A    between atoms: N_11  and  C_12
REMARK    5  A    between atoms: C_12  and  C_13
REMARK    6  A    between atoms: C_23  and  O_24
REMARK                            x       y       z     vdW  Elec       q    Type
REMARK                         _______ _______ _______ _____ _____    ______ ____
ROOT
ATOM      1  C   UNL     1       0.949  -4.132   0.148  0.00  0.00    +0.045 C 
ATOM      2  C   UNL     1       0.625  -2.680  -0.092  0.00  0.00    -0.034 A 
ATOM      3  C   UNL     1      -0.699  -2.295  -0.370  0.00  0.00    +0.008 A 
ATOM      4  C   UNL     1      -0.991  -0.986  -0.587  0.00  0.00    +0.047 A 
ATOM      5  C   UNL     1       0.043  -0.027  -0.529  0.00  0.00    +0.140 A 
ATOM      6  N   UNL     1       0.043   1.286  -0.695  0.00  0.00    -0.226 NA
ATOM      7  C   UNL     1       1.294   1.753  -0.538  0.00  0.00    +0.115 A 
ATOM      8  C   UNL     1       2.118   0.683  -0.259  0.00  0.00    +0.132 A 
ATOM      9  N   UNL     1       1.329  -0.433  -0.255  0.00  0.00    -0.287 N 
ATOM     10  C   UNL     1       1.606  -1.757  -0.039  0.00  0.00    +0.097 A 
ENDROOT
BRANCH   7  11
ATOM     11  C   UNL     1       1.714   3.171  -0.645  0.00  0.00    +0.045 A 
ATOM     12  C   UNL     1       3.050   3.521  -0.459  0.00  0.00    +0.014 A 
ATOM     13  C   UNL     1       3.435   4.843  -0.560  0.00  0.00    +0.001 A 
ATOM     14  C   UNL     1       2.500   5.821  -0.847  0.00  0.00    +0.004 A 
ATOM     15  C   UNL     1       1.172   5.484  -1.034  0.00  0.00    +0.046 A 
ATOM     16  C   UNL     1       0.772   4.162  -0.940  0.00  0.00    +0.126 A 
BRANCH  16  17
ATOM     17  O   UNL     1      -0.532   3.829  -1.128  0.00  0.00    -0.506 OA
ATOM     18  H   UNL     1      -1.063   3.844  -0.320  0.00  0.00    +0.292 HD
ENDBRANCH  16  17
ENDBRANCH   7  11
BRANCH   8  19
ATOM     19  N   UNL     1       3.494   0.731  -0.027  0.00  0.00    -0.321 N 
ATOM     20  H   UNL     1       3.703   1.276   0.796  0.00  0.00    +0.148 HD
BRANCH  19  21
ATOM     21  C   UNL     1       4.057  -0.622   0.080  0.00  0.00    +0.177 C 
BRANCH  21  22
ATOM     22  C   UNL     1       5.558  -0.534   0.186  0.00  0.00    +0.122 A 
ATOM     23  C   UNL     1       6.261  -0.436   1.328  0.00  0.00    +0.046 A 
ATOM     24  C   UNL     1       7.626  -0.381   0.965  0.00  0.00    +0.041 A 
ATOM     25  C   UNL     1       7.676  -0.448  -0.378  0.00  0.00    +0.195 A 
ATOM     26  O   UNL     1       6.420  -0.547  -0.844  0.00  0.00    -0.466 OA
ENDBRANCH  21  22
ENDBRANCH  19  21
ENDBRANCH   8  19
TORSDOF 5
