REMARK  Name = ZINC62758174
REMARK  7 active torsions:
REMARK  status: ('A' for Active; 'I' for Inactive)
REMARK    1  A    between atoms: C_1  and  C_2
REMARK    2  A    between atoms: C_2  and  C_3
REMARK    3  A    between atoms: C_7  and  C_20
REMARK    4  A    between atoms: C_9  and  N_12
REMARK    5  A    between atoms: C_13  and  C_19
REMARK    6  A    between atoms: C_14  and  C_18
REMARK    7  A    between atoms: C_15  and  C_17
REMARK                            x       y       z     vdW  Elec       q    Type
REMARK                         _______ _______ _______ _____ _____    ______ ____
ROOT
ATOM      1  C   UNL     1       0.718  -0.497  -1.257  0.00  0.00    -0.009 C 
ATOM      2  C   UNL     1      -0.089  -0.097  -2.493  0.00  0.00    +0.004 C 
ATOM      3  C   UNL     1       0.627  -0.590  -3.752  0.00  0.00    +0.017 C 
ATOM      4  C   UNL     1       0.758  -2.114  -3.700  0.00  0.00    +0.127 C 
ATOM      5  C   UNL     1       1.565  -2.514  -2.464  0.00  0.00    +0.122 C 
ATOM      6  C   UNL     1       0.849  -2.021  -1.205  0.00  0.00    +0.031 C 
ENDROOT
BRANCH   5   7
ATOM      7  N   UNL     1       1.691  -3.973  -2.414  0.00  0.00    -0.264 N 
ATOM      8  C   UNL     1       2.845  -4.671  -2.425  0.00  0.00    +0.040 A 
ATOM      9  C   UNL     1       2.533  -5.987  -2.367  0.00  0.00    -0.007 A 
ATOM     10  C   UNL     1       1.139  -6.096  -2.319  0.00  0.00    +0.063 A 
ATOM     11  N   UNL     1       0.634  -4.889  -2.341  0.00  0.00    -0.176 NA
ATOM     12  C   UNL     1       0.355  -7.381  -2.247  0.00  0.00    +0.068 C 
ATOM     13  C   UNL     1       3.513  -7.132  -2.356  0.00  0.00    +0.047 C 
ATOM     14  C   UNL     1       4.235  -4.091  -2.491  0.00  0.00    +0.065 C 
ENDBRANCH   5   7
BRANCH   4  15
ATOM     15  C   UNL     1       1.463  -2.600  -4.940  0.00  0.00    +0.361 C 
ATOM     16  O   UNL     1       1.827  -1.802  -5.787  0.00  0.00    -0.246 OA
ATOM     17  O   UNL     1       1.670  -3.791  -5.096  0.00  0.00    -0.246 OA
ENDBRANCH   4  15
BRANCH   1  19
ATOM     18  C   UNL     1      -0.019   1.526   0.010  0.00  0.00    +0.004 C 
ATOM     19  C   UNL     1       0.002  -0.004   0.002  0.00  0.00    +0.000 C 
ENDBRANCH   1  19
TORSDOF 3
