REMARK  Name = ZINC08769397
REMARK  9 active torsions:
REMARK  status: ('A' for Active; 'I' for Inactive)
REMARK    1  A    between atoms: C_1  and  C_2
REMARK    2  A    between atoms: C_3  and  C_14
REMARK    3  A    between atoms: C_6  and  O_12
REMARK    4  A    between atoms: O_12  and  C_13
REMARK    5  A    between atoms: C_14  and  C_15
REMARK    6  A    between atoms: C_15  and  N_16
REMARK    7  A    between atoms: C_17  and  C_18
REMARK    8  A    between atoms: C_17  and  C_34
REMARK    9  A    between atoms: N_24  and  C_27
REMARK                            x       y       z     vdW  Elec       q    Type
REMARK                         _______ _______ _______ _____ _____    ______ ____
ROOT
ATOM      1  N   UNL     1      -5.833   4.715   6.199  0.00  0.00    -0.286 NA
ATOM      2  C   UNL     1      -5.734   6.066   6.032  0.00  0.00    +0.064 C 
ENDROOT
BRANCH   2   3
ATOM      3  C   UNL     1      -4.870   6.809   6.842  0.00  0.00    +0.210 C 
ATOM      4  C   UNL     1      -4.181   6.199   7.989  0.00  0.00    +0.238 C 
ATOM      5  O   UNL     1      -4.346   5.025   8.265  0.00  0.00    -0.274 OA
ATOM      6  N   UNL     1      -3.358   6.974   8.724  0.00  0.00    -0.238 N 
ATOM      7  C   UNL     1      -3.172   8.270   8.435  0.00  0.00    +0.319 C 
ATOM      8  O   UNL     1      -2.421   8.916   9.139  0.00  0.00    -0.251 OA
ATOM      9  N   UNL     1      -3.771   8.889   7.408  0.00  0.00    -0.193 N 
ATOM     10  C   UNL     1      -4.617   8.234   6.586  0.00  0.00    +0.245 C 
ATOM     11  O   UNL     1      -5.155   8.807   5.657  0.00  0.00    -0.274 OA
ATOM     12  H   UNL     1      -2.893   6.586   9.482  0.00  0.00    +0.159 HD
BRANCH   9  13
ATOM     13  C   UNL     1      -3.514  10.249   7.184  0.00  0.00    +0.045 A 
ATOM     14  C   UNL     1      -2.784  10.644   6.071  0.00  0.00    +0.025 A 
ATOM     15  C   UNL     1      -2.537  11.985   5.849  0.00  0.00    +0.017 A 
ATOM     16  C   UNL     1      -3.006  12.933   6.741  0.00  0.00    +0.018 A 
ATOM     17  C   UNL     1      -3.729  12.541   7.854  0.00  0.00    +0.017 A 
ATOM     18  C   UNL     1      -3.984  11.202   8.077  0.00  0.00    +0.025 A 
ATOM     19 BR   UNL     1      -2.660  14.767   6.438  0.00  0.00    -0.050 Br
ENDBRANCH   9  13
ENDBRANCH   2   3
BRANCH   2  20
ATOM     20  C   UNL     1      -6.539   6.741   4.999  0.00  0.00    -0.003 A 
ATOM     21  C   UNL     1      -7.362   7.819   5.343  0.00  0.00    +0.011 A 
ATOM     22  C   UNL     1      -8.108   8.448   4.370  0.00  0.00    +0.020 A 
ATOM     23  C   UNL     1      -8.052   8.011   3.057  0.00  0.00    +0.041 A 
ATOM     24  C   UNL     1      -7.243   6.941   2.710  0.00  0.00    +0.020 A 
ATOM     25  C   UNL     1      -6.487   6.304   3.672  0.00  0.00    +0.011 A 
ATOM     26 CL   UNL     1      -9.001   8.806   1.840  0.00  0.00    -0.084 Cl
ENDBRANCH   2  20
BRANCH   1  27
ATOM     27  C   UNL     1      -6.739   3.936   5.350  0.00  0.00    +0.146 C 
BRANCH  27  28
ATOM     28  C   UNL     1      -6.574   2.447   5.660  0.00  0.00    +0.060 C 
BRANCH  28  31
ATOM     29  C   UNL     1      -9.489   1.642   6.355  0.00  0.00    +0.063 C 
ATOM     30  C   UNL     1      -8.767   1.293   5.080  0.00  0.00    +0.017 A 
ATOM     31  C   UNL     1      -7.505   1.646   4.787  0.00  0.00    -0.018 A 
ATOM     32  C   UNL     1      -7.205   1.105   3.459  0.00  0.00    +0.007 A 
ATOM     33  C   UNL     1      -6.081   1.138   2.631  0.00  0.00    +0.056 A 
ATOM     34  C   UNL     1      -6.122   0.511   1.401  0.00  0.00    +0.121 A 
ATOM     35  C   UNL     1      -7.278  -0.145   0.986  0.00  0.00    +0.047 A 
ATOM     36  C   UNL     1      -8.390  -0.188   1.797  0.00  0.00    +0.030 A 
ATOM     37  C   UNL     1      -8.369   0.437   3.039  0.00  0.00    +0.047 A 
ATOM     38  N   UNL     1      -9.300   0.570   4.048  0.00  0.00    -0.358 N 
ATOM     39  H   UNL     1     -10.199   0.206   4.029  0.00  0.00    +0.166 HD
BRANCH  34  40
ATOM     40  O   UNL     1      -5.031   0.540   0.590  0.00  0.00    -0.495 OA
ATOM     41  C   UNL     1      -5.141  -0.128  -0.668  0.00  0.00    +0.277 C 
ENDBRANCH  34  40
ENDBRANCH  28  31
ENDBRANCH  27  28
ENDBRANCH   1  27
TORSDOF 7
