REMARK  Name = ZINC39670367
REMARK  5 active torsions:
REMARK  status: ('A' for Active; 'I' for Inactive)
REMARK    1  A    between atoms: C_1  and  C_2
REMARK    2  A    between atoms: C_2  and  C_17
REMARK    3  A    between atoms: N_3  and  N_4
REMARK    4  A    between atoms: N_4  and  C_5
REMARK    5  A    between atoms: CA_7  and  C_13
REMARK                            x       y       z     vdW  Elec       q    Type
REMARK                         _______ _______ _______ _____ _____    ______ ____
ROOT
ATOM      1  C   UNL     1      -0.018   1.503   0.010  0.00  0.00    +0.068 C 
ATOM      2  C   UNL     1       0.002  -0.004   0.002  0.00  0.00    +0.063 C 
ATOM      3  N   UNL     1       0.022  -0.673   1.147  0.00  0.00    -0.187 NA
ENDROOT
BRANCH   2   4
ATOM      4  C   UNL     1       0.000  -0.698  -1.214  0.00  0.00    -0.001 A 
ATOM      5  C   UNL     1      -0.016   0.055  -2.476  0.00  0.00    +0.011 A 
ATOM      6  C   UNL     1      -0.018  -0.589  -3.659  0.00  0.00    +0.026 A 
ATOM      7  C   UNL     1      -0.004  -2.055  -3.682  0.00  0.00    +0.056 A 
ATOM      8  N   UNL     1      -0.003  -2.960  -4.633  0.00  0.00    -0.268 N 
ATOM      9  C   UNL     1       0.013  -4.199  -4.061  0.00  0.00    +0.308 C 
ATOM     10  O   UNL     1       0.019  -5.249  -4.681  0.00  0.00    -0.252 OA
ATOM     11  N   UNL     1       0.022  -4.103  -2.729  0.00  0.00    -0.268 N 
ATOM     12  C   UNL     1       0.013  -2.801  -2.399  0.00  0.00    +0.057 A 
ATOM     13  C   UNL     1       0.019  -2.107  -1.210  0.00  0.00    +0.035 A 
ATOM     14  H   UNL     1      -0.012  -2.779  -5.585  0.00  0.00    +0.156 HD
ATOM     15  H   UNL     1       0.034  -4.847  -2.107  0.00  0.00    +0.156 HD
ENDBRANCH   2   4
BRANCH   3  16
ATOM     16  N   UNL     1       0.024  -0.035   2.268  0.00  0.00    -0.235 N 
ATOM     17  H   UNL     1       0.011   0.935   2.273  0.00  0.00    +0.174 HD
BRANCH  16  18
ATOM     18  C   UNL     1       0.045  -0.733   3.463  0.00  0.00    +0.090 A 
ATOM     19  C   UNL     1      -0.269  -0.099   4.671  0.00  0.00    +0.097 A 
ATOM     20  CA  UNL     1      -0.236  -0.842   5.850  0.00  0.00    +0.173 A 
ATOM     21  N   UNL     1       0.089  -2.131   5.830  0.00  0.00    -0.225 NA
ATOM     22  C   UNL     1       0.389  -2.756   4.713  0.00  0.00    +0.150 A 
ATOM     23  C   UNL     1       0.374  -2.091   3.494  0.00  0.00    +0.102 A 
ATOM     24 CL   UNL     1       0.766  -2.934   2.028  0.00  0.00    -0.078 Cl
ATOM     25 CL   UNL     1       0.804  -4.441   4.761  0.00  0.00    -0.060 Cl
ATOM     26 CL   UNL     1      -0.693   1.584   4.701  0.00  0.00    -0.079 Cl
BRANCH  20  27
ATOM     27  C   UNL     1      -0.564  -0.189   7.134  0.00  0.00    +0.406 C 
ATOM     28  O   UNL     1      -0.862   0.996   7.160  0.00  0.00    -0.239 OA
ATOM     29  OXT UNL     1      -0.536  -0.835   8.172  0.00  0.00    -0.239 OA
ENDBRANCH  20  27
ENDBRANCH  16  18
ENDBRANCH   3  16
TORSDOF 4
