REMARK  Name = ZINC39350811
REMARK  9 active torsions:
REMARK  status: ('A' for Active; 'I' for Inactive)
REMARK    1  A    between atoms: C_4  and  O_7
REMARK    2  A    between atoms: O_7  and  C_8
REMARK    3  A    between atoms: C_13  and  C_18
REMARK    4  A    between atoms: N_20  and  N_21
REMARK    5  A    between atoms: C_22  and  C_24
REMARK    6  A    between atoms: C_24  and  C_25
REMARK    7  A    between atoms: C_25  and  C_26
REMARK    8  A    between atoms: N_28  and  C_29
REMARK    9  A    between atoms: C_29  and  C_30
REMARK                            x       y       z     vdW  Elec       q    Type
REMARK                         _______ _______ _______ _____ _____    ______ ____
ROOT
ATOM      1  C   UNL     1       5.910  -7.055  -1.069  0.00  0.00    +0.255 C 
ATOM      2  O   UNL     1       5.211  -7.135  -2.057  0.00  0.00    -0.272 OA
ATOM      3  N   UNL     1       7.117  -7.654  -1.048  0.00  0.00    -0.232 N 
ATOM      4  H   UNL     1       7.676  -7.590  -0.257  0.00  0.00    +0.173 HD
ENDROOT
BRANCH   1  10
ATOM      5  C   UNL     1       3.657  -1.988  -0.011  0.00  0.00    +0.129 A 
ATOM      6  C   UNL     1       2.465  -2.732  -0.048  0.00  0.00    +0.048 A 
ATOM      7  C   UNL     1       2.449  -4.082  -0.026  0.00  0.00    +0.029 A 
ATOM      8  C   UNL     1       3.712  -4.824   0.039  0.00  0.00    +0.043 A 
ATOM      9  N   UNL     1       3.974  -6.107   0.071  0.00  0.00    -0.370 N 
ATOM     10  C   UNL     1       5.429  -6.286   0.134  0.00  0.00    +0.191 C 
ATOM     11  C   UNL     1       6.019  -4.893   0.135  0.00  0.00    +0.016 C 
ATOM     12  C   UNL     1       4.969  -4.042   0.077  0.00  0.00    -0.000 A 
ATOM     13  C   UNL     1       4.876  -2.578   0.043  0.00  0.00    +0.056 A 
ATOM     14  H   UNL     1       3.316  -6.819   0.057  0.00  0.00    +0.161 HD
BRANCH   5  15
ATOM     15  O   UNL     1       3.586  -0.631  -0.037  0.00  0.00    -0.456 OA
BRANCH  15  19
ATOM     16  C   UNL     1       3.287   1.361   3.563  0.00  0.00    +0.000 A 
ATOM     17  C   UNL     1       3.366  -0.020   3.543  0.00  0.00    +0.004 A 
ATOM     18  C   UNL     1       3.466  -0.689   2.338  0.00  0.00    +0.046 A 
ATOM     19  C   UNL     1       3.487   0.025   1.149  0.00  0.00    +0.128 A 
ATOM     20  C   UNL     1       3.407   1.410   1.172  0.00  0.00    +0.046 A 
ATOM     21  C   UNL     1       3.307   2.074   2.379  0.00  0.00    +0.004 A 
ENDBRANCH  15  19
ENDBRANCH   5  15
ENDBRANCH   1  10
BRANCH   3  22
ATOM     22  N   UNL     1       7.564  -8.368  -2.166  0.00  0.00    -0.234 N 
ATOM     23  C   UNL     1       8.772  -8.967  -2.145  0.00  0.00    +0.230 C 
ATOM     24  O   UNL     1       9.471  -8.888  -1.157  0.00  0.00    -0.274 OA
ATOM     25  H   UNL     1       7.005  -8.432  -2.956  0.00  0.00    +0.173 HD
BRANCH  23  26
ATOM     26  C   UNL     1       9.253  -9.736  -3.348  0.00  0.00    +0.106 C 
BRANCH  26  27
ATOM     27  C   UNL     1      10.642 -10.312  -3.063  0.00  0.00    +0.105 C 
BRANCH  27  28
ATOM     28  C   UNL     1      11.123 -11.081  -4.267  0.00  0.00    +0.214 C 
ATOM     29  O   UNL     1      10.424 -11.161  -5.255  0.00  0.00    -0.276 OA
ATOM     30  N   UNL     1      12.330 -11.680  -4.245  0.00  0.00    -0.311 N 
ATOM     31  H   UNL     1      12.889 -11.616  -3.455  0.00  0.00    +0.149 HD
BRANCH  30  32
ATOM     32  C   UNL     1      12.798 -12.428  -5.415  0.00  0.00    +0.146 C 
BRANCH  32  33
ATOM     33  C   UNL     1      14.166 -12.994  -5.135  0.00  0.00    +0.007 A 
ATOM     34  C   UNL     1      14.499 -14.194  -4.598  0.00  0.00    +0.013 A 
ATOM     35  C   UNL     1      15.836 -14.505  -4.432  0.00  0.00    +0.008 A 
ATOM     36  C   UNL     1      16.773 -13.603  -4.811  0.00  0.00    +0.045 A 
ATOM     37  S   UNL     1      15.768 -12.264  -5.431  0.00  0.00    -0.100 S 
ENDBRANCH  32  33
ENDBRANCH  30  32
ENDBRANCH  27  28
ENDBRANCH  26  27
ENDBRANCH  23  26
ENDBRANCH   3  22
TORSDOF 9
