REMARK  Name = ZINC10139956
REMARK  8 active torsions:
REMARK  status: ('A' for Active; 'I' for Inactive)
REMARK    1  A    between atoms: C_1  and  C_2
REMARK    2  A    between atoms: C_2  and  C_4
REMARK    3  A    between atoms: C_2  and  N_57
REMARK    4  A    between atoms: N_6  and  C_7
REMARK    5  A    between atoms: C_9  and  N_15
REMARK    6  A    between atoms: C_12  and  O_13
REMARK    7  A    between atoms: O_13  and  C_14
REMARK    8  A    between atoms: C_20  and  C_23
REMARK                            x       y       z     vdW  Elec       q    Type
REMARK                         _______ _______ _______ _____ _____    ______ ____
ROOT
ATOM      1  C   UNL     1      -3.500   9.786   0.540  0.00  0.00    -0.004 C 
ATOM      2  C   UNL     1      -2.142  10.397   0.192  0.00  0.00    +0.016 C 
ENDROOT
BRANCH   2   8
ATOM      3  C   UNL     1      -1.214   8.356   1.104  0.00  0.00    -0.077 C 
ATOM      4  C   UNL     1      -0.082   7.338   0.950  0.00  0.00    -0.011 C 
ATOM      5  C   UNL     1      -0.228   6.619  -0.394  0.00  0.00    +0.018 C 
ATOM      6  C   UNL     1      -0.214   7.654  -1.522  0.00  0.00    -0.011 C 
ATOM      7  C   UNL     1      -1.342   8.663  -1.296  0.00  0.00    -0.077 C 
ATOM      8  N   UNL     1      -1.129   9.338   0.002  0.00  0.00    +0.387 N 
ATOM      9  H   UNL     1      -0.196   9.764   0.007  0.00  0.00    -0.081 HD
BRANCH   5  10
ATOM     10  C   UNL     1       0.917   5.657  -0.579  0.00  0.00    -0.019 A 
ATOM     11  C   UNL     1       2.223   5.968  -0.612  0.00  0.00    +0.087 A 
ATOM     12  N   UNL     1       2.967   4.835  -0.796  0.00  0.00    -0.360 N 
ATOM     13  H   UNL     1       3.935   4.807  -0.854  0.00  0.00    +0.165 HD
ATOM     14  C   UNL     1       2.138   3.739  -0.888  0.00  0.00    +0.047 A 
ATOM     15  C   UNL     1       0.818   4.206  -0.756  0.00  0.00    +0.003 A 
ATOM     16  C   UNL     1      -0.248   3.307  -0.810  0.00  0.00    +0.010 A 
ATOM     17  C   UNL     1      -0.003   1.975  -0.997  0.00  0.00    +0.001 A 
ATOM     18  C   UNL     1       1.298   1.509  -1.122  0.00  0.00    +0.002 A 
ATOM     19  C   UNL     1       2.365   2.379  -1.072  0.00  0.00    +0.026 A 
ENDBRANCH   5  10
ENDBRANCH   2   8
BRANCH   2  20
ATOM     20  C   UNL     1      -1.694  11.298   1.314  0.00  0.00    +0.203 C 
ATOM     21  O   UNL     1      -0.805  10.942   2.059  0.00  0.00    -0.277 OA
ATOM     22  N   UNL     1      -2.280  12.498   1.490  0.00  0.00    -0.284 N 
ATOM     23  H   UNL     1      -3.031  12.757   0.933  0.00  0.00    +0.155 HD
BRANCH  22  24
ATOM     24  C   UNL     1      -1.805  13.372   2.477  0.00  0.00    +0.078 A 
ATOM     25  C   UNL     1      -1.186  12.869   3.612  0.00  0.00    +0.059 A 
ATOM     26  C   UNL     1      -0.714  13.733   4.582  0.00  0.00    +0.128 A 
ATOM     27  C   UNL     1      -0.867  15.099   4.429  0.00  0.00    +0.036 A 
ATOM     28  C   UNL     1      -1.488  15.607   3.304  0.00  0.00    +0.050 A 
ATOM     29  C   UNL     1      -1.959  14.748   2.324  0.00  0.00    +0.141 A 
BRANCH  26  30
ATOM     30  N   UNL     1      -0.049  13.195   5.790  0.00  0.00    +0.056 N 
ATOM     31  O   UNL     1       0.363  13.955   6.648  0.00  0.00    -0.126 OA
ATOM     32  O   UNL     1       0.086  11.992   5.925  0.00  0.00    -0.126 OA
ENDBRANCH  26  30
BRANCH  29  33
ATOM     33  O   UNL     1      -2.571  15.247   1.217  0.00  0.00    -0.493 OA
ATOM     34  C   UNL     1      -2.694  16.668   1.128  0.00  0.00    +0.277 C 
ENDBRANCH  29  33
ENDBRANCH  22  24
ENDBRANCH   2  20
TORSDOF 6
