REMARK  Name = ZINC59201139
REMARK  14 active torsions:
REMARK  status: ('A' for Active; 'I' for Inactive)
REMARK    1  A    between atoms: C_1  and  C_2
REMARK    2  A    between atoms: C_2  and  C_3
REMARK    3  A    between atoms: C_2  and  C_4
REMARK    4  A    between atoms: C_2  and  C_5
REMARK    5  A    between atoms: C_7  and  C_16
REMARK    6  A    between atoms: C_9  and  C_12
REMARK    7  A    between atoms: C_10  and  O_11
REMARK    8  A    between atoms: C_12  and  C_13
REMARK    9  A    between atoms: C_12  and  C_14
REMARK   10  A    between atoms: C_12  and  C_15
REMARK   11  A    between atoms: C_17  and  C_18
REMARK   12  A    between atoms: C_17  and  C_20
REMARK   13  A    between atoms: N_22  and  C_23
REMARK   14  A    between atoms: C_25  and  N_30
REMARK                            x       y       z     vdW  Elec       q    Type
REMARK                         _______ _______ _______ _____ _____    ______ ____
ROOT
ATOM      1  C   UNL     1       2.388   0.903  -4.271  0.00  0.00    +0.032 C 
ATOM      2  C   UNL     1       1.731   2.092  -4.503  0.00  0.00    +0.114 C 
ENDROOT
BRANCH   1   5
ATOM      3  C   UNL     1       0.702  -0.497  -1.247  0.00  0.00    +0.000 A 
ATOM      4  C   UNL     1       1.204   0.401  -2.145  0.00  0.00    +0.015 A 
ATOM      5  C   UNL     1       1.848  -0.055  -3.304  0.00  0.00    -0.023 A 
ATOM      6  C   UNL     1       1.972  -1.433  -3.534  0.00  0.00    +0.015 A 
ATOM      7  C   UNL     1       1.466  -2.322  -2.628  0.00  0.00    +0.000 A 
ATOM      8  C   UNL     1       0.834  -1.863  -1.478  0.00  0.00    +0.124 A 
BRANCH   3  10
ATOM      9  C   UNL     1      -0.001   1.522   0.010  0.00  0.00    +0.015 C 
ATOM     10  C   UNL     1       0.010  -0.008  -0.001  0.00  0.00    -0.009 C 
ATOM     11  C   UNL     1       0.756  -0.522   1.232  0.00  0.00    +0.015 C 
ATOM     12  C   UNL     1      -1.429  -0.528   0.020  0.00  0.00    +0.015 C 
ENDBRANCH   3  10
BRANCH   7  13
ATOM     13  C   UNL     1       1.599  -3.803  -2.873  0.00  0.00    -0.009 C 
ATOM     14  C   UNL     1       2.334  -4.037  -4.195  0.00  0.00    +0.015 C 
ATOM     15  C   UNL     1       2.391  -4.440  -1.730  0.00  0.00    +0.015 C 
ATOM     16  C   UNL     1       0.208  -4.435  -2.945  0.00  0.00    +0.015 C 
ENDBRANCH   7  13
BRANCH   8  17
ATOM     17  O   UNL     1       0.338  -2.751  -0.579  0.00  0.00    -0.506 OA
ATOM     18  H   UNL     1      -0.578  -3.010  -0.747  0.00  0.00    +0.292 HD
ENDBRANCH   8  17
ENDBRANCH   1   5
BRANCH   2  19
ATOM     19  C   UNL     1       2.225   3.016  -5.536  0.00  0.00    +0.259 C 
ATOM     20  O   UNL     1       3.213   2.730  -6.185  0.00  0.00    -0.269 OA
ATOM     21  N   UNL     1       1.583   4.179  -5.762  0.00  0.00    -0.280 N 
ATOM     22  H   UNL     1       0.848   4.447  -5.189  0.00  0.00    +0.155 HD
BRANCH  21  23
ATOM     23  C   UNL     1       1.976   5.000  -6.825  0.00  0.00    +0.054 A 
ATOM     24  C   UNL     1       2.626   4.452  -7.923  0.00  0.00    +0.057 A 
ATOM     25  C   UNL     1       3.013   5.265  -8.971  0.00  0.00    +0.128 A 
ATOM     26  C   UNL     1       2.754   6.623  -8.927  0.00  0.00    +0.034 A 
ATOM     27  C   UNL     1       2.107   7.172  -7.835  0.00  0.00    +0.024 A 
ATOM     28  C   UNL     1       1.712   6.363  -6.786  0.00  0.00    +0.062 A 
ATOM     29 CL   UNL     1       0.893   7.052  -5.419  0.00  0.00    -0.082 Cl
BRANCH  25  30
ATOM     30  N   UNL     1       3.706   4.682 -10.142  0.00  0.00    +0.056 N 
ATOM     31  O   UNL     1       3.933   3.495 -10.180  0.00  0.00    -0.126 OA
ATOM     32  O   UNL     1       4.045   5.393 -11.059  0.00  0.00    -0.126 OA
ENDBRANCH  25  30
ENDBRANCH  21  23
ENDBRANCH   2  19
BRANCH   2  33
ATOM     33  C   UNL     1       0.568   2.428  -3.738  0.00  0.00    +0.104 C 
ATOM     34  N   UNL     1      -0.355   2.695  -3.132  0.00  0.00    -0.191 NA
ENDBRANCH   2  33
TORSDOF 8
