REMARK  Name = ZINC44831152
REMARK  5 active torsions:
REMARK  status: ('A' for Active; 'I' for Inactive)
REMARK    1  A    between atoms: C_1  and  C_2
REMARK    2  A    between atoms: C_5  and  C_8
REMARK    3  A    between atoms: N_13  and  N_14
REMARK    4  A    between atoms: C_15  and  C_16
REMARK    5  A    between atoms: C_15  and  C_17
REMARK                            x       y       z     vdW  Elec       q    Type
REMARK                         _______ _______ _______ _____ _____    ______ ____
ROOT
ATOM      1  C   UNL     1       0.059  -4.252  -0.021  0.00  0.00    +0.055 A 
ATOM      2  C   UNL     1       0.068  -4.924  -1.192  0.00  0.00    +0.075 A 
ATOM      3  S   UNL     1       0.090  -6.624  -0.646  0.00  0.00    -0.056 S 
ATOM      4  C   UNL     1       0.087  -6.319   1.113  0.00  0.00    +0.192 A 
ATOM      5  N   UNL     1       0.074  -4.945   1.156  0.00  0.00    -0.332 N 
ATOM      6  N   UNL     1       0.098  -7.187   2.113  0.00  0.00    -0.124 NA
ATOM      7  H   UNL     1       0.072  -4.477   2.006  0.00  0.00    +0.168 HD
ENDROOT
BRANCH   1  12
ATOM      8  C   UNL     1      -0.018   1.503   0.010  0.00  0.00    +0.044 C 
ATOM      9  C   UNL     1       0.002  -0.004   0.002  0.00  0.00    -0.050 A 
ATOM     10  C   UNL     1       0.006  -0.686  -1.202  0.00  0.00    +0.004 A 
ATOM     11  C   UNL     1       0.024  -2.066  -1.216  0.00  0.00    +0.010 A 
ATOM     12  C   UNL     1       0.040  -2.773  -0.013  0.00  0.00    -0.001 A 
ATOM     13  C   UNL     1       0.036  -2.079   1.198  0.00  0.00    +0.010 A 
ATOM     14  C   UNL     1       0.023  -0.699   1.198  0.00  0.00    +0.004 A 
ENDBRANCH   1  12
BRANCH   6  15
ATOM     15  N   UNL     1       0.115  -8.453   1.867  0.00  0.00    -0.148 NA
ATOM     16  C   UNL     1       0.127  -9.312   2.856  0.00  0.00    +0.103 C 
ATOM     17  C   UNL     1       0.120  -8.821   4.281  0.00  0.00    +0.071 C 
BRANCH  16  18
ATOM     18  C   UNL     1       0.146 -10.747   2.578  0.00  0.00    +0.150 A 
ATOM     19  C   UNL     1       0.160 -11.326   1.339  0.00  0.00    +0.051 A 
ATOM     20  C   UNL     1       0.176 -12.718   1.543  0.00  0.00    +0.042 A 
ATOM     21  C   UNL     1       0.172 -12.925   2.875  0.00  0.00    +0.196 A 
ATOM     22  O   UNL     1       0.160 -11.733   3.498  0.00  0.00    -0.462 OA
ENDBRANCH  16  18
ENDBRANCH   6  15
TORSDOF 3
