REMARK  Name = ZINC04223172
REMARK  3 active torsions:
REMARK  status: ('A' for Active; 'I' for Inactive)
REMARK    1  A    between atoms: C_6  and  N_7
REMARK    2  A    between atoms: C_8  and  C_10
REMARK    3  A    between atoms: C_10  and  C_11
REMARK                            x       y       z     vdW  Elec       q    Type
REMARK                         _______ _______ _______ _____ _____    ______ ____
ROOT
ATOM      1  C   UNL     1      -1.351   7.675  -0.142  0.00  0.00    +0.089 C 
ENDROOT
BRANCH   1   2
ATOM      2  C   UNL     1      -2.804   8.145  -0.226  0.00  0.00    +0.025 C 
ATOM      3  C   UNL     1      -2.842   9.646  -0.188  0.00  0.00    +0.200 C 
ATOM      4  O   UNL     1      -2.653  10.201   0.873  0.00  0.00    -0.278 OA
ATOM      5  N   UNL     1      -3.074  10.401  -1.271  0.00  0.00    -0.315 N 
ATOM      6  C   UNL     1      -3.376   9.815  -2.569  0.00  0.00    +0.059 C 
ATOM      7  C   UNL     1      -2.743  10.612  -3.707  0.00  0.00    +0.020 C 
ATOM      8  C   UNL     1      -3.163   9.976  -5.043  0.00  0.00    +0.002 C 
ATOM      9  C   UNL     1      -2.694   8.521  -5.097  0.00  0.00    -0.001 C 
ATOM     10  C   UNL     1      -3.301   7.732  -3.933  0.00  0.00    -0.014 C 
ATOM     11  C   UNL     1      -2.861   8.375  -2.619  0.00  0.00    -0.050 C 
ATOM     12  H   UNL     1      -3.039  11.367  -1.187  0.00  0.00    +0.149 HD
ATOM     13  N   UNL     1      -3.408   7.641  -1.470  0.00  0.00    +0.390 N 
ATOM     14  H   UNL     1      -4.425   7.772  -1.434  0.00  0.00    -0.084 HD
ATOM     15  H   UNL     1      -3.195   6.641  -1.572  0.00  0.00    -0.084 HD
ENDBRANCH   1   2
BRANCH   1  17
ATOM     16  N   UNL     1      -0.132   5.530   0.044  0.00  0.00    -0.285 N 
ATOM     17  C   UNL     1      -1.314   6.171  -0.041  0.00  0.00    +0.216 C 
ATOM     18  O   UNL     1      -2.349   5.539  -0.037  0.00  0.00    -0.276 OA
ATOM     19  H   UNL     1       0.692   6.038   0.108  0.00  0.00    +0.155 HD
BRANCH  16  25
ATOM     20  C   UNL     1      -1.105   3.405   0.653  0.00  0.00    +0.027 A 
ATOM     21  C   UNL     1      -1.063   2.024   0.654  0.00  0.00    +0.051 A 
ATOM     22  C   UNL     1      -0.017   1.358   0.035  0.00  0.00    +0.162 A 
ATOM     23  C   UNL     1       0.997   2.081  -0.582  0.00  0.00    +0.164 A 
ATOM     24  C   UNL     1       0.959   3.466  -0.578  0.00  0.00    +0.072 A 
ATOM     25  C   UNL     1      -0.092   4.130   0.040  0.00  0.00    +0.037 A 
ATOM     26  O   UNL     1       2.033   1.445  -1.196  0.00  0.00    -0.485 OA
ATOM     27  C   UNL     1       2.233   0.068  -0.857  0.00  0.00    +0.270 C 
ATOM     28  C   UNL     1       0.873  -0.640  -0.900  0.00  0.00    +0.270 C 
ATOM     29  O   UNL     1       0.006  -0.004   0.045  0.00  0.00    -0.485 OA
ENDBRANCH  16  25
ENDBRANCH   1  17
TORSDOF 3
