REMARK  Name = ZINC36159822
REMARK  9 active torsions:
REMARK  status: ('A' for Active; 'I' for Inactive)
REMARK    1  A    between atoms: C_4  and  O_7
REMARK    2  A    between atoms: O_7  and  C_8
REMARK    3  A    between atoms: C_8  and  C_9
REMARK    4  A    between atoms: C_9  and  C_11
REMARK    5  A    between atoms: C_9  and  O_34
REMARK    6  A    between atoms: C_11  and  N_12
REMARK    7  A    between atoms: N_12  and  C_13
REMARK    8  A    between atoms: N_12  and  C_28
REMARK    9  A    between atoms: C_13  and  C_14
REMARK                            x       y       z     vdW  Elec       q    Type
REMARK                         _______ _______ _______ _____ _____    ______ ____
ROOT
ATOM      1  N   UNL     1       6.292  -4.682  -0.389  0.00  0.00    +0.388 N 
ATOM      2  H   UNL     1       6.943  -4.359   0.310  0.00  0.00    -0.081 HD
ENDROOT
BRANCH   1   3
ATOM      3  C   UNL     1       6.712  -4.198  -1.711  0.00  0.00    -0.068 C 
ATOM      4  C   UNL     1       5.753  -4.730  -2.777  0.00  0.00    -0.015 C 
ATOM      5  C   UNL     1       6.191  -4.227  -4.154  0.00  0.00    -0.002 C 
ATOM      6  C   UNL     1       7.609  -4.721  -4.450  0.00  0.00    -0.000 C 
ATOM      7  C   UNL     1       8.568  -4.188  -3.384  0.00  0.00    -0.002 C 
ATOM      8  C   UNL     1       8.130  -4.692  -2.007  0.00  0.00    -0.015 C 
ENDBRANCH   1   3
BRANCH   1   9
ATOM      9  C   UNL     1       4.950  -4.167  -0.083  0.00  0.00    -0.043 C 
BRANCH   9  10
ATOM     10  C   UNL     1       5.008  -2.644   0.057  0.00  0.00    +0.135 C 
BRANCH  10  11
ATOM     11  O   UNL     1       5.828  -2.300   1.175  0.00  0.00    -0.390 OA
ATOM     12  H   UNL     1       5.511  -2.652   2.018  0.00  0.00    +0.210 HD
ENDBRANCH  10  11
BRANCH  10  13
ATOM     13  C   UNL     1       3.596  -2.098   0.272  0.00  0.00    +0.258 C 
BRANCH  13  14
ATOM     14  O   UNL     1       3.635  -0.670   0.286  0.00  0.00    -0.489 OA
BRANCH  14  18
ATOM     15  C   UNL     1       0.050   1.296   0.840  0.00  0.00    +0.000 A 
ATOM     16  C   UNL     1       1.217   2.021   0.679  0.00  0.00    +0.004 A 
ATOM     17  C   UNL     1       2.418   1.365   0.494  0.00  0.00    +0.045 A 
ATOM     18  C   UNL     1       2.454  -0.022   0.469  0.00  0.00    +0.121 A 
ATOM     19  C   UNL     1       1.282  -0.747   0.631  0.00  0.00    +0.045 A 
ATOM     20  C   UNL     1       0.083  -0.086   0.816  0.00  0.00    +0.004 A 
ENDBRANCH  14  18
ENDBRANCH  13  14
ENDBRANCH  10  13
ENDBRANCH   9  10
ENDBRANCH   1   9
BRANCH   1  21
ATOM     21  C   UNL     1       6.263  -6.151  -0.391  0.00  0.00    -0.003 C 
BRANCH  21  22
ATOM     22  C   UNL     1       7.659  -6.680  -0.181  0.00  0.00    +0.094 A 
ATOM     23  N   UNL     1       7.891  -8.012  -0.305  0.00  0.00    -0.312 N 
ATOM     24  H   UNL     1       7.156  -8.604  -0.528  0.00  0.00    +0.170 HD
ATOM     25  C   UNL     1       9.123  -8.528  -0.126  0.00  0.00    +0.260 A 
ATOM     26  O   UNL     1       9.317  -9.726  -0.241  0.00  0.00    -0.267 OA
ATOM     27  C   UNL     1      10.200  -7.642   0.203  0.00  0.00    +0.075 A 
ATOM     28  C   UNL     1      11.611  -7.979   0.441  0.00  0.00    -0.023 A 
ATOM     29  C   UNL     1      12.437  -6.962   0.737  0.00  0.00    -0.004 A 
ATOM     30  S   UNL     1      11.407  -5.512   0.716  0.00  0.00    -0.073 S 
ATOM     31  C   UNL     1       9.864  -6.286   0.309  0.00  0.00    +0.116 A 
ATOM     32  N   UNL     1       8.622  -5.849   0.112  0.00  0.00    -0.229 NA
ATOM     33  C   UNL     1      13.851  -7.425   0.965  0.00  0.00    +0.043 C 
ATOM     34  C   UNL     1      13.727  -8.947   1.194  0.00  0.00    +0.010 C 
ATOM     35  C   UNL     1      12.428  -9.274   0.433  0.00  0.00    +0.037 C 
ENDBRANCH  21  22
ENDBRANCH   1  21
TORSDOF 9
