REMARK  Name = ZINC06441825
REMARK  11 active torsions:
REMARK  status: ('A' for Active; 'I' for Inactive)
REMARK    1  A    between atoms: C_1  and  C_2
REMARK    2  A    between atoms: C_7  and  C_15
REMARK    3  A    between atoms: C_13  and  C_14
REMARK    4  A    between atoms: C_15  and  C_17
REMARK    5  A    between atoms: C_15  and  N_70
REMARK    6  A    between atoms: N_21  and  C_22
REMARK    7  A    between atoms: C_22  and  C_23
REMARK    8  A    between atoms: C_22  and  C_24
REMARK    9  A    between atoms: C_22  and  C_25
REMARK   10  A    between atoms: N_28  and  C_31
REMARK   11  A    between atoms: C_34  and  N_37
REMARK                            x       y       z     vdW  Elec       q    Type
REMARK                         _______ _______ _______ _____ _____    ______ ____
ROOT
ATOM      1  C   UNL     1      -0.143   1.110   0.032  0.00  0.00    +0.039 C 
ENDROOT
BRANCH   1   8
ATOM      2  C   UNL     1       6.656   5.281   0.097  0.00  0.00    +0.044 C 
ATOM      3  C   UNL     1       5.331   4.590   0.294  0.00  0.00    -0.046 A 
ATOM      4  C   UNL     1       4.600   4.822   1.451  0.00  0.00    +0.004 A 
ATOM      5  C   UNL     1       3.397   4.205   1.649  0.00  0.00    +0.010 A 
ATOM      6  C   UNL     1       2.897   3.332   0.677  0.00  0.00    -0.001 A 
ATOM      7  C   UNL     1       1.609   2.660   0.854  0.00  0.00    +0.017 A 
ATOM      8  C   UNL     1       1.177   1.821  -0.120  0.00  0.00    +0.011 A 
ATOM      9  C   UNL     1       1.956   1.617  -1.280  0.00  0.00    +0.251 A 
ATOM     10  O   UNL     1       1.547   0.863  -2.145  0.00  0.00    -0.268 OA
ATOM     11  N   UNL     1       3.138   2.234  -1.453  0.00  0.00    -0.322 N 
ATOM     12  H   UNL     1       3.648   2.071  -2.262  0.00  0.00    +0.169 HD
ATOM     13  C   UNL     1       3.636   3.094  -0.497  0.00  0.00    +0.052 A 
ATOM     14  C   UNL     1       4.859   3.733  -0.677  0.00  0.00    -0.024 A 
ATOM     15  C   UNL     1       5.663   3.490  -1.927  0.00  0.00    +0.046 C 
ENDBRANCH   1   8
BRANCH   1  21
ATOM     16  C   UNL     1      -1.184   2.951  -1.148  0.00  0.00    -0.058 C 
ATOM     17  C   UNL     1      -2.054   3.309  -2.355  0.00  0.00    +0.086 C 
ATOM     18  N   UNL     1      -3.364   2.656  -2.223  0.00  0.00    -0.333 N 
ATOM     19  C   UNL     1      -3.215   1.196  -2.146  0.00  0.00    +0.086 C 
ATOM     20  C   UNL     1      -2.344   0.837  -0.939  0.00  0.00    -0.058 C 
ATOM     21  N   UNL     1      -1.024   1.482  -1.095  0.00  0.00    +0.391 N 
ATOM     22  H   UNL     1      -0.597   1.162  -1.972  0.00  0.00    -0.080 HD
BRANCH  18  23
ATOM     23  C   UNL     1      -4.212   3.018  -3.271  0.00  0.00    +0.030 A 
ATOM     24  C   UNL     1      -4.780   2.039  -4.077  0.00  0.00    +0.025 A 
ATOM     25  C   UNL     1      -5.623   2.401  -5.110  0.00  0.00    +0.034 A 
ATOM     26  C   UNL     1      -5.892   3.735  -5.349  0.00  0.00    +0.126 A 
ATOM     27  C   UNL     1      -5.324   4.713  -4.553  0.00  0.00    +0.034 A 
ATOM     28  C   UNL     1      -4.485   4.358  -3.515  0.00  0.00    +0.025 A 
BRANCH  26  29
ATOM     29  N   UNL     1      -6.792   4.119  -6.460  0.00  0.00    +0.056 N 
ATOM     30  O   UNL     1      -7.030   5.295  -6.672  0.00  0.00    -0.126 OA
ATOM     31  O   UNL     1      -7.293   3.260  -7.163  0.00  0.00    -0.126 OA
ENDBRANCH  26  29
ENDBRANCH  18  23
ENDBRANCH   1  21
BRANCH   1  32
ATOM     32  C   UNL     1      -0.773   1.497   1.345  0.00  0.00    +0.143 A 
ATOM     33  N   UNL     1      -1.304   2.657   1.646  0.00  0.00    -0.115 NA
ATOM     34  N   UNL     1      -1.737   2.594   2.858  0.00  0.00    -0.023 NA
ATOM     35  N   UNL     1      -1.490   1.426   3.340  0.00  0.00    -0.043 NA
ATOM     36  N   UNL     1      -0.896   0.721   2.437  0.00  0.00    -0.225 N 
BRANCH  36  37
ATOM     37  C   UNL     1      -0.442  -0.665   2.575  0.00  0.00    +0.059 C 
ATOM     38  C   UNL     1       1.055  -0.744   2.273  0.00  0.00    +0.036 C 
ATOM     39  C   UNL     1      -0.700  -1.146   4.005  0.00  0.00    +0.036 C 
ATOM     40  C   UNL     1      -1.208  -1.553   1.593  0.00  0.00    +0.036 C 
ENDBRANCH  36  37
ENDBRANCH   1  32
TORSDOF 6
