REMARK  Name = ZINC24654509
REMARK  4 active torsions:
REMARK  status: ('A' for Active; 'I' for Inactive)
REMARK    1  A    between atoms: N_3  and  S_20
REMARK    2  A    between atoms: C_6  and  C_7
REMARK    3  A    between atoms: N_9  and  C_10
REMARK    4  A    between atoms: S_20  and  N_23
REMARK                            x       y       z     vdW  Elec       q    Type
REMARK                         _______ _______ _______ _____ _____    ______ ____
ROOT
ATOM      1  C   UNL     1      -2.112   5.752  -0.958  0.00  0.00    +0.217 C 
ATOM      2  O   UNL     1      -2.637   5.143  -1.866  0.00  0.00    -0.275 OA
ATOM      3  N   UNL     1      -1.510   5.081   0.044  0.00  0.00    -0.310 N 
ATOM      4  H   UNL     1      -1.033   5.633   0.867  0.00  0.00    +0.149 HD
ENDROOT
BRANCH   3   5
ATOM      5  C   UNL     1      -1.490   3.616   0.036  0.00  0.00    +0.035 C 
ATOM      6  C   UNL     1      -0.773   3.123  -1.223  0.00  0.00    +0.029 C 
ATOM      7  C   UNL     1      -0.753   1.593  -1.232  0.00  0.00    -0.008 C 
ATOM      8  C   UNL     1      -0.013   1.086   0.008  0.00  0.00    +0.007 C 
ATOM      9  C   UNL     1      -0.729   1.579   1.267  0.00  0.00    -0.008 C 
ATOM     10  C   UNL     1      -0.750   3.109   1.275  0.00  0.00    +0.029 C 
ATOM     11  C   UNL     1      -2.164   1.050   1.278  0.00  0.00    +0.007 C 
ATOM     12  C   UNL     1      -2.904   1.556   0.038  0.00  0.00    -0.008 C 
ATOM     13  C   UNL     1      -2.188   1.063  -1.221  0.00  0.00    +0.007 C 
ATOM     14  C   UNL     1      -2.925   3.086   0.047  0.00  0.00    +0.029 C 
ENDBRANCH   3   5
BRANCH   1  20
ATOM     15  C   UNL     1      -2.847   7.752   0.311  0.00  0.00    +0.030 C 
ATOM     16  C   UNL     1      -2.836   9.284   0.333  0.00  0.00    +0.111 C 
ATOM     17  N   UNL     1      -3.415   9.780  -0.923  0.00  0.00    -0.167 NA
ATOM     18  C   UNL     1      -2.861   9.297  -2.196  0.00  0.00    +0.111 C 
ATOM     19  C   UNL     1      -2.872   7.766  -2.189  0.00  0.00    +0.030 C 
ATOM     20  C   UNL     1      -2.132   7.259  -0.950  0.00  0.00    +0.077 C 
BRANCH  17  21
ATOM     21  S   UNL     1      -4.670  10.860  -0.904  0.00  0.00    +0.095 S 
ATOM     22  O   UNL     1      -4.605  11.536   0.344  0.00  0.00    -0.141 OA
ATOM     23  O   UNL     1      -4.631  11.549  -2.147  0.00  0.00    -0.141 OA
BRANCH  21  24
ATOM     24  N   UNL     1      -6.073   9.982  -0.895  0.00  0.00    -0.193 NA
ATOM     25  H   UNL     1      -6.934  10.666  -0.882  0.00  0.00    +0.145 HD
ATOM     26  H   UNL     1      -6.099   9.343   0.001  0.00  0.00    +0.145 HD
ENDBRANCH  21  24
ENDBRANCH  17  21
ENDBRANCH   1  20
TORSDOF 4
