REMARK  Name = ZINC06232546
REMARK  5 active torsions:
REMARK  status: ('A' for Active; 'I' for Inactive)
REMARK    1  A    between atoms: C_1  and  C_2
REMARK    2  A    between atoms: C_2  and  C_39
REMARK    3  A    between atoms: C_4  and  N_9
REMARK    4  A    between atoms: N_16  and  N_17
REMARK    5  A    between atoms: C_18  and  C_20
REMARK                            x       y       z     vdW  Elec       q    Type
REMARK                         _______ _______ _______ _____ _____    ______ ____
ROOT
ATOM      1  N   UNL     1      -2.463   9.406   0.184  0.00  0.00    -0.276 N 
ATOM      2  C   UNL     1      -3.630  10.071   0.322  0.00  0.00    +0.260 A 
ATOM      3  O   UNL     1      -3.642  11.273   0.531  0.00  0.00    -0.267 OA
ATOM      4  C   UNL     1      -4.828   9.350   0.226  0.00  0.00    +0.050 A 
ATOM      5  C   UNL     1      -4.770   7.988  -0.026  0.00  0.00    +0.084 A 
ATOM      6  N   UNL     1      -3.583   7.381  -0.137  0.00  0.00    -0.214 NA
ATOM      7  C   UNL     1      -2.461   8.064  -0.041  0.00  0.00    +0.216 A 
ATOM      8  N   UNL     1      -1.266   7.407  -0.164  0.00  0.00    -0.234 N 
ATOM      9  C   UNL     1      -6.034   7.227  -0.152  0.00  0.00    +0.004 A 
ATOM     10  C   UNL     1      -6.045   5.838  -0.078  0.00  0.00    +0.010 A 
ATOM     11  C   UNL     1      -7.240   5.155  -0.189  0.00  0.00    +0.001 A 
ATOM     12  C   UNL     1      -8.420   5.851  -0.383  0.00  0.00    +0.000 A 
ATOM     13  C   UNL     1      -8.411   7.231  -0.479  0.00  0.00    +0.004 A 
ATOM     14  C   UNL     1      -7.222   7.924  -0.378  0.00  0.00    -0.037 A 
ATOM     15  C   UNL     1      -7.198   9.421  -0.532  0.00  0.00    +0.047 C 
ATOM     16  C   UNL     1      -6.154  10.038   0.398  0.00  0.00    +0.007 C 
ATOM     17  C   UNL     1      -6.618   9.887   1.850  0.00  0.00    +0.012 C 
ATOM     18  C   UNL     1      -7.965  10.588   2.031  0.00  0.00    +0.001 C 
ATOM     19  C   UNL     1      -7.814  12.075   1.700  0.00  0.00    +0.000 C 
ATOM     20  C   UNL     1      -7.347  12.229   0.251  0.00  0.00    +0.001 C 
ATOM     21  C   UNL     1      -6.001  11.526   0.071  0.00  0.00    +0.012 C 
ATOM     22  H   UNL     1      -0.435   7.909  -0.172  0.00  0.00    +0.173 HD
ENDROOT
BRANCH   1  26
ATOM     23  C   UNL     1       0.304  12.346   3.040  0.00  0.00    +0.041 C 
ATOM     24  C   UNL     1       0.211  11.626   1.694  0.00  0.00    +0.066 C 
ATOM     25  C   UNL     1      -1.079  10.804   1.642  0.00  0.00    +0.059 C 
ATOM     26  C   UNL     1      -1.194  10.134   0.269  0.00  0.00    +0.098 C 
ATOM     27  C   UNL     1      -1.146  11.210  -0.820  0.00  0.00    +0.053 C 
ATOM     28  C   UNL     1       0.146  12.018  -0.671  0.00  0.00    +0.162 C 
ATOM     29  O   UNL     1       0.204  12.588   0.638  0.00  0.00    -0.374 OA
ATOM     30  C   UNL     1       1.415  10.696   1.529  0.00  0.00    +0.041 C 
ENDBRANCH   1  26
BRANCH   8  31
ATOM     31  N   UNL     1      -1.242   6.011  -0.278  0.00  0.00    -0.230 N 
ATOM     32  C   UNL     1      -0.065   5.365  -0.400  0.00  0.00    +0.260 C 
ATOM     33  O   UNL     1       0.975   5.994  -0.410  0.00  0.00    -0.269 OA
ATOM     34  H   UNL     1      -2.072   5.510  -0.270  0.00  0.00    +0.173 HD
BRANCH  32  35
ATOM     35  C   UNL     1      -0.040   3.892  -0.520  0.00  0.00    +0.038 A 
ATOM     36  C   UNL     1       1.177   3.220  -0.646  0.00  0.00    +0.013 A 
ATOM     37  C   UNL     1       1.194   1.845  -0.759  0.00  0.00    +0.001 A 
ATOM     38  C   UNL     1       0.008   1.133  -0.747  0.00  0.00    +0.000 A 
ATOM     39  C   UNL     1      -1.202   1.793  -0.629  0.00  0.00    +0.001 A 
ATOM     40  C   UNL     1      -1.232   3.167  -0.509  0.00  0.00    +0.013 A 
ENDBRANCH  32  35
ENDBRANCH   8  31
TORSDOF 3
