REMARK  Name = ZINC38735942
REMARK  10 active torsions:
REMARK  status: ('A' for Active; 'I' for Inactive)
REMARK    1  A    between atoms: C_1  and  C_2
REMARK    2  A    between atoms: C_2  and  C_3
REMARK    3  A    between atoms: C_3  and  C_4
REMARK    4  A    between atoms: C_7  and  C_10
REMARK    5  A    between atoms: C_10  and  C_12
REMARK    6  A    between atoms: C_10  and  N_15
REMARK    7  A    between atoms: C_12  and  C_13
REMARK    8  A    between atoms: C_12  and  C_14
REMARK    9  A    between atoms: N_15  and  S_16
REMARK   10  A    between atoms: S_16  and  C_19
REMARK                            x       y       z     vdW  Elec       q    Type
REMARK                         _______ _______ _______ _____ _____    ______ ____
ROOT
ATOM      1  S   UNL     1      -3.693  -7.462   0.713  0.00  0.00    +0.059 S 
ATOM      2  O   UNL     1      -4.200  -8.062   1.897  0.00  0.00    -0.153 OA
ATOM      3  O   UNL     1      -4.372  -6.409   0.041  0.00  0.00    -0.153 OA
ENDROOT
BRANCH   1   4
ATOM      4  C   UNL     1      -3.489  -8.759  -0.462  0.00  0.00    +0.107 A 
ATOM      5  C   UNL     1      -3.403  -8.435  -1.831  0.00  0.00    +0.030 A 
ATOM      6  C   UNL     1      -3.247  -9.384  -2.781  0.00  0.00    +0.027 A 
ATOM      7  C   UNL     1      -3.164 -10.749  -2.402  0.00  0.00    +0.055 A 
ATOM      8  N   UNL     1      -3.012 -11.694  -3.306  0.00  0.00    -0.276 N 
ATOM      9  C   UNL     1      -2.936 -12.985  -2.922  0.00  0.00    +0.304 C 
ATOM     10  O   UNL     1      -2.794 -13.862  -3.750  0.00  0.00    -0.265 OA
ATOM     11  C   UNL     1      -3.026 -13.329  -1.469  0.00  0.00    +0.304 C 
ATOM     12  O   UNL     1      -2.958 -14.486  -1.109  0.00  0.00    -0.265 OA
ATOM     13  N   UNL     1      -3.182 -12.343  -0.561  0.00  0.00    -0.276 N 
ATOM     14  C   UNL     1      -3.254 -11.091  -0.959  0.00  0.00    +0.057 A 
ATOM     15  C   UNL     1      -3.413 -10.036  -0.023  0.00  0.00    +0.053 A 
ATOM     16  H   UNL     1      -3.242 -12.557   0.383  0.00  0.00    +0.155 HD
ATOM     17  H   UNL     1      -2.954 -11.463  -4.246  0.00  0.00    +0.155 HD
ENDBRANCH   1   4
BRANCH   1  18
ATOM     18  N   UNL     1      -2.182  -6.892   1.081  0.00  0.00    -0.182 NA
ATOM     19  H   UNL     1      -1.832  -6.992   1.980  0.00  0.00    +0.149 HD
BRANCH  18  20
ATOM     20  C   UNL     1      -1.375  -6.236   0.049  0.00  0.00    +0.109 C 
BRANCH  20  24
ATOM     21  C   UNL     1      -1.891  -2.004   0.314  0.00  0.00    -0.047 A 
ATOM     22  C   UNL     1      -1.824  -2.616  -0.924  0.00  0.00    +0.004 A 
ATOM     23  C   UNL     1      -1.657  -3.986  -1.010  0.00  0.00    +0.005 A 
ATOM     24  C   UNL     1      -1.556  -4.743   0.142  0.00  0.00    -0.029 A 
ATOM     25  C   UNL     1      -1.622  -4.131   1.380  0.00  0.00    +0.005 A 
ATOM     26  C   UNL     1      -1.785  -2.761   1.466  0.00  0.00    +0.004 A 
BRANCH  21  27
ATOM     27  C   UNL     1      -2.074  -0.511   0.407  0.00  0.00    +0.035 C 
BRANCH  27  29
ATOM     28  C   UNL     1      -0.888   1.686   0.518  0.00  0.00    +0.004 C 
ATOM     29  C   UNL     1      -0.704   0.170   0.423  0.00  0.00    +0.001 C 
ENDBRANCH  27  29
ENDBRANCH  21  27
ENDBRANCH  20  24
BRANCH  20  30
ATOM     30  C   UNL     1       0.100  -6.585   0.257  0.00  0.00    +0.006 C 
ATOM     31  C   UNL     1       0.268  -8.106   0.264  0.00  0.00    +0.009 C 
ATOM     32  C   UNL     1       0.931  -5.986  -0.879  0.00  0.00    +0.009 C 
ENDBRANCH  20  30
ENDBRANCH  18  20
ENDBRANCH   1  18
TORSDOF 7
