REMARK  Name = ZINC16231389
REMARK  7 active torsions:
REMARK  status: ('A' for Active; 'I' for Inactive)
REMARK    1  A    between atoms: C_1  and  C_2
REMARK    2  A    between atoms: C_10  and  C_11
REMARK    3  A    between atoms: N_13  and  N_14
REMARK    4  A    between atoms: C_15  and  C_17
REMARK    5  A    between atoms: C_19  and  S_26
REMARK    6  A    between atoms: C_22  and  N_23
REMARK    7  A    between atoms: S_26  and  C_27
REMARK                            x       y       z     vdW  Elec       q    Type
REMARK                         _______ _______ _______ _____ _____    ______ ____
ROOT
ATOM      1  N   UNL     1       0.633  -1.507   4.901  0.00  0.00    -0.230 N 
ATOM      2  C   UNL     1       0.281  -2.212   5.995  0.00  0.00    +0.262 C 
ATOM      3  O   UNL     1       0.042  -3.400   5.901  0.00  0.00    -0.269 OA
ATOM      4  H   UNL     1       0.824  -0.559   4.976  0.00  0.00    +0.173 HD
ENDROOT
BRANCH   2   5
ATOM      5  C   UNL     1       0.188  -1.541   7.309  0.00  0.00    +0.069 A 
ATOM      6  C   UNL     1       1.277  -0.828   7.809  0.00  0.00    +0.030 A 
ATOM      7  C   UNL     1       1.181  -0.200   9.043  0.00  0.00    +0.008 A 
ATOM      8  C   UNL     1       0.002  -0.284   9.775  0.00  0.00    +0.017 A 
ATOM      9  C   UNL     1      -1.077  -0.991   9.279  0.00  0.00    +0.034 A 
ATOM     10  C   UNL     1      -0.993  -1.613   8.050  0.00  0.00    +0.138 A 
BRANCH  10  11
ATOM     11  N   UNL     1      -2.154  -2.364   7.520  0.00  0.00    +0.057 N 
ATOM     12  O   UNL     1      -3.131  -2.532   8.211  0.00  0.00    -0.126 OA
ATOM     13  O   UNL     1      -2.125  -2.808   6.396  0.00  0.00    -0.126 OA
ENDBRANCH  10  11
BRANCH   7  14
ATOM     14  S   UNL     1       2.553   0.702   9.681  0.00  0.00    -0.129 S 
ATOM     15  C   UNL     1       1.963   1.326  11.279  0.00  0.00    +0.090 C 
ENDBRANCH   7  14
ENDBRANCH   2   5
BRANCH   1  18
ATOM     16  C   UNL     1       1.073  -1.439   2.562  0.00  0.00    +0.296 C 
ATOM     17  O   UNL     1       1.313  -0.250   2.656  0.00  0.00    -0.265 OA
ATOM     18  N   UNL     1       0.722  -2.144   3.656  0.00  0.00    -0.228 N 
ATOM     19  H   UNL     1       0.530  -3.092   3.581  0.00  0.00    +0.173 HD
BRANCH  16  29
ATOM     20  C   UNL     1       1.859  -0.047  -0.105  0.00  0.00    +0.048 C 
ATOM     21  C   UNL     1       1.509  -1.500   0.091  0.00  0.00    +0.008 A 
ATOM     22  C   UNL     1       1.477  -2.542  -0.934  0.00  0.00    +0.024 A 
ATOM     23  C   UNL     1       1.729  -2.566  -2.308  0.00  0.00    +0.012 A 
ATOM     24  C   UNL     1       1.606  -3.738  -2.999  0.00  0.00    +0.001 A 
ATOM     25  C   UNL     1       1.232  -4.904  -2.345  0.00  0.00    +0.004 A 
ATOM     26  C   UNL     1       0.979  -4.902  -0.991  0.00  0.00    +0.047 A 
ATOM     27  C   UNL     1       1.098  -3.722  -0.266  0.00  0.00    +0.136 A 
ATOM     28  O   UNL     1       0.921  -3.415   1.034  0.00  0.00    -0.450 OA
ATOM     29  C   UNL     1       1.166  -2.107   1.256  0.00  0.00    +0.195 A 
ENDBRANCH  16  29
ENDBRANCH   1  18
TORSDOF 5
