REMARK  Name = ZINC05302387
REMARK  5 active torsions:
REMARK  status: ('A' for Active; 'I' for Inactive)
REMARK    1  A    between atoms: C_1  and  N_2
REMARK    2  A    between atoms: C_6  and  C_8
REMARK    3  A    between atoms: C_8  and  O_9
REMARK    4  A    between atoms: O_9  and  C_10
REMARK    5  A    between atoms: C_10  and  C_12
REMARK                            x       y       z     vdW  Elec       q    Type
REMARK                         _______ _______ _______ _____ _____    ______ ____
ROOT
ATOM      1  C   UNL     1      -1.119  -0.945   0.031  0.00  0.00    +0.346 C 
ATOM      2  O   UNL     1      -0.908  -2.143   0.019  0.00  0.00    -0.244 OA
ENDROOT
BRANCH   1   3
ATOM      3  C   UNL     1       0.002  -0.004   0.002  0.00  0.00    +0.097 A 
ATOM      4  C   UNL     1       1.356  -0.262  -0.039  0.00  0.00    +0.026 A 
ATOM      5  C   UNL     1       2.235   0.822  -0.072  0.00  0.00    -0.036 A 
ATOM      6  C   UNL     1       1.693   2.055  -0.003  0.00  0.00    -0.006 A 
ATOM      7  S   UNL     1      -0.022   1.777   0.012  0.00  0.00    -0.086 S 
ATOM      8  C   UNL     1       2.292   3.431   0.123  0.00  0.00    +0.043 C 
ATOM      9  C   UNL     1       3.819   3.395   0.200  0.00  0.00    +0.005 C 
ATOM     10  C   UNL     1       4.425   3.225  -1.183  0.00  0.00    +0.000 C 
ATOM     11  C   UNL     1       3.620   2.291  -2.065  0.00  0.00    +0.000 C 
ATOM     12  C   UNL     1       4.073   0.865  -1.738  0.00  0.00    +0.005 C 
ATOM     13  C   UNL     1       3.719   0.555  -0.283  0.00  0.00    +0.036 C 
ENDBRANCH   1   3
BRANCH   1  14
ATOM     14  O   UNL     1      -2.386  -0.484   0.071  0.00  0.00    -0.451 OA
BRANCH  14  15
ATOM     15  C   UNL     1      -3.447  -1.475   0.098  0.00  0.00    +0.328 C 
BRANCH  15  21
ATOM     16  C   UNL     1      -9.549  -0.926   0.281  0.00  0.00    +0.129 C 
ATOM     17  N   UNL     1      -8.251  -1.603   0.240  0.00  0.00    -0.302 N 
ATOM     18  C   UNL     1      -7.114  -0.879   0.209  0.00  0.00    +0.306 C 
ATOM     19  O   UNL     1      -7.167   0.335   0.217  0.00  0.00    -0.252 OA
ATOM     20  N   UNL     1      -5.920  -1.502   0.171  0.00  0.00    -0.237 N 
ATOM     21  C   UNL     1      -4.783  -0.778   0.141  0.00  0.00    +0.258 C 
ATOM     22  O   UNL     1      -4.835   0.433   0.148  0.00  0.00    -0.272 OA
ATOM     23  H   UNL     1      -8.209  -2.572   0.234  0.00  0.00    +0.150 HD
ATOM     24  H   UNL     1      -5.878  -2.471   0.165  0.00  0.00    +0.159 HD
ENDBRANCH  15  21
ENDBRANCH  14  15
ENDBRANCH   1  14
TORSDOF 4
