REMARK  Name = ZINC00427506
REMARK  5 active torsions:
REMARK  status: ('A' for Active; 'I' for Inactive)
REMARK    1  A    between atoms: C_1  and  C_2
REMARK    2  A    between atoms: C_5  and  N_8
REMARK    3  A    between atoms: N_8  and  C_9
REMARK    4  A    between atoms: C_10  and  C_19
REMARK    5  A    between atoms: C_15  and  C_18
REMARK                            x       y       z     vdW  Elec       q    Type
REMARK                         _______ _______ _______ _____ _____    ______ ____
ROOT
ATOM      1  C   UNL     1       3.546  -0.469  -0.241  0.00  0.00    +0.136 A 
ATOM      2  C   UNL     1       3.945   0.714   0.352  0.00  0.00    +0.118 A 
ATOM      3  N   UNL     1       3.143   1.696  -0.099  0.00  0.00    -0.225 NA
ATOM      4  C   UNL     1       2.263   1.187  -0.946  0.00  0.00    +0.140 A 
ATOM      5  N   UNL     1       2.490  -0.166  -1.055  0.00  0.00    -0.287 N 
ATOM      6  C   UNL     1       1.709  -0.934  -1.876  0.00  0.00    +0.097 A 
ATOM      7  C   UNL     1       0.708  -0.380  -2.589  0.00  0.00    -0.034 A 
ATOM      8  C   UNL     1       0.452   1.000  -2.498  0.00  0.00    +0.008 A 
ATOM      9  C   UNL     1       1.218   1.778  -1.687  0.00  0.00    +0.047 A 
ATOM     10  C   UNL     1      -0.140  -1.242  -3.487  0.00  0.00    +0.045 C 
ENDROOT
BRANCH   2  11
ATOM     11  C   UNL     1       5.055   0.872   1.314  0.00  0.00    +0.041 A 
ATOM     12  C   UNL     1       5.927   1.918   1.461  0.00  0.00    +0.018 A 
ATOM     13  C   UNL     1       6.891   1.842   2.444  0.00  0.00    +0.008 A 
ATOM     14  C   UNL     1       6.954   0.734   3.224  0.00  0.00    +0.046 A 
ATOM     15  S   UNL     1       5.614  -0.254   2.582  0.00  0.00    -0.095 S 
ENDBRANCH   2  11
BRANCH   1  16
ATOM     16  N   UNL     1       4.112  -1.729  -0.046  0.00  0.00    -0.299 N 
ATOM     17  H   UNL     1       4.997  -1.923  -0.395  0.00  0.00    +0.154 HD
BRANCH  16  22
ATOM     18  C   UNL     1       1.241  -5.720   2.779  0.00  0.00    +0.044 C 
ATOM     19  C   UNL     1       2.005  -4.660   2.029  0.00  0.00    -0.050 A 
ATOM     20  C   UNL     1       3.204  -4.976   1.416  0.00  0.00    +0.005 A 
ATOM     21  C   UNL     1       3.905  -4.006   0.727  0.00  0.00    +0.023 A 
ATOM     22  C   UNL     1       3.406  -2.712   0.650  0.00  0.00    +0.032 A 
ATOM     23  C   UNL     1       2.204  -2.396   1.272  0.00  0.00    +0.023 A 
ATOM     24  C   UNL     1       1.504  -3.372   1.954  0.00  0.00    +0.005 A 
ENDBRANCH  16  22
ENDBRANCH   1  16
TORSDOF 3
