REMARK  Name = ZINC41067700
REMARK  5 active torsions:
REMARK  status: ('A' for Active; 'I' for Inactive)
REMARK    1  A    between atoms: C_1  and  C_2
REMARK    2  A    between atoms: C_5  and  N_9
REMARK    3  A    between atoms: N_9  and  S_10
REMARK    4  A    between atoms: S_10  and  C_13
REMARK    5  A    between atoms: C_15  and  N_18
REMARK                            x       y       z     vdW  Elec       q    Type
REMARK                         _______ _______ _______ _____ _____    ______ ____
ROOT
ATOM      1  S   UNL     1       0.078  -5.006   1.405  0.00  0.00    +0.098 S 
ATOM      2  O   UNL     1       1.323  -4.720   2.028  0.00  0.00    -0.148 OA
ATOM      3  O   UNL     1      -1.168  -4.754   2.041  0.00  0.00    -0.148 OA
ENDROOT
BRANCH   1   4
ATOM      4  C   UNL     1       0.099  -6.722   1.003  0.00  0.00    +0.149 A 
ATOM      5  C   UNL     1       1.163  -7.539   0.809  0.00  0.00    +0.059 A 
ATOM      6  C   UNL     1       0.939  -8.870   0.497  0.00  0.00    +0.034 A 
ATOM      7  C   UNL     1      -0.342  -9.314   0.397  0.00  0.00    +0.069 A 
ATOM      8  S   UNL     1      -1.274  -7.834   0.754  0.00  0.00    -0.075 S 
BRANCH   6   9
ATOM      9  N   UNL     1       2.019  -9.749   0.288  0.00  0.00    -0.358 N 
ATOM     10  H   UNL     1       2.930  -9.424   0.361  0.00  0.00    +0.142 HD
ATOM     11  H   UNL     1       1.852 -10.679   0.070  0.00  0.00    +0.142 HD
ENDBRANCH   6   9
ENDBRANCH   1   4
BRANCH   1  12
ATOM     12  N   UNL     1       0.059  -4.169  -0.023  0.00  0.00    -0.097 NA
BRANCH  12  17
ATOM     13  C   UNL     1      -0.018   1.503   0.010  0.00  0.00    +0.047 C 
ATOM     14  C   UNL     1       0.002  -0.004   0.002  0.00  0.00    -0.015 A 
ATOM     15  C   UNL     1       0.006  -0.688  -1.200  0.00  0.00    +0.008 A 
ATOM     16  C   UNL     1       0.025  -2.068  -1.211  0.00  0.00    +0.027 A 
ATOM     17  C   UNL     1       0.041  -2.772  -0.014  0.00  0.00    +0.077 A 
ATOM     18  C   UNL     1       0.037  -2.085   1.193  0.00  0.00    +0.065 A 
ATOM     19  C   UNL     1       0.023  -0.702   1.198  0.00  0.00    +0.128 A 
ATOM     20  F   UNL     1       0.024  -0.031   2.371  0.00  0.00    -0.205 F 
ENDBRANCH  12  17
ENDBRANCH   1  12
TORSDOF 4
