REMARK  Name = ZINC52618900
REMARK  7 active torsions:
REMARK  status: ('A' for Active; 'I' for Inactive)
REMARK    1  A    between atoms: C_1  and  C_2
REMARK    2  A    between atoms: C_2  and  C_3
REMARK    3  A    between atoms: C_7  and  C_37
REMARK    4  A    between atoms: C_9  and  C_36
REMARK    5  A    between atoms: N_12  and  C_13
REMARK    6  A    between atoms: C_23  and  C_25
REMARK    7  A    between atoms: C_30  and  C_31
REMARK                            x       y       z     vdW  Elec       q    Type
REMARK                         _______ _______ _______ _____ _____    ______ ____
ROOT
ATOM      1  C   UNL     1      -0.370  -2.870  -1.479  0.00  0.00    +0.107 C 
ATOM      2  C   UNL     1      -0.477  -3.745  -0.228  0.00  0.00    +0.027 C 
ATOM      3  C   UNL     1       0.897  -4.068   0.326  0.00  0.00    +0.002 C 
ATOM      4  C   UNL     1       1.729  -4.980  -0.553  0.00  0.00    +0.005 C 
ATOM      5  C   UNL     1       2.133  -4.271  -1.848  0.00  0.00    +0.035 C 
ATOM      6  C   UNL     1       1.014  -4.437  -2.855  0.00  0.00    -0.042 A 
ATOM      7  C   UNL     1      -0.176  -3.768  -2.684  0.00  0.00    -0.024 A 
ATOM      8  C   UNL     1      -1.207  -3.910  -3.598  0.00  0.00    +0.006 A 
ATOM      9  C   UNL     1      -1.040  -4.727  -4.699  0.00  0.00    +0.009 A 
ATOM     10  C   UNL     1       0.164  -5.404  -4.886  0.00  0.00    -0.017 A 
ATOM     11  C   UNL     1       1.200  -5.261  -3.948  0.00  0.00    +0.012 A 
ENDROOT
BRANCH   1  20
ATOM     12  C   UNL     1       1.006  -1.008  -0.262  0.00  0.00    +0.160 C 
ATOM     13  N   UNL     1       2.274  -0.340  -0.580  0.00  0.00    -0.323 N 
ATOM     14  C   UNL     1       2.739  -0.886  -1.783  0.00  0.00    +0.070 A 
ATOM     15  C   UNL     1       3.883  -0.614  -2.524  0.00  0.00    -0.025 A 
ATOM     16  C   UNL     1       4.094  -1.320  -3.700  0.00  0.00    +0.026 A 
ATOM     17  C   UNL     1       3.169  -2.265  -4.093  0.00  0.00    +0.015 A 
ATOM     18  N   UNL     1       2.091  -2.504  -3.372  0.00  0.00    -0.346 N 
ATOM     19  C   UNL     1       1.846  -1.854  -2.240  0.00  0.00    +0.123 A 
ATOM     20  N   UNL     1       0.775  -1.965  -1.351  0.00  0.00    -0.290 N 
ATOM     21  C   UNL     1       3.393  -3.036  -5.369  0.00  0.00    +0.063 C 
ATOM     22  C   UNL     1       4.871   0.426  -2.061  0.00  0.00    +0.046 C 
ATOM     23  H   UNL     1       2.708   0.352  -0.056  0.00  0.00    +0.148 HD
ATOM     24  H   UNL     1       1.459  -3.174  -3.676  0.00  0.00    +0.167 HD
BRANCH  12  26
ATOM     25  C   UNL     1       1.088  -0.731   2.220  0.00  0.00    +0.007 C 
ATOM     26  C   UNL     1       1.119  -1.745   1.074  0.00  0.00    +0.039 C 
ENDBRANCH  12  26
ENDBRANCH   1  20
BRANCH  10  27
ATOM     27  C   UNL     1       0.348  -6.283  -6.065  0.00  0.00    -0.007 A 
ATOM     28  C   UNL     1       1.482  -6.156  -6.863  0.00  0.00    +0.009 A 
ATOM     29  C   UNL     1       1.649  -6.976  -7.961  0.00  0.00    +0.001 A 
ATOM     30  C   UNL     1       0.694  -7.927  -8.277  0.00  0.00    +0.001 A 
ATOM     31  C   UNL     1      -0.436  -8.068  -7.497  0.00  0.00    +0.012 A 
ATOM     32  C   UNL     1      -0.618  -7.253  -6.381  0.00  0.00    +0.030 A 
BRANCH  32  33
ATOM     33  C   UNL     1      -1.824  -7.403  -5.540  0.00  0.00    +0.207 A 
ATOM     34  N   UNL     1      -2.136  -6.690  -4.455  0.00  0.00    -0.106 NA
ATOM     35  N   UNL     1      -3.264  -7.130  -4.013  0.00  0.00    -0.021 NA
ATOM     36  N   UNL     1      -3.674  -8.085  -4.771  0.00  0.00    -0.021 NA
ATOM     37  N   UNL     1      -2.819  -8.275  -5.718  0.00  0.00    -0.106 NA
ENDBRANCH  32  33
ENDBRANCH  10  27
TORSDOF 4
