REMARK  Name = ZINC57819997
REMARK  12 active torsions:
REMARK  status: ('A' for Active; 'I' for Inactive)
REMARK    1  A    between atoms: C_1  and  C_2
REMARK    2  A    between atoms: C_5  and  S_8
REMARK    3  A    between atoms: S_8  and  N_11
REMARK    4  A    between atoms: N_11  and  C_12
REMARK    5  A    between atoms: C_12  and  C_13
REMARK    6  A    between atoms: C_13  and  N_14
REMARK    7  A    between atoms: N_17  and  C_18
REMARK    8  A    between atoms: C_18  and  C_19
REMARK    9  A    between atoms: C_19  and  N_27
REMARK   10  A    between atoms: C_23  and  C_26
REMARK   11  A    between atoms: N_27  and  C_28
REMARK   12  A    between atoms: N_27  and  C_29
REMARK                            x       y       z     vdW  Elec       q    Type
REMARK                         _______ _______ _______ _____ _____    ______ ____
ROOT
ATOM      1  N   UNL     1       4.413  -5.173   2.464  0.00  0.00    -0.298 N 
ATOM      2  C   UNL     1       5.593  -5.819   2.542  0.00  0.00    +0.300 C 
ATOM      3  O   UNL     1       5.894  -6.640   1.697  0.00  0.00    -0.253 OA
ATOM      4  N   UNL     1       6.440  -5.556   3.558  0.00  0.00    -0.301 N 
ATOM      5  H   UNL     1       4.173  -4.518   3.139  0.00  0.00    +0.150 HD
ATOM      6  H   UNL     1       6.200  -4.902   4.232  0.00  0.00    +0.150 HD
ENDROOT
BRANCH   1   7
ATOM      7  C   UNL     1       3.493  -5.459   1.361  0.00  0.00    +0.122 C 
BRANCH   7   8
ATOM      8  C   UNL     1       2.237  -4.597   1.507  0.00  0.00    +0.124 C 
BRANCH   8   9
ATOM      9  N   UNL     1       1.317  -4.883   0.403  0.00  0.00    -0.188 NA
ATOM     10  H   UNL     1       1.633  -5.362  -0.379  0.00  0.00    +0.148 HD
BRANCH   9  11
ATOM     11  S   UNL     1      -0.261  -4.388   0.492  0.00  0.00    +0.058 S 
ATOM     12  O   UNL     1      -0.745  -4.800   1.762  0.00  0.00    -0.153 OA
ATOM     13  O   UNL     1      -0.879  -4.785  -0.725  0.00  0.00    -0.153 OA
BRANCH  11  18
ATOM     14  C   UNL     1      -0.243   1.645   0.528  0.00  0.00    +0.044 C 
ATOM     15  C   UNL     1      -0.247   0.138   0.519  0.00  0.00    -0.050 A 
ATOM     16  C   UNL     1      -0.313  -0.545  -0.681  0.00  0.00    +0.005 A 
ATOM     17  C   UNL     1      -0.317  -1.928  -0.689  0.00  0.00    +0.029 A 
ATOM     18  C   UNL     1      -0.255  -2.626   0.502  0.00  0.00    +0.105 A 
ATOM     19  C   UNL     1      -0.188  -1.943   1.702  0.00  0.00    +0.029 A 
ATOM     20  C   UNL     1      -0.180  -0.560   1.710  0.00  0.00    +0.005 A 
ENDBRANCH  11  18
ENDBRANCH   9  11
ENDBRANCH   8   9
ENDBRANCH   7   8
ENDBRANCH   1   7
BRANCH   4  21
ATOM     21  C   UNL     1       7.722  -6.259   3.643  0.00  0.00    +0.094 C 
BRANCH  21  22
ATOM     22  C   UNL     1       8.546  -5.679   4.794  0.00  0.00    -0.050 C 
ATOM     23  C   UNL     1       9.934  -6.322   4.802  0.00  0.00    -0.010 C 
ATOM     24  C   UNL     1       9.795  -7.834   4.986  0.00  0.00    -0.001 C 
ATOM     25  C   UNL     1       9.091  -8.124   6.313  0.00  0.00    +0.003 C 
ATOM     26  C   UNL     1       7.703  -7.481   6.305  0.00  0.00    -0.015 C 
ATOM     27  C   UNL     1       7.842  -5.968   6.121  0.00  0.00    -0.007 C 
ATOM     28  C   UNL     1       6.998  -7.770   7.632  0.00  0.00    +0.007 C 
BRANCH  22  29
ATOM     29  N   UNL     1       8.680  -4.227   4.617  0.00  0.00    +0.381 N 
ATOM     30  C   UNL     1       9.501  -3.675   5.704  0.00  0.00    -0.096 C 
ATOM     31  C   UNL     1       9.325  -3.948   3.327  0.00  0.00    -0.096 C 
ATOM     32  H   UNL     1       7.766  -3.800   4.636  0.00  0.00    -0.082 HD
ENDBRANCH  22  29
ENDBRANCH  21  22
ENDBRANCH   4  21
TORSDOF 8
