REMARK  Name = ZINC55887874
REMARK  6 active torsions:
REMARK  status: ('A' for Active; 'I' for Inactive)
REMARK    1  A    between atoms: C_1  and  C_2
REMARK    2  A    between atoms: C_15  and  C_17
REMARK    3  A    between atoms: C_17  and  N_18
REMARK    4  A    between atoms: N_18  and  C_19
REMARK    5  A    between atoms: C_24  and  N_25
REMARK    6  A    between atoms: C_28  and  O_31
REMARK                            x       y       z     vdW  Elec       q    Type
REMARK                         _______ _______ _______ _____ _____    ______ ____
ROOT
ATOM      1  C   UNL     1       0.758  -1.497   3.449  0.00  0.00    +0.198 C 
ENDROOT
BRANCH   1  15
ATOM      2  C   UNL     1      -0.038   1.443  -0.040  0.00  0.00    +0.029 C 
ATOM      3  C   UNL     1      -0.004  -0.086  -0.032  0.00  0.00    +0.087 C 
ATOM      4  C   UNL     1       0.716  -0.586  -1.285  0.00  0.00    +0.118 C 
ATOM      5  C   UNL     1       1.110  -2.029  -1.116  0.00  0.00    +0.219 C 
ATOM      6  O   UNL     1       0.481  -2.896  -1.685  0.00  0.00    -0.275 OA
ATOM      7  N   UNL     1       2.159  -2.365  -0.334  0.00  0.00    -0.284 N 
ATOM      8  C   UNL     1       2.835  -1.386   0.404  0.00  0.00    +0.055 A 
ATOM      9  C   UNL     1       4.217  -1.297   0.368  0.00  0.00    +0.025 A 
ATOM     10  C   UNL     1       4.864  -0.338   1.125  0.00  0.00    +0.002 A 
ATOM     11  C   UNL     1       4.137   0.532   1.917  0.00  0.00    +0.002 A 
ATOM     12  C   UNL     1       2.757   0.456   1.951  0.00  0.00    +0.025 A 
ATOM     13  C   UNL     1       2.101  -0.495   1.188  0.00  0.00    +0.058 A 
ATOM     14  N   UNL     1       0.702  -0.551   1.164  0.00  0.00    -0.265 N 
ATOM     15  C   UNL     1       0.018  -1.023   2.225  0.00  0.00    +0.237 C 
ATOM     16  O   UNL     1      -1.194  -1.066   2.195  0.00  0.00    -0.274 OA
ATOM     17  H   UNL     1       2.447  -3.290  -0.284  0.00  0.00    +0.155 HD
ENDBRANCH   1  15
BRANCH   1  18
ATOM     18  N   UNL     1      -0.203  -1.958   4.453  0.00  0.00    -0.334 N 
ATOM     19  H   UNL     1      -1.154  -1.924   4.266  0.00  0.00    +0.147 HD
BRANCH  18  20
ATOM     20  C   UNL     1       0.250  -2.448   5.681  0.00  0.00    +0.047 A 
ATOM     21  C   UNL     1       1.611  -2.609   5.906  0.00  0.00    +0.025 A 
ATOM     22  C   UNL     1       2.056  -3.092   7.121  0.00  0.00    +0.002 A 
ATOM     23  C   UNL     1       1.148  -3.416   8.112  0.00  0.00    +0.002 A 
ATOM     24  C   UNL     1      -0.208  -3.257   7.891  0.00  0.00    +0.023 A 
ATOM     25  C   UNL     1      -0.659  -2.768   6.680  0.00  0.00    +0.035 A 
BRANCH  25  26
ATOM     26  N   UNL     1      -2.030  -2.602   6.460  0.00  0.00    -0.392 NA
ATOM     27  C   UNL     1      -2.719  -3.878   6.688  0.00  0.00    +0.087 C 
ATOM     28  C   UNL     1      -4.207  -3.722   6.369  0.00  0.00    +0.048 C 
ATOM     29  C   UNL     1      -4.808  -2.646   7.278  0.00  0.00    +0.117 C 
ATOM     30  C   UNL     1      -4.034  -1.339   7.086  0.00  0.00    +0.048 C 
ATOM     31  C   UNL     1      -2.551  -1.583   7.378  0.00  0.00    +0.087 C 
ATOM     32  H   UNL     1      -2.182  -2.305   5.507  0.00  0.00    +0.126 HD
BRANCH  29  33
ATOM     33  O   UNL     1      -6.180  -2.443   6.935  0.00  0.00    -0.392 OA
ATOM     34  H   UNL     1      -6.625  -1.773   7.472  0.00  0.00    +0.210 HD
ENDBRANCH  29  33
ENDBRANCH  25  26
ENDBRANCH  18  20
ENDBRANCH   1  18
TORSDOF 5
