REMARK  Name = ZINC02492684
REMARK  2 active torsions:
REMARK  status: ('A' for Active; 'I' for Inactive)
REMARK    1  A    between atoms: C_11  and  C_16
REMARK    2  A    between atoms: C_19  and  N_22
REMARK                            x       y       z     vdW  Elec       q    Type
REMARK                         _______ _______ _______ _____ _____    ______ ____
ROOT
ATOM      1  C   UNL     1       1.189  -0.690  -0.012  0.00  0.00    +0.001 A 
ATOM      2  C   UNL     1       2.405  -0.023  -0.020  0.00  0.00    +0.001 A 
ATOM      3  C   UNL     1       2.421   1.359  -0.013  0.00  0.00    +0.016 A 
ATOM      4  C   UNL     1       1.233   2.056   0.001  0.00  0.00    +0.022 A 
ATOM      5  C   UNL     1      -0.017   1.408   0.010  0.00  0.00    +0.003 A 
ATOM      6  C   UNL     1       0.002  -0.004   0.002  0.00  0.00    +0.010 A 
ATOM      7  C   UNL     1      -1.187   2.295   0.032  0.00  0.00    +0.073 A 
ATOM      8  C   UNL     1      -0.923   3.668   0.028  0.00  0.00    +0.080 A 
ATOM      9  S   UNL     1       0.836   3.788   0.012  0.00  0.00    -0.073 S 
ATOM     10  N   UNL     1      -1.901   4.623   0.037  0.00  0.00    -0.316 N 
ATOM     11  C   UNL     1      -3.215   4.204   0.562  0.00  0.00    +0.190 C 
ATOM     12  N   UNL     1      -3.506   2.825   0.181  0.00  0.00    -0.289 N 
ATOM     13  C   UNL     1      -2.560   1.877   0.035  0.00  0.00    +0.249 C 
ATOM     14  O   UNL     1      -2.860   0.703  -0.088  0.00  0.00    -0.270 OA
ATOM     15  H   UNL     1      -1.741   5.524  -0.284  0.00  0.00    +0.149 HD
ATOM     16  H   UNL     1      -4.431   2.577   0.025  0.00  0.00    +0.151 HD
ENDROOT
BRANCH  11  17
ATOM     17  C   UNL     1      -3.206   4.312   2.065  0.00  0.00    -0.009 A 
ATOM     18  C   UNL     1      -2.414   5.260   2.685  0.00  0.00    +0.009 A 
ATOM     19  C   UNL     1      -2.410   5.363   4.064  0.00  0.00    +0.033 A 
ATOM     20  C   UNL     1      -3.190   4.511   4.823  0.00  0.00    +0.126 A 
ATOM     21  C   UNL     1      -3.978   3.559   4.203  0.00  0.00    +0.033 A 
ATOM     22  C   UNL     1      -3.986   3.460   2.824  0.00  0.00    +0.009 A 
BRANCH  20  23
ATOM     23  N   UNL     1      -3.182   4.617   6.299  0.00  0.00    +0.056 N 
ATOM     24  O   UNL     1      -3.869   3.866   6.968  0.00  0.00    -0.126 OA
ATOM     25  O   UNL     1      -2.487   5.456   6.845  0.00  0.00    -0.126 OA
ENDBRANCH  20  23
ENDBRANCH  11  17
TORSDOF 2
