REMARK  Name = ZINC40986754
REMARK  13 active torsions:
REMARK  status: ('A' for Active; 'I' for Inactive)
REMARK    1  A    between atoms: C_1  and  C_2
REMARK    2  A    between atoms: C_2  and  C_3
REMARK    3  A    between atoms: C_3  and  C_4
REMARK    4  A    between atoms: C_4  and  S_5
REMARK    5  A    between atoms: S_5  and  C_6
REMARK    6  A    between atoms: C_11  and  C_20
REMARK    7  A    between atoms: C_13  and  C_17
REMARK    8  A    between atoms: C_14  and  C_16
REMARK    9  A    between atoms: C_23  and  O_28
REMARK   10  A    between atoms: C_24  and  O_26
REMARK   11  A    between atoms: O_26  and  C_27
REMARK   12  A    between atoms: O_28  and  C_29
REMARK   13  A    between atoms: C_29  and  C_30
REMARK                            x       y       z     vdW  Elec       q    Type
REMARK                         _______ _______ _______ _____ _____    ______ ____
ROOT
ATOM      1  C   UNL     1       1.849  -4.399   2.161  0.00  0.00    +0.210 A 
ATOM      2  N   UNL     1       1.234  -5.141   1.228  0.00  0.00    -0.187 NA
ATOM      3  C   UNL     1       1.256  -6.397   1.585  0.00  0.00    +0.219 A 
ATOM      4  N   UNL     1       1.902  -6.485   2.774  0.00  0.00    -0.220 N 
ATOM      5  N   UNL     1       2.276  -5.189   3.123  0.00  0.00    -0.141 NA
ATOM      6  C   UNL     1       2.127  -7.744   3.479  0.00  0.00    +0.177 C 
ATOM      7  C   UNL     1       1.293  -8.828   2.849  0.00  0.00    +0.060 C 
ATOM      8  C   UNL     1       0.673  -8.682   1.670  0.00  0.00    +0.018 C 
ATOM      9  N   UNL     1       0.742  -7.517   0.946  0.00  0.00    -0.287 N 
ATOM     10  C   UNL     1      -0.128  -9.834   1.120  0.00  0.00    +0.061 C 
ATOM     11  H   UNL     1       0.445  -7.478   0.024  0.00  0.00    +0.155 HD
ENDROOT
BRANCH   6  12
ATOM     12  C   UNL     1       3.585  -8.116   3.391  0.00  0.00    -0.015 A 
ATOM     13  C   UNL     1       4.173  -8.309   2.155  0.00  0.00    +0.010 A 
ATOM     14  C   UNL     1       5.510  -8.650   2.068  0.00  0.00    +0.050 A 
ATOM     15  C   UNL     1       6.263  -8.799   3.221  0.00  0.00    +0.162 A 
ATOM     16  C   UNL     1       5.671  -8.604   4.465  0.00  0.00    +0.162 A 
ATOM     17  C   UNL     1       4.332  -8.258   4.545  0.00  0.00    +0.055 A 
BRANCH  16  18
ATOM     18  O   UNL     1       6.406  -8.749   5.600  0.00  0.00    -0.491 OA
ATOM     19  C   UNL     1       5.732  -8.533   6.842  0.00  0.00    +0.277 C 
ENDBRANCH  16  18
BRANCH  15  20
ATOM     20  O   UNL     1       7.579  -9.135   3.138  0.00  0.00    -0.484 OA
BRANCH  20  21
ATOM     21  C   UNL     1       8.119  -9.320   1.828  0.00  0.00    +0.267 C 
BRANCH  21  22
ATOM     22  C   UNL     1       9.577  -9.685   1.933  0.00  0.00    +0.025 A 
ATOM     23  C   UNL     1      10.174  -9.797   3.175  0.00  0.00    +0.010 A 
ATOM     24  C   UNL     1      11.512 -10.132   3.271  0.00  0.00    +0.001 A 
ATOM     25  C   UNL     1      12.254 -10.355   2.127  0.00  0.00    +0.003 A 
ATOM     26  C   UNL     1      11.659 -10.245   0.884  0.00  0.00    +0.039 A 
ATOM     27  C   UNL     1      10.318  -9.914   0.786  0.00  0.00    +0.130 A 
ATOM     28  F   UNL     1       9.734  -9.810  -0.428  0.00  0.00    -0.205 F 
ENDBRANCH  21  22
ENDBRANCH  20  21
ENDBRANCH  15  20
ENDBRANCH   6  12
BRANCH   7  29
ATOM     29  C   UNL     1       1.159 -10.059   3.534  0.00  0.00    +0.241 C 
ATOM     30  O   UNL     1       0.352 -10.167   4.440  0.00  0.00    -0.271 OA
ATOM     31  N   UNL     1       1.923 -11.112   3.183  0.00  0.00    -0.325 N 
ATOM     32  H   UNL     1       2.565 -11.027   2.461  0.00  0.00    +0.145 HD
ATOM     33  H   UNL     1       1.831 -11.956   3.652  0.00  0.00    +0.145 HD
ENDBRANCH   7  29
BRANCH   1  34
ATOM     34  S   UNL     1       2.058  -2.651   2.103  0.00  0.00    -0.084 S 
BRANCH  34  35
ATOM     35  C   UNL     1       1.260  -2.165   0.548  0.00  0.00    +0.077 C 
BRANCH  35  36
ATOM     36  C   UNL     1       1.371  -0.649   0.371  0.00  0.00    +0.011 C 
BRANCH  36  38
ATOM     37  C   UNL     1       0.809   1.277  -1.118  0.00  0.00    +0.004 C 
ATOM     38  C   UNL     1       0.698  -0.239  -0.941  0.00  0.00    -0.003 C 
ENDBRANCH  36  38
ENDBRANCH  35  36
ENDBRANCH  34  35
ENDBRANCH   1  34
TORSDOF 10
