REMARK  Name = ZINC13501249
REMARK  9 active torsions:
REMARK  status: ('A' for Active; 'I' for Inactive)
REMARK    1  A    between atoms: C_1  and  C_2
REMARK    2  A    between atoms: C_9  and  C_14
REMARK    3  A    between atoms: C_14  and  N_67
REMARK    4  A    between atoms: C_15  and  C_16
REMARK    5  A    between atoms: C_15  and  N_67
REMARK    6  A    between atoms: C_16  and  O_17
REMARK    7  A    between atoms: C_18  and  C_24
REMARK    8  A    between atoms: C_18  and  N_67
REMARK    9  A    between atoms: N_28  and  C_29
REMARK                            x       y       z     vdW  Elec       q    Type
REMARK                         _______ _______ _______ _____ _____    ______ ____
ROOT
ATOM      1  N   UNL     1       0.861  -2.501   1.384  0.00  0.00    +0.393 N 
ATOM      2  H   UNL     1      -0.160  -2.588   1.324  0.00  0.00    -0.080 HD
ENDROOT
BRANCH   1   3
ATOM      3  C   UNL     1       1.430  -3.801   1.796  0.00  0.00    -0.002 C 
ATOM      4  C   UNL     1       0.893  -4.892   0.866  0.00  0.00    -0.004 C 
ATOM      5  C   UNL     1      -0.634  -4.925   0.948  0.00  0.00    -0.001 C 
ATOM      6  C   UNL     1      -1.062  -5.225   2.386  0.00  0.00    -0.000 C 
ATOM      7  C   UNL     1      -0.525  -4.134   3.315  0.00  0.00    -0.001 C 
ATOM      8  C   UNL     1       1.002  -4.101   3.234  0.00  0.00    -0.004 C 
BRANCH   3   9
ATOM      9  C   UNL     1       2.935  -3.769   1.716  0.00  0.00    +0.141 A 
ATOM     10  N   UNL     1       3.676  -2.756   1.337  0.00  0.00    -0.115 NA
ATOM     11  N   UNL     1       4.911  -3.119   1.407  0.00  0.00    -0.023 NA
ATOM     12  N   UNL     1       4.975  -4.340   1.812  0.00  0.00    -0.044 NA
ATOM     13  N   UNL     1       3.777  -4.775   2.013  0.00  0.00    -0.228 N 
BRANCH  13  14
ATOM     14  C   UNL     1       3.405  -6.114   2.478  0.00  0.00    +0.111 C 
ATOM     15  C   UNL     1       4.068  -6.404   3.840  0.00  0.00    +0.027 C 
ATOM     16  C   UNL     1       4.440  -7.906   3.768  0.00  0.00    +0.002 C 
ATOM     17  C   UNL     1       4.893  -8.077   2.297  0.00  0.00    +0.002 C 
ATOM     18  C   UNL     1       3.929  -7.177   1.497  0.00  0.00    +0.027 C 
ENDBRANCH  13  14
ENDBRANCH   3   9
ENDBRANCH   1   3
BRANCH   1  19
ATOM     19  C   UNL     1       1.197  -1.464   2.381  0.00  0.00    -0.036 C 
BRANCH  19  28
ATOM     20  C   UNL     1      -4.702   3.025   3.203  0.00  0.00    +0.044 C 
ATOM     21  C   UNL     1      -3.372   2.705   2.571  0.00  0.00    -0.050 A 
ATOM     22  C   UNL     1      -2.817   3.586   1.653  0.00  0.00    +0.005 A 
ATOM     23  C   UNL     1      -1.601   3.314   1.063  0.00  0.00    +0.026 A 
ATOM     24  C   UNL     1      -0.922   2.145   1.390  0.00  0.00    +0.049 A 
ATOM     25  C   UNL     1      -1.488   1.253   2.320  0.00  0.00    -0.001 A 
ATOM     26  C   UNL     1      -2.723   1.550   2.907  0.00  0.00    +0.013 A 
ATOM     27  C   UNL     1      -0.766   0.025   2.657  0.00  0.00    +0.017 A 
ATOM     28  C   UNL     1       0.427  -0.209   2.057  0.00  0.00    +0.001 A 
ATOM     29  C   UNL     1       0.951   0.717   1.130  0.00  0.00    +0.251 A 
ATOM     30  O   UNL     1       2.025   0.487   0.602  0.00  0.00    -0.268 OA
ATOM     31  N   UNL     1       0.295   1.848   0.815  0.00  0.00    -0.322 N 
ATOM     32  H   UNL     1       0.686   2.465   0.177  0.00  0.00    +0.169 HD
ENDBRANCH  19  28
ENDBRANCH   1  19
BRANCH   1  33
ATOM     33  C   UNL     1       1.388  -2.116   0.058  0.00  0.00    -0.049 C 
BRANCH  33  34
ATOM     34  C   UNL     1       0.491  -2.728  -1.020  0.00  0.00    +0.137 C 
BRANCH  34  35
ATOM     35  O   UNL     1      -0.855  -2.290  -0.825  0.00  0.00    -0.397 OA
ATOM     36  H   UNL     1      -1.480  -2.640  -1.474  0.00  0.00    +0.209 HD
ENDBRANCH  34  35
ENDBRANCH  33  34
ENDBRANCH   1  33
TORSDOF 8
