REMARK  Name = ZINC20830342
REMARK  9 active torsions:
REMARK  status: ('A' for Active; 'I' for Inactive)
REMARK    1  A    between atoms: C_5  and  C_7
REMARK    2  A    between atoms: C_10  and  S_13
REMARK    3  A    between atoms: N_11  and  N_12
REMARK    4  A    between atoms: S_13  and  C_14
REMARK    5  A    between atoms: C_14  and  C_15
REMARK    6  A    between atoms: C_15  and  C_16
REMARK    7  A    between atoms: N_18  and  C_19
REMARK    8  A    between atoms: C_22  and  O_25
REMARK    9  A    between atoms: O_25  and  C_26
REMARK                            x       y       z     vdW  Elec       q    Type
REMARK                         _______ _______ _______ _____ _____    ______ ____
ROOT
ATOM      1  C   UNL     1       0.002  -1.727  -3.708  0.00  0.00    +0.086 C 
ENDROOT
BRANCH   1   2
ATOM      2  S   UNL     1      -0.013  -0.074  -2.971  0.00  0.00    -0.084 S 
BRANCH   2   6
ATOM      3  C   UNL     1       0.981  -0.353   0.798  0.00  0.00    +0.183 A 
ATOM      4  N   UNL     1       1.034  -1.600   0.393  0.00  0.00    -0.127 NA
ATOM      5  N   UNL     1       0.731  -1.670  -0.854  0.00  0.00    -0.121 NA
ATOM      6  C   UNL     1       0.459  -0.472  -1.320  0.00  0.00    +0.209 A 
ATOM      7  N   UNL     1       0.615   0.409  -0.288  0.00  0.00    -0.224 N 
BRANCH   3  12
ATOM      8  C   UNL     1       0.649   1.487   4.055  0.00  0.00    +0.001 A 
ATOM      9  C   UNL     1       1.786   1.064   4.721  0.00  0.00    +0.001 A 
ATOM     10  C   UNL     1       2.662   0.182   4.115  0.00  0.00    +0.016 A 
ATOM     11  C   UNL     1       2.404  -0.287   2.842  0.00  0.00    +0.029 A 
ATOM     12  C   UNL     1       1.261   0.140   2.163  0.00  0.00    +0.035 A 
ATOM     13  C   UNL     1       0.382   1.030   2.781  0.00  0.00    +0.013 A 
ATOM     14 BR   UNL     1       3.600  -1.498   2.017  0.00  0.00    -0.050 Br
ENDBRANCH   3  12
BRANCH   7  15
ATOM     15  N   UNL     1       0.438   1.763  -0.324  0.00  0.00    -0.295 N 
ATOM     16  H   UNL     1       0.142   2.254  -1.263  0.00  0.00    +0.163 HD
ATOM     17  H   UNL     1       0.591   2.362   0.585  0.00  0.00    +0.163 HD
ENDBRANCH   7  15
ENDBRANCH   2   6
ENDBRANCH   1   2
BRANCH   1  18
ATOM     18  C   UNL     1      -0.388  -1.630  -5.185  0.00  0.00    +0.107 C 
BRANCH  18  19
ATOM     19  C   UNL     1      -0.375  -3.006  -5.799  0.00  0.00    +0.218 C 
ATOM     20  O   UNL     1      -0.082  -3.970  -5.123  0.00  0.00    -0.275 OA
ATOM     21  N   UNL     1      -0.689  -3.167  -7.100  0.00  0.00    -0.285 N 
ATOM     22  H   UNL     1      -0.872  -2.287  -7.734  0.00  0.00    +0.155 HD
BRANCH  21  23
ATOM     23  C   UNL     1      -0.782  -4.454  -7.645  0.00  0.00    +0.034 A 
ATOM     24  C   UNL     1      -0.427  -4.676  -8.969  0.00  0.00    +0.027 A 
ATOM     25  C   UNL     1      -0.514  -5.946  -9.503  0.00  0.00    +0.048 A 
ATOM     26  C   UNL     1      -0.968  -6.998  -8.721  0.00  0.00    +0.130 A 
ATOM     27  C   UNL     1      -1.328  -6.777  -7.400  0.00  0.00    +0.048 A 
ATOM     28  C   UNL     1      -1.236  -5.508  -6.863  0.00  0.00    +0.027 A 
BRANCH  26  29
ATOM     29  O   UNL     1      -1.059  -8.248  -9.250  0.00  0.00    -0.406 OA
BRANCH  29  30
ATOM     30  C   UNL     1      -0.671  -8.403 -10.617  0.00  0.00    +0.575 C 
ATOM     31  F   UNL     1       0.668  -8.028 -10.767  0.00  0.00    -0.133 F 
ATOM     32  F   UNL     1      -0.826  -9.741 -10.996  0.00  0.00    -0.133 F 
ATOM     33  F   UNL     1      -1.476  -7.593 -11.425  0.00  0.00    -0.133 F 
ENDBRANCH  29  30
ENDBRANCH  26  29
ENDBRANCH  21  23
ENDBRANCH  18  19
ENDBRANCH   1  18
TORSDOF 9
