REMARK  Name = ZINC56014480
REMARK  7 active torsions:
REMARK  status: ('A' for Active; 'I' for Inactive)
REMARK    1  A    between atoms: C_1  and  C_2
REMARK    2  A    between atoms: C_4  and  C_33
REMARK    3  A    between atoms: C_6  and  N_8
REMARK    4  A    between atoms: C_11  and  C_15
REMARK    5  A    between atoms: N_17  and  C_18
REMARK    6  A    between atoms: C_18  and  C_20
REMARK    7  A    between atoms: C_18  and  C_21
REMARK                            x       y       z     vdW  Elec       q    Type
REMARK                         _______ _______ _______ _____ _____    ______ ____
ROOT
ATOM      1  C   UNL     1      -1.037  -5.605   4.212  0.00  0.00    +0.225 C 
ATOM      2  O   UNL     1      -1.962  -5.357   4.957  0.00  0.00    -0.275 OA
ATOM      3  N   UNL     1      -0.948  -6.816   3.627  0.00  0.00    -0.308 N 
ATOM      4  H   UNL     1      -0.209  -7.014   3.031  0.00  0.00    +0.149 HD
ENDROOT
BRANCH   1   8
ATOM      5  N   UNL     1       0.052  -2.797   2.393  0.00  0.00    -0.271 N 
ATOM      6  C   UNL     1       0.149  -2.174   3.718  0.00  0.00    +0.115 C 
ATOM      7  C   UNL     1      -0.303  -3.260   4.719  0.00  0.00    +0.041 C 
ATOM      8  C   UNL     1       0.012  -4.558   3.940  0.00  0.00    +0.162 C 
ATOM      9  C   UNL     1      -0.027  -4.136   2.487  0.00  0.00    +0.232 C 
ATOM     10  O   UNL     1      -0.114  -4.895   1.546  0.00  0.00    -0.274 OA
BRANCH   5  16
ATOM     11  C   UNL     1      -0.048   1.502   0.010  0.00  0.00    +0.044 C 
ATOM     12  C   UNL     1      -0.012  -0.004   0.002  0.00  0.00    -0.048 A 
ATOM     13  C   UNL     1       0.006  -0.688  -1.200  0.00  0.00    +0.006 A 
ATOM     14  C   UNL     1       0.039  -2.071  -1.212  0.00  0.00    -0.048 A 
ATOM     15  C   UNL     1       0.055  -2.773  -0.022  0.00  0.00    +0.027 A 
ATOM     16  C   UNL     1       0.037  -2.089   1.186  0.00  0.00    +0.037 A 
ATOM     17  C   UNL     1       0.009  -0.701   1.195  0.00  0.00    +0.027 A 
ATOM     18  C   UNL     1       0.058  -2.812  -2.524  0.00  0.00    +0.044 C 
ENDBRANCH   5  16
ENDBRANCH   1   8
BRANCH   3  19
ATOM     19  C   UNL     1      -1.968  -7.833   3.892  0.00  0.00    +0.100 C 
ATOM     20  C   UNL     1      -3.153  -7.626   2.946  0.00  0.00    +0.033 C 
BRANCH  19  21
ATOM     21  C   UNL     1      -1.381  -9.203   3.668  0.00  0.00    -0.025 A 
ATOM     22  C   UNL     1      -0.521  -9.419   2.606  0.00  0.00    +0.007 A 
ATOM     23  C   UNL     1       0.023 -10.671   2.393  0.00  0.00    +0.028 A 
ATOM     24  C   UNL     1      -0.295 -11.716   3.248  0.00  0.00    +0.067 A 
ATOM     25  C   UNL     1      -1.163 -11.498   4.319  0.00  0.00    +0.067 A 
ATOM     26  C   UNL     1      -1.699 -10.236   4.528  0.00  0.00    +0.033 A 
ATOM     27  N   UNL     1      -1.289 -12.713   4.989  0.00  0.00    -0.306 N 
ATOM     28  H   UNL     1      -1.830 -12.873   5.778  0.00  0.00    +0.170 HD
ATOM     29  C   UNL     1      -0.533 -13.628   4.354  0.00  0.00    +0.325 A 
ATOM     30  O   UNL     1      -0.420 -14.794   4.682  0.00  0.00    -0.247 OA
ATOM     31  N   UNL     1       0.079 -13.057   3.299  0.00  0.00    -0.306 N 
ATOM     32  H   UNL     1       0.678 -13.503   2.681  0.00  0.00    +0.170 HD
ENDBRANCH  19  21
ENDBRANCH   3  19
TORSDOF 4
