REMARK  Name = ZINC04288544
REMARK  3 active torsions:
REMARK  status: ('A' for Active; 'I' for Inactive)
REMARK    1  A    between atoms: C_6  and  N_7
REMARK    2  A    between atoms: N_7  and  N_8
REMARK    3  A    between atoms: C_9  and  C_10
REMARK                            x       y       z     vdW  Elec       q    Type
REMARK                         _______ _______ _______ _____ _____    ______ ____
ROOT
ATOM      1  N   UNL     1       2.364   4.196  -0.145  0.00  0.00    -0.190 NA
ATOM      2  C   UNL     1       2.353   5.493  -0.090  0.00  0.00    +0.138 C 
ENDROOT
BRANCH   2   3
ATOM      3  C   UNL     1       1.071   6.219  -0.074  0.00  0.00    +0.000 A 
ATOM      4  C   UNL     1       1.026   7.606  -0.270  0.00  0.00    +0.049 A 
ATOM      5  C   UNL     1      -0.197   8.245  -0.252  0.00  0.00    +0.131 A 
ATOM      6  N   UNL     1      -1.313   7.569  -0.045  0.00  0.00    -0.224 NA
ATOM      7  C   UNL     1      -1.315   6.262   0.149  0.00  0.00    +0.131 A 
ATOM      8  C   UNL     1      -0.138   5.543   0.142  0.00  0.00    +0.049 A 
ATOM      9 CL   UNL     1      -2.820   5.439   0.416  0.00  0.00    -0.062 Cl
ATOM     10 CL   UNL     1      -0.270   9.962  -0.499  0.00  0.00    -0.062 Cl
ENDBRANCH   2   3
BRANCH   1  11
ATOM     11  N   UNL     1       1.250   3.506  -0.640  0.00  0.00    -0.238 N 
ATOM     12  H   UNL     1       0.505   3.997  -1.022  0.00  0.00    +0.174 HD
BRANCH  11  18
ATOM     13  C   UNL     1       0.106   1.426  -1.077  0.00  0.00    +0.027 A 
ATOM     14  C   UNL     1       0.070   0.047  -1.022  0.00  0.00    +0.040 A 
ATOM     15  C   UNL     1       1.133  -0.654  -0.478  0.00  0.00    +0.124 A 
ATOM     16  C   UNL     1       2.235   0.027   0.013  0.00  0.00    +0.040 A 
ATOM     17  C   UNL     1       2.276   1.406  -0.039  0.00  0.00    +0.027 A 
ATOM     18  C   UNL     1       1.210   2.111  -0.586  0.00  0.00    +0.048 A 
ATOM     19  F   UNL     1       1.095  -2.003  -0.425  0.00  0.00    -0.205 F 
ENDBRANCH  11  18
ENDBRANCH   1  11
TORSDOF 3
