REMARK  Name = ZINC65026546
REMARK  7 active torsions:
REMARK  status: ('A' for Active; 'I' for Inactive)
REMARK    1  A    between atoms: C_1  and  C_2
REMARK    2  A    between atoms: C_7  and  C_8
REMARK    3  A    between atoms: C_10  and  S_21
REMARK    4  A    between atoms: C_12  and  C_14
REMARK    5  A    between atoms: S_21  and  C_22
REMARK    6  A    between atoms: C_22  and  C_23
REMARK    7  A    between atoms: N_25  and  C_26
REMARK                            x       y       z     vdW  Elec       q    Type
REMARK                         _______ _______ _______ _____ _____    ______ ____
ROOT
ATOM      1  C   UNL     1       0.228   1.171  -0.001  0.00  0.00    +0.044 C 
ATOM      2  C   UNL     1       0.218  -0.335   0.014  0.00  0.00    -0.045 A 
ATOM      3  C   UNL     1       0.165  -1.033  -1.171  0.00  0.00    +0.033 A 
ATOM      4  C   UNL     1       0.156  -2.437  -1.175  0.00  0.00    +0.090 A 
ATOM      5  C   UNL     1       0.200  -3.124   0.045  0.00  0.00    +0.090 A 
ATOM      6  C   UNL     1       0.254  -2.391   1.241  0.00  0.00    +0.033 A 
ATOM      7  C   UNL     1       0.268  -1.015   1.220  0.00  0.00    -0.045 A 
ATOM      8  C   UNL     1       0.332  -0.244   2.514  0.00  0.00    +0.044 C 
ATOM      9  N   UNL     1       0.195  -4.478   0.151  0.00  0.00    -0.243 NA
ATOM     10  C   UNL     1      -0.528  -5.283  -0.548  0.00  0.00    +0.081 C 
ATOM     11  C   UNL     1      -1.445  -4.771  -1.628  0.00  0.00    +0.118 C 
ATOM     12  C   UNL     1      -0.603  -4.085  -2.672  0.00  0.00    +0.055 C 
ATOM     13  N   UNL     1       0.104  -3.049  -2.385  0.00  0.00    -0.249 NA
ENDROOT
BRANCH  12  14
ATOM     14  C   UNL     1      -0.588  -4.610  -4.047  0.00  0.00    -0.003 A 
ATOM     15  C   UNL     1      -1.267  -5.793  -4.354  0.00  0.00    +0.011 A 
ATOM     16  C   UNL     1      -1.249  -6.279  -5.644  0.00  0.00    +0.020 A 
ATOM     17  C   UNL     1      -0.560  -5.599  -6.634  0.00  0.00    +0.041 A 
ATOM     18  C   UNL     1       0.116  -4.427  -6.337  0.00  0.00    +0.020 A 
ATOM     19  C   UNL     1       0.101  -3.926  -5.053  0.00  0.00    +0.011 A 
ATOM     20 CL   UNL     1      -0.542  -6.219  -8.256  0.00  0.00    -0.084 Cl
ENDBRANCH  12  14
BRANCH  10  21
ATOM     21  S   UNL     1      -0.442  -7.015  -0.236  0.00  0.00    -0.100 S 
BRANCH  21  22
ATOM     22  C   UNL     1       0.762  -7.159   1.113  0.00  0.00    +0.171 C 
BRANCH  22  23
ATOM     23  C   UNL     1       0.932  -8.610   1.482  0.00  0.00    +0.227 C 
ATOM     24  O   UNL     1       0.303  -9.463   0.893  0.00  0.00    -0.275 OA
ATOM     25  N   UNL     1       1.783  -8.960   2.467  0.00  0.00    -0.285 N 
ATOM     26  H   UNL     1       2.227  -8.274   2.990  0.00  0.00    +0.155 HD
BRANCH  25  27
ATOM     27  C   UNL     1       2.026 -10.313   2.735  0.00  0.00    +0.037 A 
ATOM     28  C   UNL     1       2.242 -10.735   4.040  0.00  0.00    +0.027 A 
ATOM     29  C   UNL     1       2.481 -12.069   4.306  0.00  0.00    +0.051 A 
ATOM     30  C   UNL     1       2.507 -12.991   3.272  0.00  0.00    +0.166 A 
ATOM     31  C   UNL     1       2.290 -12.571   1.961  0.00  0.00    +0.168 A 
ATOM     32  C   UNL     1       2.045 -11.234   1.697  0.00  0.00    +0.072 A 
ATOM     33  O   UNL     1       2.366 -13.657   1.137  0.00  0.00    -0.453 OA
ATOM     34  C   UNL     1       3.035 -14.675   1.904  0.00  0.00    +0.466 C 
ATOM     35  O   UNL     1       2.719 -14.340   3.268  0.00  0.00    -0.453 OA
ENDBRANCH  25  27
ENDBRANCH  22  23
ENDBRANCH  21  22
ENDBRANCH  10  21
TORSDOF 5
