REMARK  Name = ZINC59366472
REMARK  4 active torsions:
REMARK  status: ('A' for Active; 'I' for Inactive)
REMARK    1  A    between atoms: C_4  and  C_7
REMARK    2  A    between atoms: C_10  and  C_13
REMARK    3  A    between atoms: C_14  and  N_20
REMARK    4  A    between atoms: C_18  and  O_19
REMARK                            x       y       z     vdW  Elec       q    Type
REMARK                         _______ _______ _______ _____ _____    ______ ____
ROOT
ATOM      1  C   UNL     1       4.566  -0.143  -0.306  0.00  0.00    +0.124 C 
ATOM      2  N   UNL     1       5.854  -0.073  -0.472  0.00  0.00    -0.178 NA
ATOM      3  N   UNL     1       6.681  -1.172  -0.427  0.00  0.00    -0.250 N 
ATOM      4  C   UNL     1       6.003  -2.464  -0.174  0.00  0.00    +0.188 C 
ATOM      5  S   UNL     1       4.263  -1.881  -0.032  0.00  0.00    -0.075 S 
ATOM      6  H   UNL     1       7.641  -1.106  -0.553  0.00  0.00    +0.170 HD
ENDROOT
BRANCH   1  10
ATOM      7  C   UNL     1       1.741   3.027  -0.379  0.00  0.00    +0.000 A 
ATOM      8  C   UNL     1       3.082   3.296  -0.584  0.00  0.00    +0.001 A 
ATOM      9  C   UNL     1       4.005   2.271  -0.561  0.00  0.00    +0.010 A 
ATOM     10  C   UNL     1       3.583   0.960  -0.331  0.00  0.00    +0.008 A 
ATOM     11  C   UNL     1       2.228   0.697  -0.124  0.00  0.00    +0.010 A 
ATOM     12  C   UNL     1       1.315   1.731  -0.149  0.00  0.00    +0.001 A 
ENDBRANCH   1  10
BRANCH   4  13
ATOM     13  C   UNL     1       6.475  -3.088   1.113  0.00  0.00    +0.056 A 
ATOM     14  C   UNL     1       6.192  -4.413   1.384  0.00  0.00    +0.135 A 
ATOM     15  C   UNL     1       6.625  -4.986   2.565  0.00  0.00    +0.033 A 
ATOM     16  C   UNL     1       7.343  -4.236   3.478  0.00  0.00    +0.006 A 
ATOM     17  C   UNL     1       7.628  -2.911   3.212  0.00  0.00    +0.046 A 
ATOM     18  C   UNL     1       7.200  -2.335   2.025  0.00  0.00    +0.125 A 
BRANCH  14  19
ATOM     19  N   UNL     1       5.424  -5.219   0.409  0.00  0.00    +0.057 N 
ATOM     20  O   UNL     1       5.178  -6.379   0.644  0.00  0.00    -0.126 OA
ATOM     21  O   UNL     1       5.043  -4.717  -0.623  0.00  0.00    -0.126 OA
ENDBRANCH  14  19
BRANCH  18  22
ATOM     22  O   UNL     1       7.484  -1.033   1.759  0.00  0.00    -0.506 OA
ATOM     23  H   UNL     1       6.815  -0.411   2.077  0.00  0.00    +0.292 HD
ENDBRANCH  18  22
ENDBRANCH   4  13
TORSDOF 4
