REMARK  Name = ZINC38591927
REMARK  2 active torsions:
REMARK  status: ('A' for Active; 'I' for Inactive)
REMARK    1  A    between atoms: C_4  and  N_7
REMARK    2  A    between atoms: C_11  and  C_12
REMARK                            x       y       z     vdW  Elec       q    Type
REMARK                         _______ _______ _______ _____ _____    ______ ____
ROOT
ATOM      1  N   UNL     1       3.634  -0.649   0.299  0.00  0.00    -0.188 N 
ATOM      2  C   UNL     1       3.646  -1.999   0.319  0.00  0.00    +0.263 C 
ATOM      3  O   UNL     1       2.626  -2.635   0.501  0.00  0.00    -0.269 OA
ATOM      4  C   UNL     1       4.948  -2.679   0.111  0.00  0.00    +0.101 C 
ATOM      5  C   UNL     1       5.051  -4.027   0.115  0.00  0.00    +0.037 C 
ATOM      6  C   UNL     1       6.128  -1.812  -0.102  0.00  0.00    +0.276 C 
ATOM      7  O   UNL     1       7.350  -2.346  -0.300  0.00  0.00    -0.268 OA
ATOM      8  N   UNL     1       5.955  -0.505  -0.094  0.00  0.00    -0.123 NA
ATOM      9  C   UNL     1       4.759   0.052   0.093  0.00  0.00    +0.340 C 
ATOM     10  O   UNL     1       4.684   1.267   0.081  0.00  0.00    -0.250 OA
ENDROOT
BRANCH   5  11
ATOM     11  C   UNL     1       3.807  -4.878   0.120  0.00  0.00    +0.199 C 
ATOM     12  N   UNL     1       3.713  -5.624   1.382  0.00  0.00    -0.360 N 
ATOM     13  C   UNL     1       3.726  -6.892   1.088  0.00  0.00    +0.060 A 
ATOM     14  C   UNL     1       3.660  -8.108   1.909  0.00  0.00    +0.027 A 
ATOM     15  C   UNL     1       3.696  -9.317   1.312  0.00  0.00    +0.002 A 
ATOM     16  C   UNL     1       3.795  -9.471  -0.082  0.00  0.00    +0.002 A 
ATOM     17  C   UNL     1       3.862  -8.422  -0.926  0.00  0.00    +0.027 A 
ATOM     18  C   UNL     1       3.831  -7.055  -0.388  0.00  0.00    +0.060 A 
ATOM     19  N   UNL     1       3.878  -5.881  -0.949  0.00  0.00    -0.360 N 
ATOM     20  H   UNL     1       3.651  -5.242   2.271  0.00  0.00    +0.162 HD
ATOM     21  H   UNL     1       3.947  -5.702  -1.900  0.00  0.00    +0.162 HD
ENDBRANCH   5  11
BRANCH   1  25
ATOM     22  C   UNL     1       0.036   1.375   0.871  0.00  0.00    +0.000 A 
ATOM     23  C   UNL     1       0.426   1.008  -0.404  0.00  0.00    +0.002 A 
ATOM     24  C   UNL     1       1.618   0.337  -0.597  0.00  0.00    +0.024 A 
ATOM     25  C   UNL     1       2.425   0.032   0.491  0.00  0.00    +0.046 A 
ATOM     26  C   UNL     1       2.030   0.403   1.770  0.00  0.00    +0.024 A 
ATOM     27  C   UNL     1       0.837   1.073   1.956  0.00  0.00    +0.002 A 
ENDBRANCH   1  25
TORSDOF 2
