REMARK  Name = ZINC54201280
REMARK  10 active torsions:
REMARK  status: ('A' for Active; 'I' for Inactive)
REMARK    1  A    between atoms: C_1  and  C_2
REMARK    2  A    between atoms: C_2  and  C_3
REMARK    3  A    between atoms: C_2  and  C_4
REMARK    4  A    between atoms: C_2  and  C_5
REMARK    5  A    between atoms: C_8  and  C_11
REMARK    6  A    between atoms: C_19  and  C_32
REMARK    7  A    between atoms: C_22  and  C_24
REMARK    8  A    between atoms: C_27  and  O_30
REMARK    9  A    between atoms: O_30  and  C_31
REMARK   10  A    between atoms: C_37  and  O_38
REMARK                            x       y       z     vdW  Elec       q    Type
REMARK                         _______ _______ _______ _____ _____    ______ ____
ROOT
ATOM      1  C   UNL     1       2.692  -1.857  -4.726  0.00  0.00    +0.026 C 
ATOM      2  C   UNL     1       3.953  -1.433  -5.001  0.00  0.00    +0.057 C 
ATOM      3  C   UNL     1       4.796  -1.681  -6.187  0.00  0.00    +0.149 C 
ATOM      4  N   UNL     1       5.981  -1.146  -6.188  0.00  0.00    -0.153 NA
ATOM      5  C   UNL     1       6.430  -0.402  -5.169  0.00  0.00    +0.302 C 
ATOM      6  O   UNL     1       7.511   0.151  -5.050  0.00  0.00    -0.260 OA
ATOM      7  S   UNL     1       5.054  -0.410  -4.030  0.00  0.00    -0.026 S 
ATOM      8  N   UNL     1       4.351  -2.442  -7.238  0.00  0.00    -0.200 N 
ATOM      9  C   UNL     1       5.116  -2.750  -8.457  0.00  0.00    +0.139 C 
ATOM     10  C   UNL     1       4.149  -3.622  -9.281  0.00  0.00    +0.087 C 
ATOM     11  C   UNL     1       2.912  -3.713  -8.415  0.00  0.00    +0.069 C 
ATOM     12  N   UNL     1       3.102  -3.053  -7.324  0.00  0.00    -0.182 NA
ENDROOT
BRANCH   1  16
ATOM     13  C   UNL     1       0.642  -0.356  -1.332  0.00  0.00    -0.042 A 
ATOM     14  C   UNL     1       1.853   0.200  -1.707  0.00  0.00    +0.005 A 
ATOM     15  C   UNL     1       2.526  -0.282  -2.809  0.00  0.00    +0.008 A 
ATOM     16  C   UNL     1       1.982  -1.337  -3.550  0.00  0.00    -0.024 A 
ATOM     17  C   UNL     1       0.757  -1.895  -3.164  0.00  0.00    +0.008 A 
ATOM     18  C   UNL     1       0.099  -1.404  -2.056  0.00  0.00    +0.005 A 
BRANCH  13  20
ATOM     19  C   UNL     1      -0.253  -0.941   0.905  0.00  0.00    +0.015 C 
ATOM     20  C   UNL     1      -0.087   0.177  -0.126  0.00  0.00    -0.013 C 
ATOM     21  C   UNL     1      -1.465   0.691  -0.548  0.00  0.00    +0.015 C 
ATOM     22  C   UNL     1       0.718   1.323   0.490  0.00  0.00    +0.015 C 
ENDBRANCH  13  20
ENDBRANCH   1  16
BRANCH  11  23
ATOM     23  C   UNL     1       1.683  -4.448  -8.763  0.00  0.00    -0.002 A 
ATOM     24  C   UNL     1       1.598  -5.140  -9.974  0.00  0.00    +0.013 A 
ATOM     25  C   UNL     1       0.447  -5.826 -10.294  0.00  0.00    +0.046 A 
ATOM     26  C   UNL     1      -0.628  -5.831  -9.415  0.00  0.00    +0.120 A 
ATOM     27  C   UNL     1      -0.549  -5.145  -8.210  0.00  0.00    +0.046 A 
ATOM     28  C   UNL     1       0.600  -4.460  -7.879  0.00  0.00    +0.013 A 
BRANCH  26  29
ATOM     29  O   UNL     1      -1.761  -6.509  -9.735  0.00  0.00    -0.495 OA
ATOM     30  C   UNL     1      -2.829  -6.472  -8.786  0.00  0.00    +0.277 C 
ENDBRANCH  26  29
ENDBRANCH  11  23
BRANCH   9  31
ATOM     31  C   UNL     1       5.460  -1.486  -9.201  0.00  0.00    +0.017 A 
ATOM     32  C   UNL     1       4.764  -0.320  -8.942  0.00  0.00    +0.009 A 
ATOM     33  C   UNL     1       5.079   0.840  -9.625  0.00  0.00    +0.001 A 
ATOM     34  C   UNL     1       6.090   0.838 -10.568  0.00  0.00    +0.004 A 
ATOM     35  C   UNL     1       6.789  -0.325 -10.829  0.00  0.00    +0.046 A 
ATOM     36  C   UNL     1       6.479  -1.489 -10.142  0.00  0.00    +0.122 A 
BRANCH  36  37
ATOM     37  O   UNL     1       7.169  -2.633 -10.393  0.00  0.00    -0.506 OA
ATOM     38  H   UNL     1       6.786  -3.176 -11.096  0.00  0.00    +0.292 HD
ENDBRANCH  36  37
ENDBRANCH   9  31
TORSDOF 6
