REMARK  Name = ZINC16162090
REMARK  13 active torsions:
REMARK  status: ('A' for Active; 'I' for Inactive)
REMARK    1  A    between atoms: C_1  and  C_2
REMARK    2  A    between atoms: C_2  and  C_3
REMARK    3  A    between atoms: C_6  and  N_9
REMARK    4  A    between atoms: C_10  and  O_38
REMARK    5  A    between atoms: C_11  and  C_15
REMARK    6  A    between atoms: C_12  and  C_14
REMARK    7  A    between atoms: C_15  and  C_16
REMARK    8  A    between atoms: C_15  and  C_23
REMARK    9  A    between atoms: C_24  and  C_37
REMARK   10  A    between atoms: N_26  and  C_29
REMARK   11  A    between atoms: C_27  and  O_28
REMARK   12  A    between atoms: C_32  and  C_35
REMARK   13  A    between atoms: C_35  and  C_36
REMARK                            x       y       z     vdW  Elec       q    Type
REMARK                         _______ _______ _______ _____ _____    ______ ____
ROOT
ATOM      1  C   UNL     1      -2.904   4.561   7.876  0.00  0.00    +0.093 C 
ENDROOT
BRANCH   1   2
ATOM      2  C   UNL     1      -2.202   5.875   7.645  0.00  0.00    -0.035 A 
ATOM      3  C   UNL     1      -1.373   6.032   6.550  0.00  0.00    +0.006 A 
ATOM      4  C   UNL     1      -0.733   7.238   6.335  0.00  0.00    +0.020 A 
ATOM      5  C   UNL     1      -0.914   8.284   7.221  0.00  0.00    +0.041 A 
ATOM      6  C   UNL     1      -1.740   8.125   8.320  0.00  0.00    +0.020 A 
ATOM      7  C   UNL     1      -2.383   6.920   8.531  0.00  0.00    +0.006 A 
ATOM      8 CL   UNL     1      -0.106   9.797   6.955  0.00  0.00    -0.084 Cl
ENDBRANCH   1   2
BRANCH   1  11
ATOM      9  N   UNL     1      -4.535   4.096   4.635  0.00  0.00    -0.200 N 
ATOM     10  C   UNL     1      -4.052   4.902   5.618  0.00  0.00    +0.220 A 
ATOM     11  C   UNL     1      -3.543   4.101   6.591  0.00  0.00    +0.048 A 
ATOM     12  C   UNL     1      -3.712   2.773   6.186  0.00  0.00    +0.068 A 
ATOM     13  N   UNL     1      -4.304   2.769   5.019  0.00  0.00    -0.168 NA
ATOM     14  C   UNL     1      -3.285   1.554   6.962  0.00  0.00    +0.068 C 
BRANCH   9  18
ATOM     15  C   UNL     1      -6.359   5.351   1.104  0.00  0.00    -0.047 A 
ATOM     16  C   UNL     1      -6.551   6.066   2.272  0.00  0.00    +0.006 A 
ATOM     17  C   UNL     1      -5.953   5.649   3.445  0.00  0.00    +0.028 A 
ATOM     18  C   UNL     1      -5.148   4.518   3.448  0.00  0.00    +0.069 A 
ATOM     19  C   UNL     1      -4.952   3.805   2.272  0.00  0.00    +0.028 A 
ATOM     20  C   UNL     1      -5.558   4.224   1.104  0.00  0.00    +0.006 A 
BRANCH  15  22
ATOM     21  C   UNL     1      -8.391   5.142  -0.302  0.00  0.00    +0.009 C 
ATOM     22  C   UNL     1      -7.018   5.805  -0.173  0.00  0.00    +0.032 C 
ENDBRANCH  15  22
ENDBRANCH   9  18
BRANCH  10  23
ATOM     23  O   UNL     1      -4.077   6.260   5.627  0.00  0.00    -0.492 OA
ATOM     24  H   UNL     1      -4.831   6.636   6.100  0.00  0.00    +0.294 HD
ENDBRANCH  10  23
ENDBRANCH   1  11
BRANCH   1  25
ATOM     25  C   UNL     1      -1.905   3.532   8.338  0.00  0.00    +0.048 A 
ATOM     26  C   UNL     1      -1.864   2.934   9.601  0.00  0.00    +0.068 A 
ATOM     27  N   UNL     1      -0.860   2.094   9.629  0.00  0.00    -0.168 NA
ATOM     28  N   UNL     1      -0.223   2.126   8.382  0.00  0.00    -0.200 N 
ATOM     29  C   UNL     1      -0.888   3.016   7.598  0.00  0.00    +0.220 A 
ATOM     30  C   UNL     1      -2.814   3.209  10.738  0.00  0.00    +0.068 C 
BRANCH  28  31
ATOM     31  C   UNL     1       0.897   1.371   8.007  0.00  0.00    +0.069 A 
ATOM     32  C   UNL     1       1.016   0.903   6.705  0.00  0.00    +0.028 A 
ATOM     33  C   UNL     1       2.123   0.163   6.338  0.00  0.00    +0.006 A 
ATOM     34  C   UNL     1       3.106  -0.121   7.267  0.00  0.00    -0.047 A 
ATOM     35  C   UNL     1       2.988   0.339   8.566  0.00  0.00    +0.006 A 
ATOM     36  C   UNL     1       1.886   1.084   8.938  0.00  0.00    +0.028 A 
BRANCH  34  37
ATOM     37  C   UNL     1       4.309  -0.935   6.865  0.00  0.00    +0.032 C 
ATOM     38  C   UNL     1       4.021  -2.420   7.094  0.00  0.00    +0.009 C 
ENDBRANCH  34  37
ENDBRANCH  28  31
BRANCH  29  39
ATOM     39  O   UNL     1      -0.589   3.334   6.312  0.00  0.00    -0.492 OA
ATOM     40  H   UNL     1       0.100   4.006   6.223  0.00  0.00    +0.294 HD
ENDBRANCH  29  39
ENDBRANCH   1  25
TORSDOF 9
