REMARK  Name = ZINC35504217
REMARK  13 active torsions:
REMARK  status: ('A' for Active; 'I' for Inactive)
REMARK    1  A    between atoms: C_1  and  C_2
REMARK    2  A    between atoms: C_2  and  S_3
REMARK    3  A    between atoms: S_3  and  C_4
REMARK    4  A    between atoms: C_5  and  S_23
REMARK    5  A    between atoms: C_6  and  N_22
REMARK    6  A    between atoms: N_7  and  C_9
REMARK    7  A    between atoms: C_9  and  C_10
REMARK    8  A    between atoms: N_12  and  C_13
REMARK    9  A    between atoms: C_16  and  C_19
REMARK   10  A    between atoms: C_19  and  C_20
REMARK   11  A    between atoms: C_19  and  C_21
REMARK   12  A    between atoms: S_23  and  C_26
REMARK   13  A    between atoms: C_29  and  C_32
REMARK                            x       y       z     vdW  Elec       q    Type
REMARK                         _______ _______ _______ _____ _____    ______ ____
ROOT
ATOM      1  C   UNL     1       0.798  -2.345  -1.354  0.00  0.00    +0.146 A 
ATOM      2  C   UNL     1       1.324  -3.263  -2.277  0.00  0.00    +0.166 A 
ATOM      3  C   UNL     1       1.067  -4.515  -1.810  0.00  0.00    +0.142 A 
ATOM      4  N   UNL     1       0.402  -4.386  -0.633  0.00  0.00    -0.239 N 
ATOM      5  N   UNL     1       0.252  -3.019  -0.369  0.00  0.00    -0.161 NA
ENDROOT
BRANCH   3   6
ATOM      6  N   UNL     1       1.422  -5.711  -2.428  0.00  0.00    -0.342 N 
ATOM      7  H   UNL     1       1.898  -5.698  -3.273  0.00  0.00    +0.144 HD
ATOM      8  H   UNL     1       1.193  -6.557  -2.013  0.00  0.00    +0.144 HD
ENDBRANCH   3   6
BRANCH   2   9
ATOM      9  S   UNL     1       2.165  -2.864  -3.773  0.00  0.00    +0.031 S 
ATOM     10  O   UNL     1       2.022  -3.988  -4.630  0.00  0.00    -0.164 OA
ATOM     11  O   UNL     1       1.736  -1.562  -4.146  0.00  0.00    -0.164 OA
BRANCH   9  12
ATOM     12  C   UNL     1       3.880  -2.738  -3.388  0.00  0.00    +0.094 A 
ATOM     13  C   UNL     1       4.413  -1.524  -2.999  0.00  0.00    +0.027 A 
ATOM     14  C   UNL     1       5.759  -1.425  -2.697  0.00  0.00    +0.005 A 
ATOM     15  C   UNL     1       6.571  -2.540  -2.785  0.00  0.00    -0.050 A 
ATOM     16  C   UNL     1       6.037  -3.755  -3.173  0.00  0.00    +0.005 A 
ATOM     17  C   UNL     1       4.691  -3.855  -3.471  0.00  0.00    +0.027 A 
ATOM     18  C   UNL     1       8.038  -2.432  -2.457  0.00  0.00    +0.044 C 
ENDBRANCH   9  12
ENDBRANCH   2   9
BRANCH   1  19
ATOM     19  S   UNL     1       0.865  -0.590  -1.491  0.00  0.00    -0.102 S 
BRANCH  19  21
ATOM     20  C   UNL     1       0.014   1.530   0.014  0.00  0.00    +0.015 C 
ATOM     21  C   UNL     1       0.027  -0.000   0.006  0.00  0.00    +0.072 C 
ENDBRANCH  19  21
ENDBRANCH   1  19
BRANCH   4  22
ATOM     22  C   UNL     1      -0.070  -5.484   0.214  0.00  0.00    +0.241 C 
BRANCH  22  23
ATOM     23  C   UNL     1       1.005  -5.855   1.203  0.00  0.00    +0.239 C 
ATOM     24  O   UNL     1       2.062  -5.260   1.200  0.00  0.00    -0.273 OA
ATOM     25  N   UNL     1       0.792  -6.847   2.090  0.00  0.00    -0.284 N 
ATOM     26  H   UNL     1      -0.076  -7.277   2.137  0.00  0.00    +0.155 HD
BRANCH  25  27
ATOM     27  C   UNL     1       1.823  -7.256   2.943  0.00  0.00    +0.033 A 
ATOM     28  C   UNL     1       1.946  -8.594   3.294  0.00  0.00    +0.023 A 
ATOM     29  C   UNL     1       2.965  -8.995   4.136  0.00  0.00    +0.006 A 
ATOM     30  C   UNL     1       3.862  -8.065   4.630  0.00  0.00    -0.045 A 
ATOM     31  C   UNL     1       3.742  -6.732   4.282  0.00  0.00    +0.006 A 
ATOM     32  C   UNL     1       2.729  -6.326   3.435  0.00  0.00    +0.023 A 
BRANCH  30  33
ATOM     33  C   UNL     1       4.973  -8.505   5.548  0.00  0.00    +0.013 C 
ATOM     34  C   UNL     1       6.323  -8.165   4.915  0.00  0.00    +0.012 C 
ATOM     35  C   UNL     1       4.841  -7.782   6.890  0.00  0.00    +0.012 C 
ENDBRANCH  30  33
ENDBRANCH  25  27
ENDBRANCH  22  23
ENDBRANCH   4  22
TORSDOF 9
