REMARK  Name = ZINC22824448
REMARK  8 active torsions:
REMARK  status: ('A' for Active; 'I' for Inactive)
REMARK    1  A    between atoms: C_1  and  C_2
REMARK    2  A    between atoms: C_5  and  C_8
REMARK    3  A    between atoms: C_10  and  C_13
REMARK    4  A    between atoms: C_13  and  N_14
REMARK    5  A    between atoms: N_17  and  C_20
REMARK    6  A    between atoms: C_20  and  C_21
REMARK    7  A    between atoms: N_31  and  C_32
REMARK    8  A    between atoms: C_32  and  C_33
REMARK                            x       y       z     vdW  Elec       q    Type
REMARK                         _______ _______ _______ _____ _____    ______ ____
ROOT
ATOM      1  N   UNL     1      -5.960  -0.645   1.002  0.00  0.00    -0.297 NA
ATOM      2  C   UNL     1      -5.943  -1.403  -0.257  0.00  0.00    +0.066 C 
ATOM      3  C   UNL     1      -4.834  -2.455  -0.202  0.00  0.00    -0.063 C 
ATOM      4  N   UNL     1      -3.543  -1.792   0.028  0.00  0.00    +0.386 N 
ATOM      5  C   UNL     1      -3.559  -1.034   1.287  0.00  0.00    -0.063 C 
ATOM      6  C   UNL     1      -4.669   0.018   1.231  0.00  0.00    +0.066 C 
ATOM      7  H   UNL     1      -3.376  -1.080  -0.795  0.00  0.00    -0.081 HD
ENDROOT
BRANCH   1   8
ATOM      8  C   UNL     1      -7.062   0.326   1.018  0.00  0.00    +0.183 C 
BRANCH   8  11
ATOM      9  C   UNL     1      -6.379   2.849   3.486  0.00  0.00    +0.202 A 
ATOM     10  N   UNL     1      -6.249   2.379   2.224  0.00  0.00    -0.190 NA
ATOM     11  C   UNL     1      -6.904   1.245   2.202  0.00  0.00    +0.242 A 
ATOM     12  O   UNL     1      -7.411   1.059   3.424  0.00  0.00    -0.336 OA
ATOM     13  N   UNL     1      -7.098   1.980   4.149  0.00  0.00    -0.056 NA
BRANCH   9  18
ATOM     14  C   UNL     1      -4.174   7.751   5.555  0.00  0.00    +0.044 C 
ATOM     15  C   UNL     1      -4.752   6.468   5.013  0.00  0.00    -0.050 A 
ATOM     16  C   UNL     1      -5.497   5.646   5.838  0.00  0.00    +0.004 A 
ATOM     17  C   UNL     1      -6.028   4.470   5.348  0.00  0.00    +0.012 A 
ATOM     18  C   UNL     1      -5.812   4.112   4.019  0.00  0.00    +0.022 A 
ATOM     19  C   UNL     1      -5.055   4.942   3.193  0.00  0.00    +0.012 A 
ATOM     20  C   UNL     1      -4.533   6.117   3.693  0.00  0.00    +0.004 A 
ENDBRANCH   9  18
ENDBRANCH   8  11
ENDBRANCH   1   8
BRANCH   4  21
ATOM     21  C   UNL     1      -2.441  -2.763   0.012  0.00  0.00    -0.003 C 
BRANCH  21  22
ATOM     22  C   UNL     1      -1.125  -2.030   0.003  0.00  0.00    +0.097 A 
ATOM     23  N   UNL     1      -1.143  -0.731   0.009  0.00  0.00    -0.235 NA
ATOM     24  C   UNL     1       0.002  -0.004   0.002  0.00  0.00    +0.078 A 
ATOM     25  C   UNL     1      -0.017   1.392   0.010  0.00  0.00    +0.028 A 
ATOM     26  C   UNL     1       1.170   2.090   0.002  0.00  0.00    +0.002 A 
ATOM     27  C   UNL     1       2.388   1.423  -0.013  0.00  0.00    +0.001 A 
ATOM     28  C   UNL     1       2.432   0.046  -0.021  0.00  0.00    +0.015 A 
ATOM     29  C   UNL     1       1.242  -0.679  -0.013  0.00  0.00    +0.065 A 
ATOM     30  C   UNL     1       1.228  -2.150  -0.021  0.00  0.00    +0.262 A 
ATOM     31  O   UNL     1       2.262  -2.792  -0.034  0.00  0.00    -0.267 OA
ATOM     32  N   UNL     1       0.020  -2.761  -0.012  0.00  0.00    -0.290 N 
BRANCH  32  33
ATOM     33  C   UNL     1      -0.053  -4.224  -0.018  0.00  0.00    +0.200 C 
BRANCH  33  34
ATOM     34  C   UNL     1      -0.091  -4.719  -1.441  0.00  0.00    +0.125 A 
ATOM     35  C   UNL     1       0.978  -5.027  -2.196  0.00  0.00    +0.046 A 
ATOM     36  C   UNL     1       0.485  -5.448  -3.452  0.00  0.00    +0.041 A 
ATOM     37  C   UNL     1      -0.856  -5.364  -3.393  0.00  0.00    +0.195 A 
ATOM     38  O   UNL     1      -1.200  -4.922  -2.172  0.00  0.00    -0.466 OA
ENDBRANCH  33  34
ENDBRANCH  32  33
ENDBRANCH  21  22
ENDBRANCH   4  21
TORSDOF 7
