REMARK  Name = ZINC41513761
REMARK  15 active torsions:
REMARK  status: ('A' for Active; 'I' for Inactive)
REMARK    1  A    between atoms: C_1  and  C_2
REMARK    2  A    between atoms: C_2  and  O_3
REMARK    3  A    between atoms: O_3  and  C_4
REMARK    4  A    between atoms: C_13  and  C_15
REMARK    5  A    between atoms: C_24  and  O_36
REMARK    6  A    between atoms: C_25  and  C_26
REMARK    7  A    between atoms: C_26  and  N_27
REMARK    8  A    between atoms: N_27  and  C_28
REMARK    9  A    between atoms: N_27  and  C_32
REMARK   10  A    between atoms: C_28  and  C_29
REMARK   11  A    between atoms: C_29  and  C_30
REMARK   12  A    between atoms: C_29  and  C_31
REMARK   13  A    between atoms: C_32  and  C_33
REMARK   14  A    between atoms: C_33  and  C_34
REMARK   15  A    between atoms: C_33  and  C_35
REMARK                            x       y       z     vdW  Elec       q    Type
REMARK                         _______ _______ _______ _____ _____    ______ ____
ROOT
ATOM      1  C   UNL     1      -6.883  -4.016  -0.423  0.00  0.00    +0.006 A 
ATOM      2  C   UNL     1      -7.499  -4.724   0.596  0.00  0.00    +0.101 A 
ATOM      3  C   UNL     1      -8.821  -5.162   0.431  0.00  0.00    +0.338 A 
ATOM      4  O   UNL     1      -9.356  -5.785   1.332  0.00  0.00    -0.245 OA
ATOM      5  O   UNL     1      -9.515  -4.915  -0.692  0.00  0.00    -0.422 OA
ATOM      6  C   UNL     1      -8.980  -4.231  -1.726  0.00  0.00    +0.144 A 
ATOM      7  C   UNL     1      -7.663  -3.749  -1.645  0.00  0.00    +0.026 A 
ATOM      8  C   UNL     1      -7.109  -3.037  -2.710  0.00  0.00    +0.016 A 
ATOM      9  C   UNL     1      -7.853  -2.804  -3.831  0.00  0.00    +0.046 A 
ATOM     10  C   UNL     1      -9.162  -3.273  -3.918  0.00  0.00    +0.122 A 
ATOM     11  C   UNL     1      -9.722  -3.991  -2.873  0.00  0.00    +0.020 A 
ENDROOT
BRANCH   1  21
ATOM     12  C   UNL     1      -1.679  -1.977   0.322  0.00  0.00    +0.163 A 
ATOM     13  C   UNL     1      -0.589  -2.829   0.312  0.00  0.00    +0.049 A 
ATOM     14  C   UNL     1      -0.766  -4.200   0.196  0.00  0.00    +0.004 A 
ATOM     15  C   UNL     1      -2.019  -4.731   0.077  0.00  0.00    +0.012 A 
ATOM     16  C   UNL     1      -3.138  -3.887   0.059  0.00  0.00    +0.022 A 
ATOM     17  C   UNL     1      -2.966  -2.500   0.214  0.00  0.00    +0.180 A 
ATOM     18  O   UNL     1      -4.045  -1.682   0.273  0.00  0.00    -0.418 OA
ATOM     19  C   UNL     1      -5.166  -2.102  -0.356  0.00  0.00    +0.345 A 
ATOM     20  O   UNL     1      -5.880  -1.322  -0.959  0.00  0.00    -0.245 OA
ATOM     21  C   UNL     1      -5.494  -3.539  -0.287  0.00  0.00    +0.068 A 
ATOM     22  C   UNL     1      -4.443  -4.422  -0.099  0.00  0.00    +0.027 A 
BRANCH  12  23
ATOM     23  O   UNL     1      -1.496  -0.635   0.443  0.00  0.00    -0.489 OA
BRANCH  23  25
ATOM     24  C   UNL     1      -0.142   1.353   0.676  0.00  0.00    +0.048 C 
ATOM     25  C   UNL     1      -0.148  -0.171   0.549  0.00  0.00    +0.226 C 
ENDBRANCH  23  25
ENDBRANCH  12  23
ENDBRANCH   1  21
BRANCH  10  26
ATOM     26  O   UNL     1      -9.891  -3.033  -5.038  0.00  0.00    -0.506 OA
ATOM     27  H   UNL     1      -9.808  -3.719  -5.715  0.00  0.00    +0.292 HD
ENDBRANCH  10  26
BRANCH  11  28
ATOM     28  C   UNL     1     -11.139  -4.494  -2.976  0.00  0.00    -0.036 C 
BRANCH  28  29
ATOM     29  N   UNL     1     -12.060  -3.470  -2.464  0.00  0.00    +0.383 N 
ATOM     30  H   UNL     1     -11.784  -3.207  -1.530  0.00  0.00    -0.081 HD
BRANCH  29  31
ATOM     31  C   UNL     1     -12.017  -2.291  -3.339  0.00  0.00    -0.075 C 
BRANCH  31  32
ATOM     32  C   UNL     1     -12.860  -1.171  -2.726  0.00  0.00    -0.034 C 
ATOM     33  C   UNL     1     -12.238  -0.732  -1.399  0.00  0.00    +0.005 C 
ATOM     34  C   UNL     1     -12.903   0.019  -3.687  0.00  0.00    +0.005 C 
ENDBRANCH  31  32
ENDBRANCH  29  31
BRANCH  29  35
ATOM     35  C   UNL     1     -13.426  -4.010  -2.437  0.00  0.00    -0.075 C 
BRANCH  35  36
ATOM     36  C   UNL     1     -13.650  -4.764  -1.124  0.00  0.00    -0.034 C 
ATOM     37  C   UNL     1     -15.118  -5.184  -1.021  0.00  0.00    +0.005 C 
ATOM     38  C   UNL     1     -12.760  -6.009  -1.093  0.00  0.00    +0.005 C 
ENDBRANCH  35  36
ENDBRANCH  29  35
ENDBRANCH  28  29
ENDBRANCH  11  28
TORSDOF 10
