REMARK  Name = ZINC63270421
REMARK  6 active torsions:
REMARK  status: ('A' for Active; 'I' for Inactive)
REMARK    1  A    between atoms: C_7  and  C_10
REMARK    2  A    between atoms: C_10  and  C_11
REMARK    3  A    between atoms: C_11  and  N_12
REMARK    4  A    between atoms: C_13  and  C_15
REMARK    5  A    between atoms: C_15  and  O_16
REMARK    6  A    between atoms: O_16  and  C_17
REMARK                            x       y       z     vdW  Elec       q    Type
REMARK                         _______ _______ _______ _____ _____    ______ ____
ROOT
ATOM      1  O   UNL     1      -1.970  -6.994  -3.965  0.00  0.00    -0.483 OA
ENDROOT
BRANCH   1   2
ATOM      2  C   UNL     1      -2.802  -8.056  -4.141  0.00  0.00    +0.122 A 
ATOM      3  C   UNL     1      -3.398  -8.658  -3.038  0.00  0.00    +0.047 A 
ATOM      4  C   UNL     1      -4.241  -9.740  -3.199  0.00  0.00    +0.027 A 
ATOM      5  C   UNL     1      -4.497 -10.230  -4.469  0.00  0.00    +0.041 A 
ATOM      6  C   UNL     1      -3.902  -9.618  -5.587  0.00  0.00    +0.061 A 
ATOM      7  C   UNL     1      -3.055  -8.528  -5.417  0.00  0.00    +0.060 A 
ATOM      8  C   UNL     1      -4.216 -10.159  -6.928  0.00  0.00    +0.250 C 
ATOM      9  O   UNL     1      -3.924  -9.546  -7.937  0.00  0.00    -0.270 OA
ATOM     10  N   UNL     1      -4.830 -11.342  -6.993  0.00  0.00    -0.279 N 
ATOM     11  C   UNL     1      -5.426 -11.859  -8.270  0.00  0.00    +0.110 C 
ATOM     12  C   UNL     1      -4.542 -12.999  -8.643  0.00  0.00    +0.019 C 
ATOM     13  C   UNL     1      -4.436 -14.077  -7.584  0.00  0.00    +0.002 C 
ATOM     14  C   UNL     1      -3.256 -13.761  -6.716  0.00  0.00    +0.003 C 
ATOM     15  C   UNL     1      -3.729 -12.980  -5.444  0.00  0.00    +0.042 C 
ATOM     16  C   UNL     1      -5.021 -12.206  -5.827  0.00  0.00    +0.161 C 
ATOM     17  N   UNL     1      -5.329 -11.331  -4.673  0.00  0.00    -0.325 N 
ATOM     18  H   UNL     1      -6.077 -11.515  -4.084  0.00  0.00    +0.148 HD
ENDBRANCH   1   2
BRANCH   1  19
ATOM     19  C   UNL     1      -1.752  -6.557  -2.622  0.00  0.00    +0.324 C 
BRANCH  19  21
ATOM     20  N   UNL     1      -0.458  -4.798  -1.460  0.00  0.00    -0.312 N 
ATOM     21  C   UNL     1      -0.811  -5.380  -2.623  0.00  0.00    +0.251 C 
ATOM     22  O   UNL     1      -0.371  -4.957  -3.671  0.00  0.00    -0.272 OA
ATOM     23  H   UNL     1      -0.810  -5.136  -0.622  0.00  0.00    +0.149 HD
BRANCH  20  24
ATOM     24  C   UNL     1       0.457  -3.653  -1.462  0.00  0.00    +0.108 C 
BRANCH  24  25
ATOM     25  C   UNL     1       0.691  -3.186  -0.024  0.00  0.00    +0.052 C 
BRANCH  25  32
ATOM     26  C   UNL     1      -0.016   1.348   0.009  0.00  0.00    +0.001 A 
ATOM     27  C   UNL     1       1.166   2.101   0.002  0.00  0.00    +0.002 A 
ATOM     28  C   UNL     1       2.391   1.535  -0.013  0.00  0.00    +0.026 A 
ATOM     29  C   UNL     1       2.529   0.120  -0.022  0.00  0.00    +0.043 A 
ATOM     30  N   UNL     1       3.587  -0.654  -0.037  0.00  0.00    -0.380 N 
ATOM     31  C   UNL     1       3.143  -2.053  -0.041  0.00  0.00    +0.144 C 
ATOM     32  C   UNL     1       1.631  -2.008  -0.025  0.00  0.00    -0.040 C 
ATOM     33  C   UNL     1       1.295  -0.698  -0.014  0.00  0.00    -0.001 A 
ATOM     34  C   UNL     1       0.002  -0.004   0.002  0.00  0.00    +0.010 A 
ATOM     35  H   UNL     1       4.509  -0.353  -0.045  0.00  0.00    +0.160 HD
ENDBRANCH  25  32
ENDBRANCH  24  25
ENDBRANCH  20  24
ENDBRANCH  19  21
ENDBRANCH   1  19
TORSDOF 6
