REMARK  Name = ZINC16003204
REMARK  7 active torsions:
REMARK  status: ('A' for Active; 'I' for Inactive)
REMARK    1  A    between atoms: C_4  and  C_7
REMARK    2  A    between atoms: C_7  and  N_8
REMARK    3  A    between atoms: C_17  and  C_19
REMARK    4  A    between atoms: C_19  and  S_20
REMARK    5  A    between atoms: S_20  and  C_21
REMARK    6  A    between atoms: C_24  and  C_30
REMARK    7  A    between atoms: C_26  and  N_27
REMARK                            x       y       z     vdW  Elec       q    Type
REMARK                         _______ _______ _______ _____ _____    ______ ____
ROOT
ATOM      1  N   UNL     1       4.153  -0.953   1.342  0.00  0.00    +0.386 N 
ATOM      2  C   UNL     1       5.490  -1.560   1.326  0.00  0.00    -0.072 C 
ATOM      3  C   UNL     1       6.102  -1.541   2.731  0.00  0.00    +0.038 C 
ATOM      4  C   UNL     1       5.097  -2.169   3.687  0.00  0.00    +0.050 A 
ATOM      5  C   UNL     1       3.798  -2.293   3.304  0.00  0.00    -0.002 A 
ATOM      6  S   UNL     1       3.053  -3.059   4.714  0.00  0.00    -0.059 S 
ATOM      7  C   UNL     1       4.440  -3.157   5.668  0.00  0.00    +0.165 A 
ATOM      8  N   UNL     1       5.369  -2.626   4.903  0.00  0.00    -0.229 NA
ATOM      9  N   UNL     1       4.570  -3.674   6.952  0.00  0.00    -0.264 N 
ATOM     10  C   UNL     1       5.771  -3.667   7.563  0.00  0.00    +0.229 C 
ATOM     11  O   UNL     1       6.739  -3.210   6.992  0.00  0.00    -0.275 OA
ATOM     12  C   UNL     1       3.203  -1.867   2.007  0.00  0.00    -0.033 C 
ATOM     13  H   UNL     1       3.796  -4.039   7.409  0.00  0.00    +0.157 HD
ATOM     14  H   UNL     1       4.187  -0.079   1.845  0.00  0.00    -0.081 HD
ENDROOT
BRANCH   1  15
ATOM     15  C   UNL     1       3.711  -0.707  -0.038  0.00  0.00    -0.043 C 
BRANCH  15  19
ATOM     16  C   UNL     1      -0.017   1.378   0.010  0.00  0.00    +0.000 A 
ATOM     17  C   UNL     1       1.171   2.086   0.002  0.00  0.00    +0.000 A 
ATOM     18  C   UNL     1       2.377   1.411  -0.013  0.00  0.00    +0.002 A 
ATOM     19  C   UNL     1       2.396   0.029  -0.020  0.00  0.00    -0.064 A 
ATOM     20  C   UNL     1       1.208  -0.679  -0.012  0.00  0.00    +0.002 A 
ATOM     21  C   UNL     1       0.002  -0.004   0.002  0.00  0.00    +0.000 A 
ENDBRANCH  15  19
ENDBRANCH   1  15
BRANCH  10  22
ATOM     22  C   UNL     1       5.912  -4.227   8.955  0.00  0.00    +0.170 C 
BRANCH  22  23
ATOM     23  S   UNL     1       7.636  -4.075   9.496  0.00  0.00    -0.114 S 
BRANCH  23  24
ATOM     24  C   UNL     1       7.636  -4.764  11.118  0.00  0.00    +0.039 A 
ATOM     25  C   UNL     1       6.455  -5.263  11.662  0.00  0.00    +0.018 A 
ATOM     26  C   UNL     1       6.449  -5.798  12.918  0.00  0.00    +0.014 A 
ATOM     27  C   UNL     1       7.630  -5.846  13.664  0.00  0.00    +0.039 A 
ATOM     28  C   UNL     1       8.818  -5.346  13.121  0.00  0.00    +0.047 A 
ATOM     29  C   UNL     1       8.819  -4.813  11.852  0.00  0.00    +0.140 A 
BRANCH  27  30
ATOM     30  C   UNL     1       7.623  -6.423  15.022  0.00  0.00    +0.242 C 
ATOM     31  O   UNL     1       8.652  -6.464  15.670  0.00  0.00    -0.270 OA
ATOM     32  N   UNL     1       6.478  -6.904  15.544  0.00  0.00    -0.325 N 
ATOM     33  H   UNL     1       5.658  -6.871  15.027  0.00  0.00    +0.145 HD
ATOM     34  H   UNL     1       6.474  -7.284  16.436  0.00  0.00    +0.145 HD
ENDBRANCH  27  30
BRANCH  29  35
ATOM     35  N   UNL     1      10.075  -4.288  11.271  0.00  0.00    +0.058 N 
ATOM     36  O   UNL     1      11.101  -4.331  11.909  0.00  0.00    -0.126 OA
ATOM     37  O   UNL     1      10.074  -3.815  10.158  0.00  0.00    -0.126 OA
ENDBRANCH  29  35
ENDBRANCH  23  24
ENDBRANCH  22  23
ENDBRANCH  10  22
TORSDOF 7
