REMARK  Name = ZINC13499132
REMARK  12 active torsions:
REMARK  status: ('A' for Active; 'I' for Inactive)
REMARK    1  A    between atoms: C_1  and  C_2
REMARK    2  A    between atoms: C_7  and  C_15
REMARK    3  A    between atoms: C_13  and  C_14
REMARK    4  A    between atoms: C_15  and  N_16
REMARK    5  A    between atoms: N_16  and  C_17
REMARK    6  A    between atoms: N_16  and  C_24
REMARK    7  A    between atoms: C_17  and  C_18
REMARK    8  A    between atoms: C_24  and  C_26
REMARK    9  A    between atoms: C_24  and  C_37
REMARK   10  A    between atoms: N_30  and  C_31
REMARK   11  A    between atoms: C_37  and  C_38
REMARK   12  A    between atoms: C_37  and  C_39
REMARK                            x       y       z     vdW  Elec       q    Type
REMARK                         _______ _______ _______ _____ _____    ______ ____
ROOT
ATOM      1  N   UNL     1       1.586  -6.928   1.403  0.00  0.00    -0.284 NA
ENDROOT
BRANCH   1   2
ATOM      2  C   UNL     1       0.316  -6.302   1.012  0.00  0.00    +0.126 C 
BRANCH   2   9
ATOM      3  C   UNL     1       1.601   1.207  -1.351  0.00  0.00    +0.044 C 
ATOM      4  C   UNL     1       1.382  -0.268  -1.130  0.00  0.00    -0.046 A 
ATOM      5  C   UNL     1       1.419  -1.137  -2.212  0.00  0.00    +0.004 A 
ATOM      6  C   UNL     1       1.223  -2.477  -2.033  0.00  0.00    +0.010 A 
ATOM      7  C   UNL     1       0.983  -2.978  -0.749  0.00  0.00    -0.001 A 
ATOM      8  C   UNL     1       0.768  -4.408  -0.522  0.00  0.00    +0.020 A 
ATOM      9  C   UNL     1       0.540  -4.836   0.744  0.00  0.00    +0.031 A 
ATOM     10  C   UNL     1       0.512  -3.913   1.812  0.00  0.00    +0.254 A 
ATOM     11  O   UNL     1       0.306  -4.319   2.942  0.00  0.00    -0.268 OA
ATOM     12  N   UNL     1       0.707  -2.598   1.613  0.00  0.00    -0.322 N 
ATOM     13  H   UNL     1       0.682  -1.991   2.369  0.00  0.00    +0.169 HD
ATOM     14  C   UNL     1       0.944  -2.099   0.350  0.00  0.00    +0.052 A 
ATOM     15  C   UNL     1       1.152  -0.739   0.144  0.00  0.00    -0.024 A 
ATOM     16  C   UNL     1       1.122   0.215   1.310  0.00  0.00    +0.046 C 
ENDBRANCH   2   9
ENDBRANCH   1   2
BRANCH   1  17
ATOM     17  C   UNL     1       1.921  -6.613   2.798  0.00  0.00    +0.122 C 
BRANCH  17  18
ATOM     18  C   UNL     1       3.373  -6.932   3.050  0.00  0.00    -0.015 A 
ATOM     19  C   UNL     1       3.739  -8.155   3.591  0.00  0.00    +0.008 A 
ATOM     20  C   UNL     1       5.085  -8.405   3.806  0.00  0.00    +0.020 A 
ATOM     21  C   UNL     1       6.012  -7.434   3.475  0.00  0.00    +0.111 A 
ATOM     22  N   UNL     1       5.627  -6.282   2.962  0.00  0.00    -0.263 NA
ATOM     23  C   UNL     1       4.356  -6.012   2.739  0.00  0.00    +0.115 A 
ENDBRANCH  17  18
ENDBRANCH   1  17
BRANCH   1  24
ATOM     24  C   UNL     1       1.544  -8.381   1.187  0.00  0.00    +0.130 C 
BRANCH  24  25
ATOM     25  C   UNL     1       0.314  -8.952   1.844  0.00  0.00    +0.169 A 
ATOM     26  N   UNL     1      -0.912  -8.502   1.734  0.00  0.00    -0.112 NA
ATOM     27  N   UNL     1      -1.678  -9.257   2.443  0.00  0.00    -0.023 NA
ATOM     28  N   UNL     1      -0.972 -10.177   3.003  0.00  0.00    -0.044 NA
ATOM     29  N   UNL     1       0.261 -10.026   2.653  0.00  0.00    -0.225 N 
BRANCH  29  30
ATOM     30  C   UNL     1       1.390 -10.864   3.063  0.00  0.00    +0.111 C 
ATOM     31  C   UNL     1       1.150 -12.304   2.605  0.00  0.00    +0.027 C 
ATOM     32  C   UNL     1       2.330 -13.179   3.033  0.00  0.00    +0.002 C 
ATOM     33  C   UNL     1       2.464 -13.145   4.557  0.00  0.00    +0.000 C 
ATOM     34  C   UNL     1       2.704 -11.705   5.015  0.00  0.00    +0.002 C 
ATOM     35  C   UNL     1       1.524 -10.830   4.587  0.00  0.00    +0.027 C 
ENDBRANCH  29  30
ENDBRANCH  24  25
BRANCH  24  36
ATOM     36  C   UNL     1       1.502  -8.672  -0.314  0.00  0.00    +0.008 C 
ATOM     37  C   UNL     1       2.759  -8.107  -0.979  0.00  0.00    +0.009 C 
ATOM     38  C   UNL     1       1.443 -10.185  -0.539  0.00  0.00    +0.009 C 
ENDBRANCH  24  36
ENDBRANCH   1  24
TORSDOF 8
