REMARK  Name = ZINC24215107
REMARK  6 active torsions:
REMARK  status: ('A' for Active; 'I' for Inactive)
REMARK    1  A    between atoms: C_1  and  C_2
REMARK    2  A    between atoms: C_3  and  C_14
REMARK    3  A    between atoms: C_4  and  C_13
REMARK    4  A    between atoms: N_5  and  C_7
REMARK    5  A    between atoms: N_21  and  C_22
REMARK    6  A    between atoms: C_22  and  C_23
REMARK                            x       y       z     vdW  Elec       q    Type
REMARK                         _______ _______ _______ _____ _____    ______ ____
ROOT
ATOM      1  C   UNL     1      -3.836   1.583  -0.200  0.00  0.00    +0.054 C 
ATOM      2  C   UNL     1      -4.845   0.471  -0.145  0.00  0.00    +0.204 C 
ATOM      3  O   UNL     1      -5.928   0.643  -0.663  0.00  0.00    -0.277 OA
ATOM      4  N   UNL     1      -4.599  -0.701   0.450  0.00  0.00    -0.318 N 
ATOM      5  C   UNL     1      -3.317  -1.022   1.070  0.00  0.00    +0.085 C 
ATOM      6  C   UNL     1      -2.525   0.260   1.333  0.00  0.00    -0.058 C 
ATOM      7  N   UNL     1      -2.496   1.059   0.097  0.00  0.00    +0.396 N 
ATOM      8  H   UNL     1      -5.415  -1.439   0.460  0.00  0.00    +0.149 HD
ATOM      9  H   UNL     1      -2.185   0.409  -0.734  0.00  0.00    -0.080 HD
ENDROOT
BRANCH   1  12
ATOM     10  C   UNL     1      -2.557   0.312  -2.806  0.00  0.00    +0.068 C 
ATOM     11  C   UNL     1      -3.276   1.634  -2.728  0.00  0.00    +0.063 A 
ATOM     12  C   UNL     1      -3.840   2.195  -1.577  0.00  0.00    -0.009 A 
ATOM     13  C   UNL     1      -4.395   3.380  -1.920  0.00  0.00    +0.044 A 
ATOM     14  N   UNL     1      -4.182   3.568  -3.242  0.00  0.00    -0.237 N 
ATOM     15  N   UNL     1      -3.480   2.456  -3.726  0.00  0.00    -0.171 NA
ATOM     16  C   UNL     1      -5.117   4.324  -0.993  0.00  0.00    +0.066 C 
BRANCH  14  17
ATOM     17  C   UNL     1      -4.595   4.675  -3.995  0.00  0.00    +0.066 A 
ATOM     18  C   UNL     1      -5.125   4.494  -5.265  0.00  0.00    +0.028 A 
ATOM     19  C   UNL     1      -5.536   5.587  -6.003  0.00  0.00    +0.002 A 
ATOM     20  C   UNL     1      -5.409   6.862  -5.482  0.00  0.00    +0.000 A 
ATOM     21  C   UNL     1      -4.875   7.046  -4.220  0.00  0.00    +0.002 A 
ATOM     22  C   UNL     1      -4.468   5.957  -3.475  0.00  0.00    +0.028 A 
ENDBRANCH  14  17
ENDBRANCH   1  12
BRANCH   7  23
ATOM     23  C   UNL     1      -1.516   2.149   0.198  0.00  0.00    +0.000 C 
BRANCH  23  24
ATOM     24  C   UNL     1      -0.127   1.569   0.283  0.00  0.00    +0.117 A 
ATOM     25  N   UNL     1       0.924   2.425   0.377  0.00  0.00    -0.196 NA
ATOM     26  C   UNL     1       2.191   1.955   0.451  0.00  0.00    +0.281 A 
ATOM     27  O   UNL     1       3.142   2.711   0.536  0.00  0.00    -0.265 OA
ATOM     28  C   UNL     1       2.374   0.497   0.425  0.00  0.00    +0.067 A 
ATOM     29  C   UNL     1       3.637  -0.089   0.495  0.00  0.00    +0.017 A 
ATOM     30  C   UNL     1       3.753  -1.451   0.466  0.00  0.00    +0.021 A 
ATOM     31  C   UNL     1       2.625  -2.257   0.368  0.00  0.00    +0.043 A 
ATOM     32  C   UNL     1       1.365  -1.703   0.297  0.00  0.00    +0.048 A 
ATOM     33  C   UNL     1       1.222  -0.315   0.325  0.00  0.00    +0.080 A 
ATOM     34  N   UNL     1       0.004   0.278   0.258  0.00  0.00    -0.234 NA
ATOM     35 CL   UNL     1       2.806  -3.984   0.333  0.00  0.00    -0.083 Cl
ENDBRANCH  23  24
ENDBRANCH   7  23
TORSDOF 4
