REMARK  Name = ZINC12465567
REMARK  7 active torsions:
REMARK  status: ('A' for Active; 'I' for Inactive)
REMARK    1  A    between atoms: C_1  and  O_2
REMARK    2  A    between atoms: O_2  and  C_3
REMARK    3  A    between atoms: C_6  and  C_8
REMARK    4  A    between atoms: C_12  and  N_13
REMARK    5  A    between atoms: C_14  and  C_16
REMARK    6  A    between atoms: N_21  and  S_22
REMARK    7  A    between atoms: S_22  and  C_25
REMARK                            x       y       z     vdW  Elec       q    Type
REMARK                         _______ _______ _______ _____ _____    ______ ____
ROOT
ATOM      1  C   UNL     1      -4.950  -0.910   3.270  0.00  0.00    +0.069 A 
ATOM      2  C   UNL     1      -4.675  -2.262   2.803  0.00  0.00    -0.023 A 
ATOM      3  C   UNL     1      -3.731  -2.351   1.842  0.00  0.00    -0.004 A 
ATOM      4  S   UNL     1      -3.227  -0.679   1.541  0.00  0.00    -0.077 S 
ATOM      5  C   UNL     1      -4.239   0.130   2.691  0.00  0.00    +0.084 A 
ATOM      6  C   UNL     1      -3.218  -3.588   1.173  0.00  0.00    +0.043 C 
ATOM      7  C   UNL     1      -4.406  -4.441   0.709  0.00  0.00    +0.005 C 
ATOM      8  C   UNL     1      -4.792  -5.389   1.841  0.00  0.00    +0.001 C 
ATOM      9  C   UNL     1      -4.540  -4.724   3.192  0.00  0.00    +0.005 C 
ATOM     10  C   UNL     1      -5.410  -3.481   3.346  0.00  0.00    +0.037 C 
ENDROOT
BRANCH   1  14
ATOM     11  C   UNL     1      -6.484  -0.423   6.576  0.00  0.00    +0.407 C 
ATOM     12  O   UNL     1      -7.643  -0.217   6.277  0.00  0.00    -0.226 OA
ATOM     13  N   UNL     1      -5.571  -0.654   5.613  0.00  0.00    -0.217 N 
ATOM     14  C   UNL     1      -5.943  -0.658   4.317  0.00  0.00    +0.255 C 
ATOM     15  O   UNL     1      -7.104  -0.452   4.018  0.00  0.00    -0.270 OA
ATOM     16  H   UNL     1      -4.645  -0.819   5.852  0.00  0.00    +0.161 HD
BRANCH  11  18
ATOM     17  C   UNL     1      -7.149  -0.162   8.853  0.00  0.00    +0.282 C 
ATOM     18  O   UNL     1      -6.112  -0.419   7.870  0.00  0.00    -0.453 OA
ENDBRANCH  11  18
ENDBRANCH   1  14
BRANCH   5  19
ATOM     19  N   UNL     1      -4.323   1.487   2.961  0.00  0.00    -0.278 N 
ATOM     20  C   UNL     1      -3.544   2.357   2.288  0.00  0.00    +0.236 C 
ATOM     21  O   UNL     1      -2.769   1.953   1.447  0.00  0.00    -0.274 OA
ATOM     22  H   UNL     1      -4.942   1.810   3.634  0.00  0.00    +0.155 HD
BRANCH  20  23
ATOM     23  C   UNL     1      -3.635   3.833   2.582  0.00  0.00    +0.166 C 
ATOM     24  C   UNL     1      -2.406   4.294   3.409  0.00  0.00    +0.031 C 
ATOM     25  C   UNL     1      -2.353   5.807   3.066  0.00  0.00    +0.019 C 
ATOM     26  C   UNL     1      -2.797   5.841   1.588  0.00  0.00    +0.110 C 
ATOM     27  N   UNL     1      -3.559   4.610   1.332  0.00  0.00    -0.164 NA
BRANCH  27  28
ATOM     28  S   UNL     1      -4.227   4.173  -0.119  0.00  0.00    +0.068 S 
ATOM     29  O   UNL     1      -4.502   2.781  -0.036  0.00  0.00    -0.152 OA
ATOM     30  O   UNL     1      -3.397   4.727  -1.131  0.00  0.00    -0.152 OA
BRANCH  28  31
ATOM     31  C   UNL     1      -5.784   4.987  -0.242  0.00  0.00    +0.143 A 
ATOM     32  C   UNL     1      -6.061   6.236  -0.690  0.00  0.00    +0.036 A 
ATOM     33  C   UNL     1      -7.373   6.672  -0.693  0.00  0.00    +0.010 A 
ATOM     34  C   UNL     1      -8.345   5.833  -0.258  0.00  0.00    +0.047 A 
ATOM     35  S   UNL     1      -7.408   4.379   0.183  0.00  0.00    -0.077 S 
ENDBRANCH  28  31
ENDBRANCH  27  28
ENDBRANCH  20  23
ENDBRANCH   5  19
TORSDOF 6
