REMARK  Name = ZINC49550267
REMARK  4 active torsions:
REMARK  status: ('A' for Active; 'I' for Inactive)
REMARK    1  A    between atoms: C_6  and  N_7
REMARK    2  A    between atoms: N_7  and  S_8
REMARK    3  A    between atoms: S_8  and  C_11
REMARK    4  A    between atoms: C_18  and  O_22
REMARK                            x       y       z     vdW  Elec       q    Type
REMARK                         _______ _______ _______ _____ _____    ______ ____
ROOT
ATOM      1  C   UNL     1      -2.849  -2.922   0.014  0.00  0.00    +0.112 A 
ATOM      2  C   UNL     1      -3.499  -3.137   1.216  0.00  0.00    +0.030 A 
ATOM      3  C   UNL     1      -4.811  -3.550   1.212  0.00  0.00    +0.019 A 
ATOM      4  C   UNL     1      -5.508  -3.769   0.019  0.00  0.00    +0.033 A 
ATOM      5  C   UNL     1      -4.854  -3.575  -1.197  0.00  0.00    +0.083 A 
ATOM      6  C   UNL     1      -3.514  -3.128  -1.168  0.00  0.00    +0.057 A 
ATOM      7  N   UNL     1      -5.345  -3.794  -2.422  0.00  0.00    -0.216 NA
ATOM      8  C   UNL     1      -6.326  -4.212  -3.051  0.00  0.00    +0.188 C 
ATOM      9  C   UNL     1      -7.653  -4.628  -2.525  0.00  0.00    +0.106 C 
ATOM     10  C   UNL     1      -7.558  -5.345  -1.209  0.00  0.00    +0.084 C 
ATOM     11  S   UNL     1      -7.180  -4.264   0.164  0.00  0.00    -0.123 S 
ENDROOT
BRANCH   1  12
ATOM     12  S   UNL     1      -1.174  -2.376   0.001  0.00  0.00    +0.092 S 
ATOM     13  O   UNL     1      -0.629  -2.768  -1.252  0.00  0.00    -0.148 OA
ATOM     14  O   UNL     1      -0.605  -2.781   1.238  0.00  0.00    -0.148 OA
BRANCH  12  15
ATOM     15  N   UNL     1      -1.198  -0.720   0.010  0.00  0.00    -0.098 NA
BRANCH  15  21
ATOM     16  C   UNL     1      -0.017   1.385   0.010  0.00  0.00    +0.028 A 
ATOM     17  C   UNL     1       1.171   2.091   0.002  0.00  0.00    +0.023 A 
ATOM     18  C   UNL     1       2.378   1.416  -0.013  0.00  0.00    +0.059 A 
ATOM     19  C   UNL     1       2.401   0.031  -0.021  0.00  0.00    +0.061 A 
ATOM     20  C   UNL     1       1.216  -0.680  -0.013  0.00  0.00    +0.048 A 
ATOM     21  C   UNL     1       0.002  -0.004   0.002  0.00  0.00    +0.076 A 
ATOM     22 CL   UNL     1       3.918  -0.812  -0.041  0.00  0.00    -0.082 Cl
ATOM     23 CL   UNL     1       3.868   2.307  -0.024  0.00  0.00    -0.082 Cl
ENDBRANCH  15  21
ENDBRANCH  12  15
ENDBRANCH   1  12
BRANCH   8  24
ATOM     24  O   UNL     1      -6.171  -4.301  -4.389  0.00  0.00    -0.495 OA
ATOM     25  H   UNL     1      -5.299  -4.025  -4.703  0.00  0.00    +0.293 HD
ENDBRANCH   8  24
TORSDOF 4
