REMARK  Name = ZINC38653726
REMARK  9 active torsions:
REMARK  status: ('A' for Active; 'I' for Inactive)
REMARK    1  A    between atoms: C_1  and  C_2
REMARK    2  A    between atoms: C_11  and  C_31
REMARK    3  A    between atoms: C_19  and  O_27
REMARK    4  A    between atoms: C_21  and  C_26
REMARK    5  A    between atoms: O_27  and  C_28
REMARK    6  A    between atoms: C_28  and  C_30
REMARK    7  A    between atoms: C_36  and  C_40
REMARK    8  A    between atoms: C_40  and  C_41
REMARK    9  A    between atoms: C_41  and  C_43
REMARK                            x       y       z     vdW  Elec       q    Type
REMARK                         _______ _______ _______ _____ _____    ______ ____
ROOT
ATOM      1  C   UNL     1      -0.483   1.669  -0.030  0.00  0.00    +0.009 C 
ATOM      2  C   UNL     1      -0.385   0.144   0.060  0.00  0.00    +0.006 C 
ATOM      3  C   UNL     1      -1.787  -0.487   0.000  0.00  0.00    +0.028 C 
ATOM      4  C   UNL     1      -1.679  -1.698   0.978  0.00  0.00    +0.121 C 
ATOM      5  C   UNL     1      -1.298  -2.927   0.116  0.00  0.00    +0.036 C 
ATOM      6  C   UNL     1      -0.997  -2.339  -1.263  0.00  0.00    +0.002 C 
ATOM      7  C   UNL     1      -2.013  -1.181  -1.364  0.00  0.00    -0.023 C 
ATOM      8  C   UNL     1      -1.676  -0.340  -2.571  0.00  0.00    +0.007 C 
ATOM      9  C   UNL     1      -1.574  -1.201  -3.836  0.00  0.00    +0.005 C 
ATOM     10  C   UNL     1      -1.850  -2.675  -3.607  0.00  0.00    +0.003 C 
ATOM     11  C   UNL     1      -1.036  -3.250  -2.448  0.00  0.00    +0.004 C 
ATOM     12  C   UNL     1      -1.610  -4.633  -2.121  0.00  0.00    +0.078 C 
ATOM     13  C   UNL     1      -1.527  -5.471  -3.369  0.00  0.00    +0.109 C 
ATOM     14  C   UNL     1      -1.483  -4.963  -4.569  0.00  0.00    -0.025 C 
ATOM     15  C   UNL     1      -1.539  -3.487  -4.869  0.00  0.00    -0.005 C 
ATOM     16  C   UNL     1      -0.220  -3.061  -5.498  0.00  0.00    +0.011 C 
ATOM     17  C   UNL     1       0.487  -4.255  -6.137  0.00  0.00    +0.001 C 
ATOM     18  C   UNL     1      -0.492  -5.208  -6.814  0.00  0.00    +0.004 C 
ATOM     19  C   UNL     1      -1.371  -5.897  -5.763  0.00  0.00    +0.034 C 
ATOM     20  C   UNL     1      -2.676  -3.228  -5.859  0.00  0.00    +0.016 C 
ATOM     21  C   UNL     1      -3.470  -1.651  -1.384  0.00  0.00    +0.012 C 
ATOM     22  O   UNL     1      -0.620  -1.400   1.883  0.00  0.00    -0.388 OA
ATOM     23  C   UNL     1       0.185  -0.316   1.407  0.00  0.00    +0.040 C 
ATOM     24  C   UNL     1       1.622  -0.814   1.208  0.00  0.00    +0.016 C 
ATOM     25  C   UNL     1       2.141  -1.371   2.537  0.00  0.00    +0.003 C 
ATOM     26  C   UNL     1       2.041  -0.285   3.611  0.00  0.00    -0.021 C 
ATOM     27  C   UNL     1       0.595   0.204   3.708  0.00  0.00    -0.075 C 
ATOM     28  N   UNL     1       0.177   0.757   2.406  0.00  0.00    +0.399 N 
ATOM     29  H   UNL     1       0.837   1.476   2.156  0.00  0.00    -0.082 HD
ATOM     30  H   UNL     1      -0.751   1.132   2.511  0.00  0.00    -0.082 HD
ENDROOT
BRANCH  13  31
ATOM     31  O   UNL     1      -1.501  -6.819  -3.229  0.00  0.00    -0.430 OA
BRANCH  31  32
ATOM     32  C   UNL     1      -2.590  -7.422  -2.725  0.00  0.00    +0.309 C 
ATOM     33  O   UNL     1      -3.587  -6.778  -2.500  0.00  0.00    -0.251 OA
ATOM     34  C   UNL     1      -2.568  -8.902  -2.441  0.00  0.00    +0.136 C 
ENDBRANCH  31  32
ENDBRANCH  13  31
BRANCH  26  35
ATOM     35  C   UNL     1       2.477  -0.859   4.961  0.00  0.00    +0.075 C 
BRANCH  35  36
ATOM     36  C   UNL     1       2.496   0.239   5.992  0.00  0.00    +0.131 C 
ATOM     37  O   UNL     1       2.192   1.366   5.680  0.00  0.00    -0.298 OA
ATOM     38  C   UNL     1       2.894  -0.067   7.413  0.00  0.00    +0.086 C 
ENDBRANCH  35  36
ENDBRANCH  26  35
TORSDOF 4
