REMARK  Name = ZINC22819995
REMARK  10 active torsions:
REMARK  status: ('A' for Active; 'I' for Inactive)
REMARK    1  A    between atoms: C_1  and  C_2
REMARK    2  A    between atoms: C_2  and  O_3
REMARK    3  A    between atoms: O_3  and  C_4
REMARK    4  A    between atoms: C_6  and  C_20
REMARK    5  A    between atoms: C_9  and  O_10
REMARK    6  A    between atoms: O_10  and  C_11
REMARK    7  A    between atoms: C_11  and  C_12
REMARK    8  A    between atoms: C_23  and  C_34
REMARK    9  A    between atoms: C_29  and  N_33
REMARK   10  A    between atoms: C_30  and  C_31
REMARK                            x       y       z     vdW  Elec       q    Type
REMARK                         _______ _______ _______ _____ _____    ______ ____
ROOT
ATOM      1  C   UNL     1       2.447  -4.678  -1.666  0.00  0.00    +0.163 A 
ATOM      2  C   UNL     1       2.458  -6.052  -1.848  0.00  0.00    +0.054 A 
ATOM      3  C   UNL     1       1.266  -6.748  -1.930  0.00  0.00    -0.030 A 
ATOM      4  C   UNL     1       0.062  -6.077  -1.825  0.00  0.00    +0.023 A 
ATOM      5  C   UNL     1       0.044  -4.707  -1.637  0.00  0.00    +0.063 A 
ATOM      6  C   UNL     1       1.236  -4.004  -1.554  0.00  0.00    +0.176 A 
ATOM      7 BR   UNL     1      -1.605  -3.794  -1.494  0.00  0.00    -0.046 Br
ENDROOT
BRANCH   3   8
ATOM      8  C   UNL     1       1.280  -8.241  -2.134  0.00  0.00    +0.101 C 
ATOM      9  C   UNL     1       0.563  -8.586  -3.414  0.00  0.00    +0.049 A 
ATOM     10  C   UNL     1       0.967  -8.393  -4.728  0.00  0.00    +0.068 A 
ATOM     11  N   UNL     1       0.021  -8.846  -5.516  0.00  0.00    -0.176 NA
ATOM     12  N   UNL     1      -1.021  -9.343  -4.717  0.00  0.00    -0.246 N 
ATOM     13  H   UNL     1      -1.918  -9.772  -5.188  0.00  0.00    +0.192 HD
ATOM     14  C   UNL     1      -0.670  -9.176  -3.432  0.00  0.00    +0.222 A 
ATOM     15  O   UNL     1      -1.343  -9.501  -2.300  0.00  0.00    -0.423 OA
ATOM     16  C   UNL     1      -0.658  -9.482  -1.139  0.00  0.00    +0.200 C 
ATOM     17  C   UNL     1       0.561  -8.918  -0.994  0.00  0.00    +0.098 C 
ATOM     18  C   UNL     1       2.266  -7.771  -5.172  0.00  0.00    +0.068 C 
BRANCH  16  19
ATOM     19  N   UNL     1      -1.233 -10.070  -0.040  0.00  0.00    -0.328 N 
ATOM     20  H   UNL     1      -0.702 -10.073   0.923  0.00  0.00    +0.145 HD
ATOM     21  H   UNL     1      -2.225 -10.539  -0.122  0.00  0.00    +0.145 HD
ENDBRANCH  16  19
BRANCH  17  22
ATOM     22  C   UNL     1       1.194  -8.964   0.290  0.00  0.00    +0.101 C 
ATOM     23  N   UNL     1       1.696  -9.000   1.308  0.00  0.00    -0.191 NA
ENDBRANCH  17  22
ENDBRANCH   3   8
BRANCH   1  24
ATOM     24  O   UNL     1       3.619  -3.992  -1.591  0.00  0.00    -0.489 OA
BRANCH  24  26
ATOM     25  C   UNL     1       6.029  -3.813  -1.606  0.00  0.00    +0.048 C 
ATOM     26  C   UNL     1       4.824  -4.750  -1.714  0.00  0.00    +0.226 C 
ENDBRANCH  24  26
ENDBRANCH   1  24
BRANCH   6  27
ATOM     27  O   UNL     1       1.220  -2.656  -1.369  0.00  0.00    -0.483 OA
BRANCH  27  28
ATOM     28  C   UNL     1       1.227  -2.186  -0.020  0.00  0.00    +0.264 C 
BRANCH  28  29
ATOM     29  C   UNL     1       1.208  -0.679  -0.013  0.00  0.00    -0.010 A 
ATOM     30  C   UNL     1       0.002  -0.004   0.002  0.00  0.00    +0.010 A 
ATOM     31  C   UNL     1      -0.017   1.378   0.010  0.00  0.00    +0.039 A 
ATOM     32  C   UNL     1       1.173   2.086   0.002  0.00  0.00    +0.123 A 
ATOM     33  C   UNL     1       2.381   1.408  -0.013  0.00  0.00    +0.039 A 
ATOM     34  C   UNL     1       2.397   0.026  -0.020  0.00  0.00    +0.010 A 
ATOM     35  F   UNL     1       1.156   3.437   0.009  0.00  0.00    -0.205 F 
ENDBRANCH  28  29
ENDBRANCH  27  28
ENDBRANCH   6  27
TORSDOF 8
