REMARK  Name = ZINC20272070
REMARK  8 active torsions:
REMARK  status: ('A' for Active; 'I' for Inactive)
REMARK    1  A    between atoms: C_1  and  C_2
REMARK    2  A    between atoms: C_3  and  C_4
REMARK    3  A    between atoms: C_4  and  N_5
REMARK    4  A    between atoms: C_8  and  C_12
REMARK    5  A    between atoms: C_8  and  C_20
REMARK    6  A    between atoms: C_12  and  C_13
REMARK    7  A    between atoms: N_23  and  C_26
REMARK    8  A    between atoms: C_26  and  C_27
REMARK                            x       y       z     vdW  Elec       q    Type
REMARK                         _______ _______ _______ _____ _____    ______ ____
ROOT
ATOM      1  N   UNL     1       0.002  -0.004   0.002  0.00  0.00    -0.212 N 
ATOM      2  C   UNL     1       0.023  -0.767   1.113  0.00  0.00    +0.248 C 
ATOM      3  O   UNL     1       0.029  -0.385   2.263  0.00  0.00    -0.273 OA
ATOM      4  C   UNL     1       0.037  -2.202   0.624  0.00  0.00    +0.119 C 
ATOM      5  N   UNL     1       0.021  -2.068  -0.843  0.00  0.00    -0.284 N 
ATOM      6  C   UNL     1      -0.004  -0.750  -1.109  0.00  0.00    +0.310 C 
ATOM      7  O   UNL     1      -0.026  -0.287  -2.233  0.00  0.00    -0.252 OA
ATOM      8  H   UNL     1       0.030  -2.967  -1.477  0.00  0.00    +0.151 HD
ENDROOT
BRANCH   4   9
ATOM      9  C   UNL     1      -1.207  -2.948   1.110  0.00  0.00    +0.018 C 
ATOM     10  C   UNL     1      -1.178  -4.387   0.586  0.00  0.00    -0.013 C 
ATOM     11  C   UNL     1      -2.454  -5.109   1.024  0.00  0.00    -0.078 C 
ATOM     12  N   UNL     1      -3.627  -4.400   0.496  0.00  0.00    +0.383 N 
ATOM     13  C   UNL     1      -3.701  -3.031   1.024  0.00  0.00    -0.078 C 
ATOM     14  C   UNL     1      -2.463  -2.246   0.586  0.00  0.00    -0.013 C 
ATOM     15  H   UNL     1      -3.515  -4.332  -0.596  0.00  0.00    -0.081 HD
BRANCH  12  16
ATOM     16  C   UNL     1      -4.863  -5.141   0.780  0.00  0.00    -0.036 C 
BRANCH  16  17
ATOM     17  C   UNL     1      -4.853  -6.443   0.021  0.00  0.00    -0.026 A 
ATOM     18  C   UNL     1      -4.378  -7.632   0.418  0.00  0.00    +0.017 A 
ATOM     19  C   UNL     1      -4.470  -8.772  -0.482  0.00  0.00    -0.011 A 
ATOM     20  C   UNL     1      -4.037 -10.104  -0.271  0.00  0.00    +0.009 A 
ATOM     21  C   UNL     1      -4.207 -11.049  -1.233  0.00  0.00    +0.001 A 
ATOM     22  C   UNL     1      -4.805 -10.749  -2.450  0.00  0.00    +0.001 A 
ATOM     23  C   UNL     1      -5.240  -9.461  -2.694  0.00  0.00    +0.015 A 
ATOM     24  C   UNL     1      -5.074  -8.493  -1.726  0.00  0.00    +0.020 A 
ATOM     25  S   UNL     1      -5.479  -6.769  -1.616  0.00  0.00    -0.095 S 
ENDBRANCH  16  17
ENDBRANCH  12  16
ENDBRANCH   4   9
BRANCH   1  26
ATOM     26  C   UNL     1      -0.018   1.461   0.010  0.00  0.00    +0.206 C 
BRANCH  26  29
ATOM     27  C   UNL     1       3.845   2.886  -0.019  0.00  0.00    +0.106 C 
ATOM     28  C   UNL     1       2.465   2.377  -0.009  0.00  0.00    -0.104 C 
ATOM     29  C   UNL     1       1.363   1.970  -0.000  0.00  0.00    -0.083 C 
ENDBRANCH  26  29
ENDBRANCH   1  26
BRANCH   4  30
ATOM     30  C   UNL     1       1.309  -2.915   1.086  0.00  0.00    +0.070 C 
BRANCH  30  31
ATOM     31  C   UNL     1       2.515  -2.190   0.547  0.00  0.00    -0.042 A 
ATOM     32  C   UNL     1       3.096  -1.173   1.283  0.00  0.00    +0.004 A 
ATOM     33  C   UNL     1       4.202  -0.507   0.791  0.00  0.00    +0.003 A 
ATOM     34  C   UNL     1       4.730  -0.856  -0.438  0.00  0.00    +0.038 A 
ATOM     35  C   UNL     1       4.150  -1.874  -1.176  0.00  0.00    +0.124 A 
ATOM     36  C   UNL     1       3.045  -2.544  -0.679  0.00  0.00    +0.042 A 
ATOM     37  F   UNL     1       4.665  -2.216  -2.377  0.00  0.00    -0.205 F 
ENDBRANCH  30  31
ENDBRANCH   4  30
TORSDOF 7
