REMARK  Name = ZINC12886376
REMARK  8 active torsions:
REMARK  status: ('A' for Active; 'I' for Inactive)
REMARK    1  A    between atoms: C_1  and  C_2
REMARK    2  A    between atoms: C_17  and  C_19
REMARK    3  A    between atoms: C_19  and  C_20
REMARK    4  A    between atoms: C_20  and  S_21
REMARK    5  A    between atoms: S_21  and  C_22
REMARK    6  A    between atoms: N_25  and  C_28
REMARK    7  A    between atoms: C_28  and  C_29
REMARK    8  A    between atoms: C_29  and  C_30
REMARK                            x       y       z     vdW  Elec       q    Type
REMARK                         _______ _______ _______ _____ _____    ______ ____
ROOT
ATOM      1  C   UNL     1       0.711  -0.905  -5.016  0.00  0.00    +0.044 C 
ATOM      2  C   UNL     1      -0.017  -1.062  -3.706  0.00  0.00    -0.049 A 
ATOM      3  C   UNL     1       0.443  -0.410  -2.575  0.00  0.00    +0.008 A 
ATOM      4  C   UNL     1      -0.222  -0.554  -1.378  0.00  0.00    -0.026 A 
ATOM      5  C   UNL     1      -1.359  -1.351  -1.290  0.00  0.00    +0.054 A 
ATOM      6  C   UNL     1      -1.815  -2.005  -2.433  0.00  0.00    +0.063 A 
ATOM      7  C   UNL     1      -1.144  -1.858  -3.631  0.00  0.00    +0.025 A 
ATOM      8 CL   UNL     1      -3.231  -3.006  -2.351  0.00  0.00    -0.082 Cl
ATOM      9  N   UNL     1      -1.856  -1.342   0.015  0.00  0.00    -0.285 N 
ATOM     10  C   UNL     1      -1.113  -0.573   0.836  0.00  0.00    +0.211 C 
ATOM     11  O   UNL     1      -1.307  -0.378   2.017  0.00  0.00    -0.277 OA
ATOM     12  C   UNL     1       0.002  -0.004   0.002  0.00  0.00    +0.050 C 
ATOM     13  C   UNL     1      -0.019   1.529   0.010  0.00  0.00    +0.088 C 
ATOM     14  C   UNL     1       1.480   1.942  -0.002  0.00  0.00    +0.073 C 
ATOM     15  C   UNL     1       2.257   0.609  -0.043  0.00  0.00    -0.057 C 
ATOM     16  C   UNL     1       1.635   2.648  -1.330  0.00  0.00    +0.224 C 
ATOM     17  O   UNL     1       2.662   3.139  -1.746  0.00  0.00    -0.275 OA
ATOM     18  N   UNL     1       0.463   2.646  -1.974  0.00  0.00    -0.241 N 
ATOM     19  C   UNL     1      -0.533   2.042  -1.315  0.00  0.00    +0.225 C 
ATOM     20  O   UNL     1      -1.670   1.925  -1.718  0.00  0.00    -0.275 OA
ATOM     21  H   UNL     1      -2.644  -1.831   0.298  0.00  0.00    +0.155 HD
ATOM     22  N   UNL     1       1.314  -0.366   0.510  0.00  0.00    +0.394 N 
ATOM     23  H   UNL     1       1.564  -1.314   0.203  0.00  0.00    -0.083 HD
ATOM     24  H   UNL     1       1.322  -0.325   1.536  0.00  0.00    -0.083 HD
ENDROOT
BRANCH  15  25
ATOM     25  C   UNL     1       3.526   0.703   0.806  0.00  0.00    -0.004 C 
BRANCH  25  26
ATOM     26  C   UNL     1       4.302  -0.612   0.711  0.00  0.00    +0.067 C 
BRANCH  26  27
ATOM     27  S   UNL     1       5.806  -0.501   1.718  0.00  0.00    -0.164 S 
ATOM     28  C   UNL     1       6.601  -2.116   1.500  0.00  0.00    +0.084 C 
ENDBRANCH  26  27
ENDBRANCH  25  26
ENDBRANCH  15  25
BRANCH  18  29
ATOM     29  C   UNL     1       0.284   3.254  -3.295  0.00  0.00    +0.121 C 
BRANCH  29  30
ATOM     30  C   UNL     1       0.567   2.212  -4.379  0.00  0.00    +0.054 C 
BRANCH  30  31
ATOM     31  C   UNL     1       0.383   2.838  -5.738  0.00  0.00    -0.046 A 
ATOM     32  C   UNL     1      -0.853   2.798  -6.355  0.00  0.00    +0.004 A 
ATOM     33  C   UNL     1      -1.023   3.376  -7.599  0.00  0.00    +0.000 A 
ATOM     34  C   UNL     1       0.046   3.985  -8.230  0.00  0.00    +0.000 A 
ATOM     35  C   UNL     1       1.283   4.021  -7.615  0.00  0.00    +0.000 A 
ATOM     36  C   UNL     1       1.452   3.447  -6.369  0.00  0.00    +0.004 A 
ENDBRANCH  30  31
ENDBRANCH  29  30
ENDBRANCH  18  29
TORSDOF 6
