REMARK  Name = ZINC09312183
REMARK  13 active torsions:
REMARK  status: ('A' for Active; 'I' for Inactive)
REMARK    1  A    between atoms: C_1  and  C_2
REMARK    2  A    between atoms: C_2  and  N_66
REMARK    3  A    between atoms: C_3  and  C_4
REMARK    4  A    between atoms: C_3  and  N_66
REMARK    5  A    between atoms: C_5  and  C_6
REMARK    6  A    between atoms: C_5  and  N_66
REMARK    7  A    between atoms: C_6  and  N_7
REMARK    8  A    between atoms: C_8  and  C_28
REMARK    9  A    between atoms: C_11  and  C_12
REMARK   10  A    between atoms: C_11  and  O_23
REMARK   11  A    between atoms: C_19  and  C_22
REMARK   12  A    between atoms: C_31  and  O_34
REMARK   13  A    between atoms: O_34  and  C_35
REMARK                            x       y       z     vdW  Elec       q    Type
REMARK                         _______ _______ _______ _____ _____    ______ ____
ROOT
ATOM      1  N   UNL     1      -1.472  -8.160   4.249  0.00  0.00    -0.285 N 
ATOM      2  C   UNL     1      -2.411  -7.379   3.439  0.00  0.00    +0.144 C 
ATOM      3  C   UNL     1      -1.751  -6.045   3.179  0.00  0.00    +0.071 C 
ATOM      4  C   UNL     1      -2.271  -4.989   2.454  0.00  0.00    +0.133 C 
ATOM      5  C   UNL     1      -0.508  -6.091   3.827  0.00  0.00    +0.249 C 
ATOM      6  O   UNL     1       0.318  -5.196   3.851  0.00  0.00    -0.282 OA
ATOM      7  C   UNL     1      -0.373  -7.421   4.479  0.00  0.00    +0.288 C 
ATOM      8  O   UNL     1       0.588  -7.786   5.123  0.00  0.00    -0.266 OA
ENDROOT
BRANCH   4   9
ATOM      9  C   UNL     1      -1.490  -3.753   2.293  0.00  0.00    +0.017 A 
ATOM     10  C   UNL     1      -0.188  -3.801   1.780  0.00  0.00    +0.015 A 
ATOM     11  C   UNL     1       0.539  -2.645   1.634  0.00  0.00    +0.046 A 
ATOM     12  C   UNL     1      -0.009  -1.413   1.995  0.00  0.00    +0.124 A 
ATOM     13  C   UNL     1      -1.307  -1.369   2.497  0.00  0.00    -0.002 A 
ATOM     14  C   UNL     1      -2.043  -2.517   2.651  0.00  0.00    +0.019 A 
ATOM     15  C   UNL     1      -1.628   0.088   2.770  0.00  0.00    +0.083 C 
ATOM     16  C   UNL     1      -0.510   0.814   1.984  0.00  0.00    +0.175 C 
ATOM     17  O   UNL     1       0.538  -0.169   1.941  0.00  0.00    -0.488 OA
ATOM     18  C   UNL     1      -0.048   2.066   2.731  0.00  0.00    +0.052 C 
ENDBRANCH   4   9
BRANCH   2  19
ATOM     19  C   UNL     1      -3.702  -7.179   4.190  0.00  0.00    -0.022 A 
ATOM     20  C   UNL     1      -3.679  -6.945   5.553  0.00  0.00    +0.009 A 
ATOM     21  C   UNL     1      -4.860  -6.756   6.242  0.00  0.00    +0.046 A 
ATOM     22  C   UNL     1      -6.072  -6.811   5.569  0.00  0.00    +0.120 A 
ATOM     23  C   UNL     1      -6.093  -7.051   4.203  0.00  0.00    +0.046 A 
ATOM     24  C   UNL     1      -4.908  -7.235   3.517  0.00  0.00    +0.009 A 
BRANCH  22  25
ATOM     25  O   UNL     1      -7.236  -6.630   6.246  0.00  0.00    -0.495 OA
ATOM     26  C   UNL     1      -7.138  -6.387   7.651  0.00  0.00    +0.277 C 
ENDBRANCH  22  25
ENDBRANCH   2  19
BRANCH   4  27
ATOM     27  O   UNL     1      -3.495  -5.093   1.893  0.00  0.00    -0.506 OA
ATOM     28  H   UNL     1      -3.713  -4.245   1.410  0.00  0.00    +0.292 HD
ENDBRANCH   4  27
BRANCH   1  29
ATOM     29  C   UNL     1      -1.696  -9.524   4.734  0.00  0.00    +0.090 C 
BRANCH  29  30
ATOM     30  C   UNL     1      -2.381  -9.473   6.102  0.00  0.00    -0.060 C 
BRANCH  30  31
ATOM     31  N   UNL     1      -2.619 -10.855   6.567  0.00  0.00    +0.380 N 
ATOM     32  H   UNL     1      -3.104 -11.377   5.828  0.00  0.00    -0.082 HD
BRANCH  31  34
ATOM     33  C   UNL     1      -0.601 -10.797   7.994  0.00  0.00    -0.017 C 
ATOM     34  C   UNL     1      -1.332 -11.519   6.860  0.00  0.00    -0.082 C 
ENDBRANCH  31  34
BRANCH  31  35
ATOM     35  C   UNL     1      -3.467 -10.841   7.778  0.00  0.00    -0.082 C 
ATOM     36  C   UNL     1      -3.989 -12.257   8.030  0.00  0.00    -0.017 C 
ENDBRANCH  31  35
ENDBRANCH  30  31
ENDBRANCH  29  30
ENDBRANCH   1  29
TORSDOF 9
