REMARK  Name = ZINC63302997
REMARK  4 active torsions:
REMARK  status: ('A' for Active; 'I' for Inactive)
REMARK    1  A    between atoms: C_6  and  C_11
REMARK    2  A    between atoms: C_15  and  C_20
REMARK    3  A    between atoms: C_20  and  O_21
REMARK    4  A    between atoms: O_21  and  C_22
REMARK                            x       y       z     vdW  Elec       q    Type
REMARK                         _______ _______ _______ _____ _____    ______ ____
ROOT
ATOM      1  C   UNL     1       3.639  -2.760  -1.304  0.00  0.00    +0.178 C 
ATOM      2  N   UNL     1       3.019  -4.103  -1.458  0.00  0.00    -0.265 N 
ATOM      3  N   UNL     1       1.866  -4.125  -2.185  0.00  0.00    -0.221 N 
ATOM      4  C   UNL     1       0.774  -4.962  -2.332  0.00  0.00    +0.189 A 
ATOM      5  N   UNL     1      -0.005  -4.450  -3.239  0.00  0.00    -0.128 NA
ATOM      6  N   UNL     1       0.491  -3.345  -3.674  0.00  0.00    -0.121 NA
ATOM      7  C   UNL     1       1.605  -3.100  -3.057  0.00  0.00    +0.211 A 
ATOM      8  S   UNL     1       2.966  -1.972  -2.831  0.00  0.00    -0.058 S 
ATOM      9  H   UNL     1       3.686  -4.770  -1.817  0.00  0.00    +0.168 HD
ENDROOT
BRANCH   1  15
ATOM     10  C   UNL     1      -0.016   1.348   0.009  0.00  0.00    +0.001 A 
ATOM     11  C   UNL     1       1.166   2.101   0.002  0.00  0.00    +0.002 A 
ATOM     12  C   UNL     1       2.391   1.535  -0.013  0.00  0.00    +0.026 A 
ATOM     13  C   UNL     1       2.529   0.120  -0.022  0.00  0.00    +0.043 A 
ATOM     14  N   UNL     1       3.587  -0.654  -0.037  0.00  0.00    -0.375 N 
ATOM     15  C   UNL     1       3.143  -2.053  -0.041  0.00  0.00    +0.135 C 
ATOM     16  C   UNL     1       1.631  -2.008  -0.025  0.00  0.00    +0.010 C 
ATOM     17  C   UNL     1       1.295  -0.698  -0.014  0.00  0.00    -0.004 A 
ATOM     18  C   UNL     1       0.002  -0.004   0.002  0.00  0.00    +0.010 A 
ATOM     19  H   UNL     1       4.509  -0.353  -0.045  0.00  0.00    +0.160 HD
ENDBRANCH   1  15
BRANCH   4  20
ATOM     20  C   UNL     1       0.529  -6.241  -1.574  0.00  0.00    +0.306 C 
BRANCH  20  21
ATOM     21  O   UNL     1      -0.204  -5.956  -0.381  0.00  0.00    -0.483 OA
BRANCH  21  22
ATOM     22  C   UNL     1      -0.509  -7.009   0.422  0.00  0.00    +0.139 A 
ATOM     23  C   UNL     1      -0.106  -8.289   0.072  0.00  0.00    +0.048 A 
ATOM     24  C   UNL     1      -0.417  -9.358   0.890  0.00  0.00    +0.023 A 
ATOM     25  C   UNL     1      -1.131  -9.153   2.058  0.00  0.00    +0.043 A 
ATOM     26  C   UNL     1      -1.534  -7.878   2.409  0.00  0.00    +0.043 A 
ATOM     27  C   UNL     1      -1.220  -6.804   1.597  0.00  0.00    +0.084 A 
ATOM     28 CL   UNL     1      -1.720  -5.202   2.042  0.00  0.00    -0.080 Cl
ATOM     29 CL   UNL     1      -1.521 -10.499   3.083  0.00  0.00    -0.083 Cl
ENDBRANCH  21  22
ENDBRANCH  20  21
ENDBRANCH   4  20
TORSDOF 4
