REMARK  Name = ZINC02504589
REMARK  2 active torsions:
REMARK  status: ('A' for Active; 'I' for Inactive)
REMARK    1  A    between atoms: C_3  and  O_13
REMARK    2  A    between atoms: C_6  and  N_7
REMARK                            x       y       z     vdW  Elec       q    Type
REMARK                         _______ _______ _______ _____ _____    ______ ____
ROOT
ATOM      1  C   UNL     1      -2.675   4.196  -0.645  0.00  0.00    +0.031 A 
ATOM      2  C   UNL     1      -3.462   5.330  -0.627  0.00  0.00    +0.047 A 
ATOM      3  C   UNL     1      -3.041   6.457   0.065  0.00  0.00    +0.117 A 
ATOM      4  C   UNL     1      -1.831   6.442   0.744  0.00  0.00    +0.047 A 
ATOM      5  C   UNL     1      -1.045   5.307   0.731  0.00  0.00    +0.031 A 
ATOM      6  C   UNL     1      -1.467   4.179   0.038  0.00  0.00    +0.070 A 
ENDROOT
BRANCH   6   7
ATOM      7  N   UNL     1      -0.669   3.026   0.025  0.00  0.00    -0.187 N 
ATOM      8  C   UNL     1      -1.111   1.750   0.016  0.00  0.00    +0.225 A 
ATOM      9  S   UNL     1      -2.742   1.229   0.020  0.00  0.00    -0.007 SA
ATOM     10  N   UNL     1      -0.011   0.966   0.007  0.00  0.00    -0.100 NA
ATOM     11  N   UNL     1       1.107   1.809   0.001  0.00  0.00    -0.022 NA
ATOM     12  N   UNL     1       0.730   2.987   0.011  0.00  0.00    -0.038 NA
ENDBRANCH   6   7
BRANCH   3  13
ATOM     13  O   UNL     1      -3.814   7.575   0.079  0.00  0.00    -0.507 OA
ATOM     14  H   UNL     1      -3.480   8.468   0.627  0.00  0.00    +0.292 HD
ENDBRANCH   3  13
TORSDOF 2
