REMARK  Name = ZINC01409663
REMARK  5 active torsions:
REMARK  status: ('A' for Active; 'I' for Inactive)
REMARK    1  A    between atoms: C_1  and  N_2
REMARK    2  A    between atoms: C_6  and  C_7
REMARK    3  A    between atoms: C_19  and  S_22
REMARK    4  A    between atoms: S_22  and  C_23
REMARK    5  A    between atoms: C_23  and  C_24
REMARK                            x       y       z     vdW  Elec       q    Type
REMARK                         _______ _______ _______ _____ _____    ______ ____
ROOT
ATOM      1  C   UNL     1       1.946  -0.636  -1.204  0.00  0.00    +0.310 C 
ATOM      2  N   UNL     1       2.010   0.706  -1.775  0.00  0.00    -0.304 N 
ATOM      3  C   UNL     1       2.252   1.787  -0.923  0.00  0.00    +0.039 A 
ATOM      4  C   UNL     1       3.443   2.489  -0.970  0.00  0.00    +0.024 A 
ATOM      5  C   UNL     1       3.657   3.541  -0.098  0.00  0.00    +0.002 A 
ATOM      6  C   UNL     1       2.688   3.897   0.823  0.00  0.00    +0.001 A 
ATOM      7  C   UNL     1       1.489   3.211   0.877  0.00  0.00    +0.012 A 
ATOM      8  C   UNL     1       1.257   2.158   0.002  0.00  0.00    +0.028 A 
ATOM      9  C   UNL     1      -0.017   1.409   0.010  0.00  0.00    +0.156 A 
ATOM     10  C   UNL     1       0.002  -0.004   0.002  0.00  0.00    +0.248 A 
ATOM     11  N   UNL     1      -1.149  -0.655   0.000  0.00  0.00    -0.184 NA
ATOM     12  C   UNL     1      -2.286   0.035   0.009  0.00  0.00    +0.213 A 
ATOM     13  N   UNL     1      -2.282   1.362   0.021  0.00  0.00    -0.122 NA
ATOM     14  N   UNL     1      -1.184   2.035   0.019  0.00  0.00    -0.141 NA
ATOM     15  O   UNL     1       1.185  -0.663  -0.001  0.00  0.00    -0.447 OA
ATOM     16  H   UNL     1       1.887   0.844  -2.727  0.00  0.00    +0.150 HD
ENDROOT
BRANCH   1  22
ATOM     17  C   UNL     1       2.780  -2.667   0.986  0.00  0.00    +0.148 C 
ATOM     18  N   UNL     1       3.700  -2.006   0.057  0.00  0.00    -0.349 N 
ATOM     19  C   UNL     1       5.051  -2.183   0.015  0.00  0.00    +0.086 A 
ATOM     20  C   UNL     1       5.548  -1.407  -0.969  0.00  0.00    +0.019 A 
ATOM     21  C   UNL     1       4.464  -0.730  -1.560  0.00  0.00    +0.028 A 
ATOM     22  C   UNL     1       3.346  -1.111  -0.909  0.00  0.00    +0.078 A 
ENDBRANCH   1  22
BRANCH  12  23
ATOM     23  S   UNL     1      -3.823  -0.828   0.006  0.00  0.00    -0.080 S 
BRANCH  23  24
ATOM     24  C   UNL     1      -4.969   0.573   0.022  0.00  0.00    +0.112 C 
BRANCH  24  25
ATOM     25  C   UNL     1      -6.387   0.061   0.021  0.00  0.00    -0.037 A 
ATOM     26  C   UNL     1      -7.042  -0.157  -1.176  0.00  0.00    +0.006 A 
ATOM     27  C   UNL     1      -8.340  -0.632  -1.177  0.00  0.00    +0.020 A 
ATOM     28  C   UNL     1      -8.988  -0.877   0.021  0.00  0.00    +0.041 A 
ATOM     29  C   UNL     1      -8.333  -0.652   1.219  0.00  0.00    +0.020 A 
ATOM     30  C   UNL     1      -7.033  -0.183   1.219  0.00  0.00    +0.006 A 
ATOM     31 CL   UNL     1     -10.621  -1.466   0.020  0.00  0.00    -0.084 Cl
ENDBRANCH  24  25
ENDBRANCH  23  24
ENDBRANCH  12  23
TORSDOF 4
