REMARK  Name = ZINC64403583
REMARK  7 active torsions:
REMARK  status: ('A' for Active; 'I' for Inactive)
REMARK    1  A    between atoms: C_1  and  O_2
REMARK    2  A    between atoms: O_2  and  C_3
REMARK    3  A    between atoms: C_6  and  C_9
REMARK    4  A    between atoms: C_15  and  C_16
REMARK    5  A    between atoms: N_18  and  C_19
REMARK    6  A    between atoms: C_19  and  C_20
REMARK    7  A    between atoms: C_20  and  C_21
REMARK                            x       y       z     vdW  Elec       q    Type
REMARK                         _______ _______ _______ _____ _____    ______ ____
ROOT
ATOM      1  C   UNL     1       2.065  -6.662   6.645  0.00  0.00    +0.239 C 
ATOM      2  O   UNL     1       3.108  -6.939   6.080  0.00  0.00    -0.271 OA
ATOM      3  N   UNL     1       1.478  -7.562   7.457  0.00  0.00    -0.311 N 
ATOM      4  H   UNL     1       0.648  -7.341   7.907  0.00  0.00    +0.149 HD
ENDROOT
BRANCH   1  10
ATOM      5  C   UNL     1       2.587  -2.550   4.310  0.00  0.00    +0.184 C 
ATOM      6  C   UNL     1       1.554  -3.096   5.319  0.00  0.00    +0.094 C 
ATOM      7  C   UNL     1       2.058  -4.492   5.635  0.00  0.00    +0.047 C 
ATOM      8  N   UNL     1       3.225  -4.661   4.937  0.00  0.00    -0.269 N 
ATOM      9  O   UNL     1       3.276  -3.733   3.862  0.00  0.00    -0.266 OA
ATOM     10  C   UNL     1       1.471  -5.393   6.448  0.00  0.00    +0.090 C 
ATOM     11  H   UNL     1       3.913  -5.313   5.146  0.00  0.00    +0.194 HD
BRANCH   5  15
ATOM     12  C   UNL     1       0.626  -0.618   1.042  0.00  0.00    +0.120 A 
ATOM     13  C   UNL     1       1.202   0.138   2.051  0.00  0.00    +0.046 A 
ATOM     14  C   UNL     1       1.835  -0.488   3.107  0.00  0.00    +0.010 A 
ATOM     15  C   UNL     1       1.895  -1.869   3.158  0.00  0.00    -0.016 A 
ATOM     16  C   UNL     1       1.322  -2.625   2.152  0.00  0.00    +0.010 A 
ATOM     17  C   UNL     1       0.682  -2.003   1.098  0.00  0.00    +0.046 A 
BRANCH  12  19
ATOM     18  C   UNL     1      -0.017   1.425   0.010  0.00  0.00    +0.277 C 
ATOM     19  O   UNL     1       0.002  -0.004   0.002  0.00  0.00    -0.495 OA
ENDBRANCH  12  19
ENDBRANCH   5  15
ENDBRANCH   1  10
BRANCH   3  20
ATOM     20  C   UNL     1       2.094  -8.876   7.660  0.00  0.00    +0.109 C 
BRANCH  20  21
ATOM     21  C   UNL     1       1.233  -9.700   8.620  0.00  0.00    +0.052 C 
BRANCH  21  22
ATOM     22  C   UNL     1       1.866 -11.051   8.829  0.00  0.00    -0.040 C 
ATOM     23  C   UNL     1       2.690 -11.416   9.838  0.00  0.00    -0.001 A 
ATOM     24  C   UNL     1       3.224 -10.691  10.997  0.00  0.00    +0.010 A 
ATOM     25  C   UNL     1       4.046 -11.338  11.854  0.00  0.00    +0.001 A 
ATOM     26  C   UNL     1       4.402 -12.680  11.662  0.00  0.00    +0.002 A 
ATOM     27  C   UNL     1       3.952 -13.412  10.621  0.00  0.00    +0.026 A 
ATOM     28  C   UNL     1       3.080 -12.832   9.659  0.00  0.00    +0.043 A 
ATOM     29  N   UNL     1       2.519 -13.325   8.581  0.00  0.00    -0.380 N 
ATOM     30  C   UNL     1       1.704 -12.276   7.957  0.00  0.00    +0.144 C 
ATOM     31  H   UNL     1       2.623 -14.232   8.253  0.00  0.00    +0.160 HD
ENDBRANCH  21  22
ENDBRANCH  20  21
ENDBRANCH   3  20
TORSDOF 6
