REMARK  Name = ZINC16904642
REMARK  4 active torsions:
REMARK  status: ('A' for Active; 'I' for Inactive)
REMARK    1  A    between atoms: C_1  and  C_2
REMARK    2  A    between atoms: C_5  and  N_9
REMARK    3  A    between atoms: C_6  and  O_8
REMARK    4  A    between atoms: C_15  and  C_16
REMARK                            x       y       z     vdW  Elec       q    Type
REMARK                         _______ _______ _______ _____ _____    ______ ____
ROOT
ATOM      1  N   UNL     1       6.634   2.744  -0.048  0.00  0.00    -0.222 NA
ATOM      2  C   UNL     1       5.474   3.352   0.056  0.00  0.00    +0.166 C 
ATOM      3  N   UNL     1       5.188   4.689  -0.120  0.00  0.00    -0.260 N 
ATOM      4  C   UNL     1       3.952   5.137   0.023  0.00  0.00    +0.257 C 
ATOM      5  O   UNL     1       3.681   6.314  -0.129  0.00  0.00    -0.269 OA
ATOM      6  C   UNL     1       2.918   4.150   0.375  0.00  0.00    +0.081 C 
ATOM      7  C   UNL     1       1.583   4.333   0.582  0.00  0.00    +0.066 C 
ATOM      8  S   UNL     1       3.885   2.650   0.466  0.00  0.00    -0.049 S 
ATOM      9  H   UNL     1       5.899   5.306  -0.351  0.00  0.00    +0.157 HD
ENDROOT
BRANCH   1  14
ATOM     10  C   UNL     1       6.915  -2.885   0.345  0.00  0.00    +0.044 C 
ATOM     11  C   UNL     1       6.842  -1.383   0.242  0.00  0.00    -0.047 A 
ATOM     12  C   UNL     1       5.920  -0.795  -0.606  0.00  0.00    +0.005 A 
ATOM     13  C   UNL     1       5.845   0.579  -0.707  0.00  0.00    +0.032 A 
ATOM     14  C   UNL     1       6.703   1.380   0.049  0.00  0.00    +0.108 A 
ATOM     15  C   UNL     1       7.639   0.780   0.901  0.00  0.00    +0.142 A 
ATOM     16  C   UNL     1       7.698  -0.599   0.996  0.00  0.00    +0.051 A 
BRANCH  15  17
ATOM     17  O   UNL     1       8.484   1.551   1.637  0.00  0.00    -0.505 OA
ATOM     18  H   UNL     1       8.139   1.790   2.508  0.00  0.00    +0.292 HD
ENDBRANCH  15  17
ENDBRANCH   1  14
BRANCH   7  19
ATOM     19  C   UNL     1       0.762   3.231   0.915  0.00  0.00    +0.129 A 
ATOM     20  C   UNL     1      -0.598   3.271   1.150  0.00  0.00    +0.049 A 
ATOM     21  C   UNL     1      -0.992   1.955   1.437  0.00  0.00    +0.042 A 
ATOM     22  C   UNL     1       0.115   1.183   1.377  0.00  0.00    +0.195 A 
ATOM     23  O   UNL     1       1.167   1.952   1.059  0.00  0.00    -0.463 OA
ENDBRANCH   7  19
TORSDOF 3
