REMARK  Name = ZINC59488660
REMARK  11 active torsions:
REMARK  status: ('A' for Active; 'I' for Inactive)
REMARK    1  A    between atoms: C_1  and  N_2
REMARK    2  A    between atoms: N_2  and  C_3
REMARK    3  A    between atoms: N_2  and  C_4
REMARK    4  A    between atoms: C_7  and  N_34
REMARK    5  A    between atoms: C_9  and  C_10
REMARK    6  A    between atoms: N_11  and  N_12
REMARK    7  A    between atoms: N_12  and  C_13
REMARK    8  A    between atoms: C_16  and  N_31
REMARK    9  A    between atoms: C_18  and  S_19
REMARK   10  A    between atoms: S_19  and  N_22
REMARK   11  A    between atoms: C_25  and  C_28
REMARK                            x       y       z     vdW  Elec       q    Type
REMARK                         _______ _______ _______ _____ _____    ______ ____
ROOT
ATOM      1  C   UNL     1      -3.550   1.536   1.832  0.00  0.00    +0.075 A 
ATOM      2  C   UNL     1      -2.318   2.017   2.261  0.00  0.00    +0.029 A 
ATOM      3  C   UNL     1      -2.262   2.984   3.245  0.00  0.00    +0.035 A 
ATOM      4  C   UNL     1      -3.429   3.474   3.803  0.00  0.00    +0.128 A 
ATOM      5  C   UNL     1      -4.655   2.997   3.380  0.00  0.00    +0.063 A 
ATOM      6  C   UNL     1      -4.720   2.034   2.392  0.00  0.00    +0.130 A 
ENDROOT
BRANCH   6   7
ATOM      7  S   UNL     1      -6.285   1.433   1.847  0.00  0.00    +0.063 S 
ATOM      8  O   UNL     1      -6.187   0.015   1.818  0.00  0.00    -0.153 OA
ATOM      9  O   UNL     1      -7.270   2.113   2.613  0.00  0.00    -0.153 OA
BRANCH   7  10
ATOM     10  N   UNL     1      -6.480   1.927   0.279  0.00  0.00    -0.176 NA
ATOM     11  C   UNL     1      -6.979   3.275  -0.025  0.00  0.00    +0.110 C 
ATOM     12  C   UNL     1      -8.187   3.155  -0.960  0.00  0.00    +0.030 C 
ATOM     13  C   UNL     1      -7.793   2.337  -2.192  0.00  0.00    +0.077 C 
ATOM     14  C   UNL     1      -7.374   0.930  -1.761  0.00  0.00    +0.030 C 
ATOM     15  C   UNL     1      -6.152   1.027  -0.836  0.00  0.00    +0.110 C 
BRANCH  13  16
ATOM     16  C   UNL     1      -8.969   2.246  -3.130  0.00  0.00    +0.214 C 
ATOM     17  O   UNL     1     -10.018   2.781  -2.841  0.00  0.00    -0.276 OA
ATOM     18  N   UNL     1      -8.855   1.569  -4.290  0.00  0.00    -0.329 N 
ATOM     19  H   UNL     1      -8.016   1.141  -4.521  0.00  0.00    +0.145 HD
ATOM     20  H   UNL     1      -9.612   1.510  -4.894  0.00  0.00    +0.145 HD
ENDBRANCH  13  16
ENDBRANCH   7  10
ENDBRANCH   6   7
BRANCH   4  21
ATOM     21  N   UNL     1      -3.363   4.511   4.859  0.00  0.00    +0.056 N 
ATOM     22  O   UNL     1      -2.291   4.928   5.231  0.00  0.00    -0.126 OA
ATOM     23  O   UNL     1      -4.382   4.940   5.348  0.00  0.00    -0.126 OA
ENDBRANCH   4  21
BRANCH   1  24
ATOM     24  N   UNL     1      -3.611   0.559   0.837  0.00  0.00    -0.236 N 
ATOM     25  H   UNL     1      -4.471   0.212   0.551  0.00  0.00    +0.174 HD
BRANCH  24  27
ATOM     26  C   UNL     1      -2.487  -0.852  -0.650  0.00  0.00    +0.140 C 
ATOM     27  N   UNL     1      -2.432   0.079   0.253  0.00  0.00    -0.190 NA
BRANCH  26  33
ATOM     28  C   UNL     1      -0.040  -0.637  -1.079  0.00  0.00    +0.038 A 
ATOM     29  C   UNL     1       1.110  -1.048  -1.737  0.00  0.00    +0.026 A 
ATOM     30  C   UNL     1       1.051  -2.079  -2.656  0.00  0.00    +0.034 A 
ATOM     31  C   UNL     1      -0.152  -2.707  -2.928  0.00  0.00    +0.127 A 
ATOM     32  C   UNL     1      -1.306  -2.312  -2.283  0.00  0.00    +0.044 A 
ATOM     33  C   UNL     1      -1.260  -1.276  -1.347  0.00  0.00    +0.018 A 
BRANCH  28  35
ATOM     34  C   UNL     1      -0.191   1.785  -0.586  0.00  0.00    +0.129 C 
ATOM     35  N   UNL     1       0.018   0.402  -0.151  0.00  0.00    -0.336 N 
ATOM     36  C   UNL     1       0.289   0.110   1.259  0.00  0.00    +0.129 C 
ENDBRANCH  28  35
BRANCH  31  37
ATOM     37  N   UNL     1      -0.202  -3.809  -3.916  0.00  0.00    +0.056 N 
ATOM     38  O   UNL     1       0.807  -4.158  -4.483  0.00  0.00    -0.126 OA
ATOM     39  O   UNL     1      -1.251  -4.360  -4.155  0.00  0.00    -0.126 OA
ENDBRANCH  31  37
ENDBRANCH  26  33
ENDBRANCH  24  27
ENDBRANCH   1  24
TORSDOF 9
