REMARK  Name = ZINC03091783
REMARK  7 active torsions:
REMARK  status: ('A' for Active; 'I' for Inactive)
REMARK    1  A    between atoms: C_4  and  O_7
REMARK    2  A    between atoms: O_7  and  C_8
REMARK    3  A    between atoms: C_12  and  C_14
REMARK    4  A    between atoms: N_15  and  N_16
REMARK    5  A    between atoms: C_17  and  C_19
REMARK    6  A    between atoms: C_19  and  N_20
REMARK    7  A    between atoms: N_20  and  C_21
REMARK                            x       y       z     vdW  Elec       q    Type
REMARK                         _______ _______ _______ _____ _____    ______ ____
ROOT
ATOM      1  C   UNL     1      -0.380   1.525  -4.774  0.00  0.00    +0.138 C 
ATOM      2  N   UNL     1      -0.796   1.823  -3.582  0.00  0.00    -0.188 NA
ENDROOT
BRANCH   1   7
ATOM      3  C   UNL     1      -1.429   2.062  -8.341  0.00  0.00    +0.129 A 
ATOM      4  C   UNL     1      -2.596   2.795  -8.169  0.00  0.00    +0.046 A 
ATOM      5  C   UNL     1      -3.039   3.111  -6.898  0.00  0.00    +0.004 A 
ATOM      6  C   UNL     1      -2.324   2.702  -5.791  0.00  0.00    +0.010 A 
ATOM      7  C   UNL     1      -1.148   1.965  -5.954  0.00  0.00    -0.002 A 
ATOM      8  C   UNL     1      -0.700   1.650  -7.239  0.00  0.00    +0.055 A 
BRANCH   3   9
ATOM      9  O   UNL     1      -0.999   1.755  -9.593  0.00  0.00    -0.456 OA
BRANCH   9  13
ATOM     10  C   UNL     1      -1.063  -2.207 -10.744  0.00  0.00    +0.000 A 
ATOM     11  C   UNL     1      -0.497  -1.256 -11.573  0.00  0.00    +0.004 A 
ATOM     12  C   UNL     1      -0.474   0.071 -11.190  0.00  0.00    +0.046 A 
ATOM     13  C   UNL     1      -1.020   0.450  -9.972  0.00  0.00    +0.128 A 
ATOM     14  C   UNL     1      -1.583  -0.507  -9.139  0.00  0.00    +0.046 A 
ATOM     15  C   UNL     1      -1.607  -1.832  -9.529  0.00  0.00    +0.004 A 
ENDBRANCH   9  13
ENDBRANCH   3   9
ENDBRANCH   1   7
BRANCH   2  16
ATOM     16  N   UNL     1      -0.067   1.406  -2.461  0.00  0.00    -0.206 N 
ATOM     17  C   UNL     1      -0.498   1.716  -1.222  0.00  0.00    +0.249 C 
ATOM     18  O   UNL     1      -1.519   2.356  -1.078  0.00  0.00    -0.272 OA
ATOM     19  H   UNL     1       0.749   0.894  -2.576  0.00  0.00    +0.177 HD
BRANCH  17  20
ATOM     20  C   UNL     1       0.286   1.267  -0.016  0.00  0.00    +0.199 C 
BRANCH  20  21
ATOM     21  N   UNL     1      -0.386   1.726   1.202  0.00  0.00    -0.334 N 
ATOM     22  H   UNL     1      -1.209   2.236   1.139  0.00  0.00    +0.147 HD
BRANCH  21  23
ATOM     23  C   UNL     1       0.158   1.428   2.454  0.00  0.00    +0.042 A 
ATOM     24  C   UNL     1       1.336   0.698   2.546  0.00  0.00    +0.025 A 
ATOM     25  C   UNL     1       1.872   0.406   3.785  0.00  0.00    +0.017 A 
ATOM     26  C   UNL     1       1.236   0.839   4.935  0.00  0.00    +0.019 A 
ATOM     27  C   UNL     1       0.063   1.567   4.848  0.00  0.00    +0.032 A 
ATOM     28  C   UNL     1      -0.475   1.867   3.611  0.00  0.00    +0.040 A 
ATOM     29 BR   UNL     1      -2.075   2.869   3.492  0.00  0.00    -0.048 Br
ATOM     30 BR   UNL     1       1.974   0.437   6.629  0.00  0.00    -0.050 Br
ENDBRANCH  21  23
ENDBRANCH  20  21
ENDBRANCH  17  20
ENDBRANCH   2  16
TORSDOF 7
