REMARK  Name = ZINC05271128
REMARK  9 active torsions:
REMARK  status: ('A' for Active; 'I' for Inactive)
REMARK    1  A    between atoms: C_1  and  C_2
REMARK    2  A    between atoms: C_2  and  C_3
REMARK    3  A    between atoms: C_3  and  C_4
REMARK    4  A    between atoms: C_4  and  C_6
REMARK    5  A    between atoms: C_4  and  C_7
REMARK    6  A    between atoms: C_9  and  C_26
REMARK    7  A    between atoms: N_13  and  C_18
REMARK    8  A    between atoms: C_21  and  C_25
REMARK    9  A    between atoms: C_22  and  C_24
REMARK                            x       y       z     vdW  Elec       q    Type
REMARK                         _______ _______ _______ _____ _____    ______ ____
ROOT
ATOM      1  C   UNL     1       0.002  -0.004   0.002  0.00  0.00    +0.135 A 
ATOM      2  N   UNL     1       0.573  -0.624  -1.008  0.00  0.00    -0.225 NA
ATOM      3  C   UNL     1       0.620  -1.958  -1.058  0.00  0.00    +0.154 A 
ATOM      4  C   UNL     1       0.040  -2.683  -0.018  0.00  0.00    +0.117 A 
ATOM      5  C   UNL     1      -0.562  -1.975   1.037  0.00  0.00    +0.170 A 
ATOM      6  N   UNL     1      -0.558  -0.653   1.006  0.00  0.00    -0.212 NA
ATOM      7  N   UNL     1      -1.051  -2.922   1.920  0.00  0.00    -0.245 N 
ATOM      8  C   UNL     1      -0.765  -4.145   1.435  0.00  0.00    +0.333 A 
ATOM      9  O   UNL     1      -1.058  -5.197   1.972  0.00  0.00    -0.246 OA
ATOM     10  N   UNL     1      -0.106  -4.029   0.266  0.00  0.00    -0.303 N 
ATOM     11  H   UNL     1       0.211  -4.763  -0.283  0.00  0.00    +0.171 HD
ENDROOT
BRANCH   7  12
ATOM     12  C   UNL     1      -1.730  -2.653   3.116  0.00  0.00    +0.053 A 
ATOM     13  C   UNL     1      -1.962  -1.340   3.504  0.00  0.00    +0.026 A 
ATOM     14  C   UNL     1      -2.631  -1.078   4.684  0.00  0.00    +0.005 A 
ATOM     15  C   UNL     1      -3.069  -2.121   5.478  0.00  0.00    -0.047 A 
ATOM     16  C   UNL     1      -2.840  -3.430   5.094  0.00  0.00    -0.046 A 
ATOM     17  C   UNL     1      -2.175  -3.698   3.913  0.00  0.00    +0.030 A 
ATOM     18  C   UNL     1      -3.320  -4.564   5.963  0.00  0.00    +0.044 C 
ATOM     19  C   UNL     1      -3.799  -1.832   6.764  0.00  0.00    +0.044 C 
ENDBRANCH   7  12
BRANCH   3  20
ATOM     20  C   UNL     1       1.268  -2.650  -2.196  0.00  0.00    +0.262 C 
ATOM     21  O   UNL     1       1.300  -3.864  -2.230  0.00  0.00    -0.269 OA
ATOM     22  N   UNL     1       1.824  -1.933  -3.193  0.00  0.00    -0.324 N 
ATOM     23  H   UNL     1       1.799  -0.964  -3.166  0.00  0.00    +0.145 HD
ATOM     24  H   UNL     1       2.248  -2.387  -3.938  0.00  0.00    +0.145 HD
ENDBRANCH   3  20
BRANCH   1  25
ATOM     25  C   UNL     1      -0.018   1.503   0.010  0.00  0.00    +0.054 C 
ATOM     26  C   UNL     1       1.417   2.032  -0.001  0.00  0.00    +0.015 C 
BRANCH  25  27
ATOM     27  C   UNL     1      -0.758   2.010  -1.229  0.00  0.00    +0.011 C 
BRANCH  27  29
ATOM     28  C   UNL     1      -1.628   4.039  -2.398  0.00  0.00    +0.004 C 
ATOM     29  C   UNL     1      -0.888   3.532  -1.159  0.00  0.00    -0.003 C 
ENDBRANCH  27  29
ENDBRANCH  25  27
ENDBRANCH   1  25
TORSDOF 5
