REMARK  Name = ZINC32230247
REMARK  4 active torsions:
REMARK  status: ('A' for Active; 'I' for Inactive)
REMARK    1  A    between atoms: C_1  and  C_2
REMARK    2  A    between atoms: C_5  and  C_9
REMARK    3  A    between atoms: C_7  and  C_8
REMARK    4  A    between atoms: C_15  and  C_17
REMARK                            x       y       z     vdW  Elec       q    Type
REMARK                         _______ _______ _______ _____ _____    ______ ____
ROOT
ATOM      1  C   UNL     1       2.478   1.076  -0.015  0.00  0.00    +0.186 A 
ATOM      2  N   UNL     1       3.650   1.598  -0.297  0.00  0.00    -0.126 NA
ATOM      3  N   UNL     1       4.564   0.695  -0.216  0.00  0.00    -0.120 NA
ATOM      4  C   UNL     1       4.026  -0.441   0.119  0.00  0.00    +0.218 A 
ATOM      5  N   UNL     1       2.672  -0.268   0.273  0.00  0.00    -0.186 N 
ATOM      6  N   UNL     1       1.941  -1.394   0.627  0.00  0.00    -0.160 NA
ATOM      7  C   UNL     1       2.515  -2.545   0.812  0.00  0.00    +0.104 A 
ATOM      8  S   UNL     1       4.230  -2.166   0.487  0.00  0.00    -0.031 S 
ENDROOT
BRANCH   1  13
ATOM      9  C   UNL     1      -2.554   3.865   0.045  0.00  0.00    +0.044 C 
ATOM     10  C   UNL     1      -1.236   3.134   0.030  0.00  0.00    -0.047 A 
ATOM     11  C   UNL     1      -1.215   1.751   0.017  0.00  0.00    +0.004 A 
ATOM     12  C   UNL     1      -0.013   1.076   0.008  0.00  0.00    +0.012 A 
ATOM     13  C   UNL     1       1.186   1.792   0.000  0.00  0.00    +0.021 A 
ATOM     14  C   UNL     1       1.158   3.188   0.008  0.00  0.00    +0.015 A 
ATOM     15  C   UNL     1      -0.052   3.850   0.022  0.00  0.00    -0.047 A 
ATOM     16  C   UNL     1      -0.084   5.357   0.031  0.00  0.00    +0.044 C 
ENDBRANCH   1  13
BRANCH   7  17
ATOM     17  C   UNL     1       1.894  -3.862   1.200  0.00  0.00    +0.029 C 
ATOM     18  C   UNL     1       2.170  -4.899   0.108  0.00  0.00    +0.006 C 
ATOM     19  C   UNL     1       1.587  -6.248   0.538  0.00  0.00    -0.018 C 
ATOM     20  C   UNL     1       2.203  -6.661   1.877  0.00  0.00    -0.083 C 
ATOM     21  N   UNL     1       1.910  -5.637   2.888  0.00  0.00    +0.379 N 
ATOM     22  C   UNL     1       2.500  -4.343   2.520  0.00  0.00    -0.072 C 
ATOM     23  H   UNL     1       0.821  -5.512   2.980  0.00  0.00    -0.086 HD
ATOM     24  H   UNL     1       2.326  -5.949   3.857  0.00  0.00    -0.086 HD
ENDBRANCH   7  17
TORSDOF 2
