REMARK  Name = ZINC01877109
REMARK  5 active torsions:
REMARK  status: ('A' for Active; 'I' for Inactive)
REMARK    1  A    between atoms: C_4  and  C_7
REMARK    2  A    between atoms: C_7  and  N_8
REMARK    3  A    between atoms: C_11  and  N_14
REMARK    4  A    between atoms: C_34  and  C_36
REMARK    5  A    between atoms: C_40  and  N_42
REMARK                            x       y       z     vdW  Elec       q    Type
REMARK                         _______ _______ _______ _____ _____    ______ ____
ROOT
ATOM      1  N   UNL     1       5.453  -2.756   4.914  0.00  0.00    -0.288 N 
ATOM      2  C   UNL     1       5.533  -1.548   5.718  0.00  0.00    +0.204 C 
ATOM      3  C   UNL     1       6.053  -1.820   7.092  0.00  0.00    +0.234 C 
ATOM      4  O   UNL     1       6.184  -0.878   7.844  0.00  0.00    -0.274 OA
ATOM      5  N   UNL     1       6.382  -3.031   7.547  0.00  0.00    -0.276 N 
ATOM      6  C   UNL     1       6.193  -4.255   6.771  0.00  0.00    +0.167 C 
ATOM      7  C   UNL     1       5.742  -3.972   5.374  0.00  0.00    +0.237 C 
ATOM      8  O   UNL     1       5.636  -4.908   4.610  0.00  0.00    -0.274 OA
ATOM      9  C   UNL     1       5.156  -5.143   7.473  0.00  0.00    +0.069 C 
ATOM     10  C   UNL     1       5.478  -5.193   8.945  0.00  0.00    -0.015 A 
ATOM     11  C   UNL     1       5.020  -6.149   9.933  0.00  0.00    +0.003 A 
ATOM     12  C   UNL     1       4.187  -7.269   9.853  0.00  0.00    +0.010 A 
ATOM     13  C   UNL     1       3.966  -7.962  11.018  0.00  0.00    +0.001 A 
ATOM     14  C   UNL     1       4.536  -7.580  12.221  0.00  0.00    +0.002 A 
ATOM     15  C   UNL     1       5.363  -6.475  12.329  0.00  0.00    +0.026 A 
ATOM     16  C   UNL     1       5.606  -5.753  11.162  0.00  0.00    +0.047 A 
ATOM     17  N   UNL     1       6.355  -4.638  10.915  0.00  0.00    -0.356 N 
ATOM     18  H   UNL     1       6.866  -4.151  11.580  0.00  0.00    +0.166 HD
ATOM     19  C   UNL     1       6.275  -4.312   9.587  0.00  0.00    +0.046 A 
ATOM     20  C   UNL     1       6.964  -3.155   8.901  0.00  0.00    +0.154 C 
ENDROOT
BRANCH   1  24
ATOM     21  N   UNL     1       4.161  -0.914   1.350  0.00  0.00    +0.382 N 
ATOM     22  C   UNL     1       3.210  -1.818   2.008  0.00  0.00    -0.077 C 
ATOM     23  C   UNL     1       3.620  -2.021   3.468  0.00  0.00    +0.004 C 
ATOM     24  C   UNL     1       5.024  -2.630   3.519  0.00  0.00    +0.073 C 
ATOM     25  C   UNL     1       5.994  -1.714   2.766  0.00  0.00    +0.004 C 
ATOM     26  C   UNL     1       5.496  -1.523   1.332  0.00  0.00    -0.077 C 
ATOM     27  H   UNL     1       4.197  -0.042   1.856  0.00  0.00    -0.081 HD
BRANCH  21  28
ATOM     28  C   UNL     1       3.720  -0.661  -0.028  0.00  0.00    -0.043 C 
BRANCH  28  32
ATOM     29  C   UNL     1      -0.007   1.425   0.026  0.00  0.00    +0.000 A 
ATOM     30  C   UNL     1       1.181   2.132   0.023  0.00  0.00    +0.000 A 
ATOM     31  C   UNL     1       2.387   1.457   0.006  0.00  0.00    +0.002 A 
ATOM     32  C   UNL     1       2.405   0.075  -0.008  0.00  0.00    -0.064 A 
ATOM     33  C   UNL     1       1.218  -0.632  -0.004  0.00  0.00    +0.002 A 
ATOM     34  C   UNL     1       0.011   0.043   0.012  0.00  0.00    +0.000 A 
ENDBRANCH  28  32
ENDBRANCH  21  28
ENDBRANCH   1  24
BRANCH  20  35
ATOM     35  C   UNL     1       8.443  -3.427   8.799  0.00  0.00    -0.019 A 
ATOM     36  C   UNL     1       8.891  -4.607   8.235  0.00  0.00    +0.006 A 
ATOM     37  C   UNL     1      10.248  -4.856   8.142  0.00  0.00    +0.003 A 
ATOM     38  C   UNL     1      11.156  -3.925   8.612  0.00  0.00    +0.033 A 
ATOM     39  C   UNL     1      10.707  -2.746   9.175  0.00  0.00    +0.127 A 
ATOM     40  C   UNL     1       9.351  -2.494   9.264  0.00  0.00    +0.038 A 
BRANCH  39  41
ATOM     41  N   UNL     1      11.679  -1.750   9.678  0.00  0.00    +0.056 N 
ATOM     42  O   UNL     1      12.866  -1.968   9.597  0.00  0.00    -0.126 OA
ATOM     43  O   UNL     1      11.287  -0.717  10.171  0.00  0.00    -0.126 OA
ENDBRANCH  39  41
ENDBRANCH  20  35
TORSDOF 5
