REMARK  Name = ZINC21253655
REMARK  6 active torsions:
REMARK  status: ('A' for Active; 'I' for Inactive)
REMARK    1  A    between atoms: C_1  and  C_2
REMARK    2  A    between atoms: C_2  and  O_3
REMARK    3  A    between atoms: O_3  and  C_4
REMARK    4  A    between atoms: C_6  and  C_12
REMARK    5  A    between atoms: C_9  and  O_10
REMARK    6  A    between atoms: C_23  and  C_26
REMARK                            x       y       z     vdW  Elec       q    Type
REMARK                         _______ _______ _______ _____ _____    ______ ____
ROOT
ATOM      1  C   UNL     1      -2.209   3.228  -2.415  0.00  0.00    +0.063 C 
ATOM      2  C   UNL     1      -3.519   3.912  -2.022  0.00  0.00    +0.109 C 
ATOM      3  C   UNL     1      -3.244   4.921  -0.936  0.00  0.00    +0.218 C 
ATOM      4  O   UNL     1      -3.891   5.944  -0.884  0.00  0.00    -0.275 OA
ATOM      5  N   UNL     1      -2.282   4.689  -0.027  0.00  0.00    -0.289 N 
ATOM      6  C   UNL     1      -1.550   3.529  -0.046  0.00  0.00    +0.018 C 
ATOM      7  C   UNL     1      -1.482   2.782  -1.168  0.00  0.00    +0.020 C 
ATOM      8  C   UNL     1      -0.745   1.587  -1.208  0.00  0.00    +0.162 C 
ATOM      9  O   UNL     1      -0.698   0.947  -2.240  0.00  0.00    -0.292 OA
ATOM     10  C   UNL     1      -0.013   1.086   0.008  0.00  0.00    +0.088 C 
ATOM     11  C   UNL     1      -0.734   1.582   1.265  0.00  0.00    +0.032 C 
ATOM     12  C   UNL     1      -0.823   3.109   1.207  0.00  0.00    +0.059 C 
ATOM     13  H   UNL     1      -2.070   5.436   0.752  0.00  0.00    +0.155 HD
ENDROOT
BRANCH  11  14
ATOM     14  C   UNL     1       0.038   1.165   2.490  0.00  0.00    -0.042 A 
ATOM     15  C   UNL     1      -0.557   0.353   3.439  0.00  0.00    +0.005 A 
ATOM     16  C   UNL     1       0.151  -0.030   4.562  0.00  0.00    +0.022 A 
ATOM     17  C   UNL     1       1.455   0.397   4.738  0.00  0.00    +0.059 A 
ATOM     18  C   UNL     1       2.050   1.209   3.788  0.00  0.00    +0.060 A 
ATOM     19  C   UNL     1       1.343   1.588   2.661  0.00  0.00    +0.025 A 
ATOM     20 CL   UNL     1       3.687   1.746   4.007  0.00  0.00    -0.082 Cl
ATOM     21 CL   UNL     1       2.344  -0.084   6.150  0.00  0.00    -0.082 Cl
ENDBRANCH  11  14
BRANCH   1  24
ATOM     22  C   UNL     1      -0.164   4.795  -5.179  0.00  0.00    +0.163 A 
ATOM     23  C   UNL     1      -0.958   3.905  -4.474  0.00  0.00    +0.053 A 
ATOM     24  C   UNL     1      -1.346   4.199  -3.180  0.00  0.00    -0.034 A 
ATOM     25  C   UNL     1      -0.948   5.383  -2.588  0.00  0.00    +0.028 A 
ATOM     26  C   UNL     1      -0.151   6.274  -3.284  0.00  0.00    +0.086 A 
ATOM     27  C   UNL     1       0.241   5.985  -4.582  0.00  0.00    +0.177 A 
ATOM     28 CL   UNL     1       0.353   7.757  -2.534  0.00  0.00    -0.080 Cl
BRANCH  27  29
ATOM     29  O   UNL     1       1.021   6.862  -5.270  0.00  0.00    -0.502 OA
ATOM     30  H   UNL     1       1.341   7.802  -4.796  0.00  0.00    +0.292 HD
ENDBRANCH  27  29
BRANCH  22  31
ATOM     31  O   UNL     1       0.218   4.507  -6.452  0.00  0.00    -0.489 OA
BRANCH  31  33
ATOM     32  C   UNL     1       0.291   3.120  -8.429  0.00  0.00    +0.048 C 
ATOM     33  C   UNL     1      -0.235   3.268  -7.000  0.00  0.00    +0.226 C 
ENDBRANCH  31  33
ENDBRANCH  22  31
ENDBRANCH   1  24
TORSDOF 5
