REMARK  Name = ZINC00375122
REMARK  7 active torsions:
REMARK  status: ('A' for Active; 'I' for Inactive)
REMARK    1  A    between atoms: C_1  and  C_2
REMARK    2  A    between atoms: C_2  and  C_3
REMARK    3  A    between atoms: C_2  and  C_4
REMARK    4  A    between atoms: C_2  and  C_5
REMARK    5  A    between atoms: C_10  and  C_15
REMARK    6  A    between atoms: N_17  and  N_18
REMARK    7  A    between atoms: C_19  and  C_20
REMARK                            x       y       z     vdW  Elec       q    Type
REMARK                         _______ _______ _______ _____ _____    ______ ____
ROOT
ATOM      1  C   UNL     1       7.220  -5.942  -0.477  0.00  0.00    -0.000 C 
ATOM      2  C   UNL     1       5.964  -5.725   0.372  0.00  0.00    +0.009 C 
ATOM      3  C   UNL     1       5.250  -4.447  -0.070  0.00  0.00    +0.037 C 
ATOM      4  C   UNL     1       6.255  -3.301  -0.074  0.00  0.00    -0.025 A 
ATOM      5  C   UNL     1       5.883  -1.899  -0.063  0.00  0.00    +0.049 A 
ATOM      6  C   UNL     1       6.896  -0.965  -0.073  0.00  0.00    +0.058 A 
ATOM      7  S   UNL     1       8.331  -1.937  -0.086  0.00  0.00    -0.101 S 
ATOM      8  C   UNL     1       7.586  -3.542  -0.088  0.00  0.00    -0.006 A 
ATOM      9  C   UNL     1       8.261  -4.878  -0.103  0.00  0.00    +0.046 C 
ENDROOT
BRANCH   1  11
ATOM     10  C   UNL     1       8.135  -7.463   1.281  0.00  0.00    +0.011 C 
ATOM     11  C   UNL     1       7.789  -7.336  -0.204  0.00  0.00    -0.035 C 
ATOM     12  C   UNL     1       6.749  -8.394  -0.578  0.00  0.00    +0.011 C 
ATOM     13  C   UNL     1       9.052  -7.544  -1.042  0.00  0.00    +0.011 C 
ENDBRANCH   1  11
BRANCH   5  14
ATOM     14  C   UNL     1       4.471  -1.487  -0.048  0.00  0.00    +0.264 C 
ATOM     15  O   UNL     1       3.592  -2.328  -0.044  0.00  0.00    -0.268 OA
ATOM     16  N   UNL     1       4.150  -0.178  -0.038  0.00  0.00    -0.203 N 
ATOM     17  H   UNL     1       4.851   0.493  -0.041  0.00  0.00    +0.178 HD
BRANCH  16  18
ATOM     18  N   UNL     1       2.805   0.214  -0.023  0.00  0.00    -0.187 NA
ATOM     19  C   UNL     1       2.497   1.475  -0.013  0.00  0.00    +0.141 C 
BRANCH  19  20
ATOM     20  C   UNL     1       1.081   1.888   0.002  0.00  0.00    +0.032 A 
ATOM     21  C   UNL     1       0.557   3.260   0.014  0.00  0.00    +0.050 A 
ATOM     22  C   UNL     1      -0.781   3.146   0.026  0.00  0.00    +0.195 A 
ATOM     23  O   UNL     1      -1.110   1.845   0.017  0.00  0.00    -0.470 OA
ATOM     24  C   UNL     1      -0.013   1.076   0.008  0.00  0.00    +0.204 A 
ENDBRANCH  19  20
ENDBRANCH  16  18
ENDBRANCH   5  14
TORSDOF 4
