REMARK  Name = ZINC16569900
REMARK  8 active torsions:
REMARK  status: ('A' for Active; 'I' for Inactive)
REMARK    1  A    between atoms: C_1  and  C_2
REMARK    2  A    between atoms: C_2  and  C_3
REMARK    3  A    between atoms: C_8  and  N_9
REMARK    4  A    between atoms: N_12  and  C_13
REMARK    5  A    between atoms: N_12  and  C_37
REMARK    6  A    between atoms: C_13  and  C_14
REMARK    7  A    between atoms: C_28  and  C_30
REMARK    8  A    between atoms: C_33  and  C_36
REMARK                            x       y       z     vdW  Elec       q    Type
REMARK                         _______ _______ _______ _____ _____    ______ ____
ROOT
ATOM      1  C   UNL     1      -1.780   1.326   2.678  0.00  0.00    +0.238 C 
ATOM      2  O   UNL     1      -2.298   1.335   1.581  0.00  0.00    -0.273 OA
ATOM      3  N   UNL     1      -2.437   0.799   3.730  0.00  0.00    -0.255 N 
ATOM      4  C   UNL     1      -3.688   0.195   3.542  0.00  0.00    +0.061 A 
ATOM      5  C   UNL     1      -4.004  -0.410   2.336  0.00  0.00    +0.025 A 
ATOM      6  C   UNL     1      -5.245  -0.993   2.161  0.00  0.00    +0.002 A 
ATOM      7  C   UNL     1      -6.176  -0.978   3.183  0.00  0.00    +0.002 A 
ATOM      8  C   UNL     1      -5.870  -0.381   4.393  0.00  0.00    +0.028 A 
ATOM      9  C   UNL     1      -4.630   0.200   4.576  0.00  0.00    +0.068 A 
ATOM     10  N   UNL     1      -4.264   0.796   5.792  0.00  0.00    -0.316 N 
ATOM     11  C   UNL     1      -5.024   1.146   6.857  0.00  0.00    +0.092 A 
ATOM     12  C   UNL     1      -4.214   1.695   7.790  0.00  0.00    +0.020 A 
ATOM     13  C   UNL     1      -2.899   1.680   7.275  0.00  0.00    +0.025 A 
ATOM     14  C   UNL     1      -2.953   1.126   6.059  0.00  0.00    +0.049 A 
ATOM     15  C   UNL     1      -1.837   0.854   5.074  0.00  0.00    +0.159 C 
ENDROOT
BRANCH  15  16
ATOM     16  C   UNL     1      -1.178  -0.463   5.393  0.00  0.00    -0.021 A 
ATOM     17  C   UNL     1      -1.789  -1.648   5.029  0.00  0.00    +0.006 A 
ATOM     18  C   UNL     1      -1.182  -2.856   5.317  0.00  0.00    +0.004 A 
ATOM     19  C   UNL     1       0.032  -2.879   5.979  0.00  0.00    -0.050 A 
ATOM     20  C   UNL     1       0.640  -1.694   6.348  0.00  0.00    +0.004 A 
ATOM     21  C   UNL     1       0.035  -0.486   6.054  0.00  0.00    +0.006 A 
ATOM     22  C   UNL     1       0.691  -4.196   6.299  0.00  0.00    +0.044 C 
ENDBRANCH  15  16
BRANCH   1  23
ATOM     23  C   UNL     1      -0.400   1.903   2.864  0.00  0.00    +0.205 C 
BRANCH  23  27
ATOM     24  N   UNL     1       1.245   2.297  -0.400  0.00  0.00    -0.269 N 
ATOM     25  C   UNL     1       0.739   1.734   0.716  0.00  0.00    +0.307 C 
ATOM     26  O   UNL     1       0.895   0.547   0.923  0.00  0.00    -0.252 OA
ATOM     27  N   UNL     1       0.058   2.489   1.601  0.00  0.00    -0.274 N 
ATOM     28  H   UNL     1       1.160   3.252  -0.542  0.00  0.00    +0.156 HD
BRANCH  24  34
ATOM     29  C   UNL     1       1.967   1.920  -2.673  0.00  0.00    -0.026 A 
ATOM     30  C   UNL     1       2.608   1.133  -3.611  0.00  0.00    +0.005 A 
ATOM     31  C   UNL     1       3.176  -0.070  -3.233  0.00  0.00    +0.000 A 
ATOM     32  C   UNL     1       3.104  -0.489  -1.917  0.00  0.00    +0.002 A 
ATOM     33  C   UNL     1       2.469   0.295  -0.975  0.00  0.00    +0.023 A 
ATOM     34  C   UNL     1       1.893   1.502  -1.351  0.00  0.00    +0.038 A 
BRANCH  29  36
ATOM     35  C   UNL     1       2.340   4.367  -2.825  0.00  0.00    +0.009 C 
ATOM     36  C   UNL     1       1.349   3.231  -3.085  0.00  0.00    +0.033 C 
ENDBRANCH  29  36
ENDBRANCH  24  34
BRANCH  27  37
ATOM     37  C   UNL     1      -0.223   3.895   1.302  0.00  0.00    +0.078 C 
ATOM     38  C   UNL     1      -1.229   4.621   2.198  0.00  0.00    +0.024 C 
ATOM     39  C   UNL     1       0.263   4.942   2.307  0.00  0.00    +0.024 C 
ENDBRANCH  27  37
ENDBRANCH  23  27
ENDBRANCH   1  23
TORSDOF 6
