REMARK  Name = ZINC09584658
REMARK  11 active torsions:
REMARK  status: ('A' for Active; 'I' for Inactive)
REMARK    1  A    between atoms: C_1  and  C_2
REMARK    2  A    between atoms: C_2  and  C_3
REMARK    3  A    between atoms: C_3  and  C_4
REMARK    4  A    between atoms: C_4  and  N_5
REMARK    5  A    between atoms: C_6  and  N_36
REMARK    6  A    between atoms: C_7  and  N_14
REMARK    7  A    between atoms: N_14  and  C_15
REMARK    8  A    between atoms: C_15  and  C_16
REMARK    9  A    between atoms: C_22  and  C_24
REMARK   10  A    between atoms: C_24  and  N_25
REMARK   11  A    between atoms: C_29  and  C_31
REMARK                            x       y       z     vdW  Elec       q    Type
REMARK                         _______ _______ _______ _____ _____    ______ ____
ROOT
ATOM      1  N   UNL     1      -0.047   0.054  -0.078  0.00  0.00    -0.258 N 
ATOM      2  C   UNL     1       0.284  -0.495   1.109  0.00  0.00    +0.242 C 
ATOM      3  O   UNL     1       0.578  -1.670   1.174  0.00  0.00    -0.273 OA
ENDROOT
BRANCH   1   6
ATOM      4  N   UNL     1       0.598  -1.402  -3.389  0.00  0.00    -0.280 N 
ATOM      5  C   UNL     1       0.723  -0.594  -2.283  0.00  0.00    +0.127 A 
ATOM      6  C   UNL     1      -0.149  -0.759  -1.227  0.00  0.00    +0.140 A 
ATOM      7  C   UNL     1      -1.139  -1.755  -1.312  0.00  0.00    +0.277 A 
ATOM      8  O   UNL     1      -1.920  -1.925  -0.392  0.00  0.00    -0.266 OA
ATOM      9  N   UNL     1      -1.222  -2.516  -2.421  0.00  0.00    -0.273 N 
ATOM     10  H   UNL     1      -1.931  -3.219  -2.487  0.00  0.00    +0.173 HD
ATOM     11  C   UNL     1      -0.363  -2.341  -3.441  0.00  0.00    +0.331 A 
ATOM     12  O   UNL     1      -0.457  -3.046  -4.428  0.00  0.00    -0.246 OA
BRANCH   5  13
ATOM     13  N   UNL     1       1.705   0.366  -2.231  0.00  0.00    -0.343 N 
ATOM     14  H   UNL     1       1.852   0.865  -1.412  0.00  0.00    +0.144 HD
ATOM     15  H   UNL     1       2.252   0.544  -3.012  0.00  0.00    +0.144 HD
ENDBRANCH   5  13
BRANCH   4  16
ATOM     16  C   UNL     1       1.518  -1.238  -4.518  0.00  0.00    +0.128 C 
BRANCH  16  17
ATOM     17  C   UNL     1       2.739  -2.137  -4.316  0.00  0.00    +0.021 C 
BRANCH  17  19
ATOM     18  C   UNL     1       4.921  -2.864  -5.292  0.00  0.00    +0.004 C 
ATOM     19  C   UNL     1       3.699  -1.966  -5.494  0.00  0.00    -0.002 C 
ENDBRANCH  17  19
ENDBRANCH  16  17
ENDBRANCH   4  16
ENDBRANCH   1   6
BRANCH   1  20
ATOM     20  C   UNL     1      -0.299   1.494  -0.175  0.00  0.00    +0.149 C 
BRANCH  20  21
ATOM     21  C   UNL     1      -1.779   1.754  -0.063  0.00  0.00    -0.030 A 
ATOM     22  C   UNL     1      -2.585   1.649  -1.181  0.00  0.00    +0.005 A 
ATOM     23  C   UNL     1      -3.944   1.881  -1.078  0.00  0.00    +0.000 A 
ATOM     24  C   UNL     1      -4.495   2.230   0.141  0.00  0.00    +0.000 A 
ATOM     25  C   UNL     1      -3.688   2.340   1.258  0.00  0.00    +0.000 A 
ATOM     26  C   UNL     1      -2.330   2.102   1.156  0.00  0.00    +0.005 A 
ENDBRANCH  20  21
ENDBRANCH   1  20
BRANCH   2  27
ATOM     27  C   UNL     1       0.287   0.352   2.356  0.00  0.00    +0.246 C 
BRANCH  27  28
ATOM     28  N   UNL     1       0.803  -0.434   3.479  0.00  0.00    -0.186 N 
ATOM     29  C   UNL     1       2.093  -0.537   3.864  0.00  0.00    +0.439 A 
ATOM     30  O   UNL     1       3.045   0.009   3.339  0.00  0.00    -0.221 OA
ATOM     31  O   UNL     1       2.133  -1.350   4.932  0.00  0.00    -0.387 OA
ATOM     32  C   UNL     1       0.877  -1.763   5.215  0.00  0.00    +0.256 A 
ATOM     33  N   UNL     1       0.052  -1.229   4.357  0.00  0.00    -0.126 NA
BRANCH  32  34
ATOM     34  C   UNL     1       0.502  -2.669   6.312  0.00  0.00    +0.076 A 
ATOM     35  C   UNL     1       1.304  -3.269   7.250  0.00  0.00    +0.021 A 
ATOM     36  C   UNL     1       0.722  -4.086   8.192  0.00  0.00    +0.008 A 
ATOM     37  C   UNL     1      -0.624  -4.274   8.165  0.00  0.00    +0.046 A 
ATOM     38  S   UNL     1      -1.115  -3.267   6.775  0.00  0.00    -0.092 S 
ENDBRANCH  32  34
ENDBRANCH  27  28
ENDBRANCH   2  27
TORSDOF 10
