REMARK  Name = ZINC59507681
REMARK  8 active torsions:
REMARK  status: ('A' for Active; 'I' for Inactive)
REMARK    1  A    between atoms: C_9  and  O_27
REMARK    2  A    between atoms: C_10  and  C_11
REMARK    3  A    between atoms: N_12  and  N_13
REMARK    4  A    between atoms: C_14  and  C_16
REMARK    5  A    between atoms: C_16  and  C_17
REMARK    6  A    between atoms: C_17  and  C_18
REMARK    7  A    between atoms: C_18  and  N_19
REMARK    8  A    between atoms: N_19  and  C_20
REMARK                            x       y       z     vdW  Elec       q    Type
REMARK                         _______ _______ _______ _____ _____    ______ ____
ROOT
ATOM      1  N   UNL     1       7.321   0.148  -0.067  0.00  0.00    -0.207 N 
ATOM      2  C   UNL     1       8.489  -0.523  -0.081  0.00  0.00    +0.232 C 
ATOM      3  O   UNL     1       8.492  -1.736  -0.087  0.00  0.00    -0.274 OA
ATOM      4  H   UNL     1       7.319   1.118  -0.062  0.00  0.00    +0.177 HD
ENDROOT
BRANCH   1   6
ATOM      5  C   UNL     1       4.982   0.092  -0.045  0.00  0.00    +0.142 C 
ATOM      6  N   UNL     1       6.109  -0.555  -0.059  0.00  0.00    -0.188 NA
BRANCH   5  16
ATOM      7  C   UNL     1      -0.016   1.357   0.009  0.00  0.00    +0.001 A 
ATOM      8  C   UNL     1       1.167   2.091   0.002  0.00  0.00    +0.001 A 
ATOM      9  C   UNL     1       2.379   1.466  -0.013  0.00  0.00    +0.009 A 
ATOM     10  C   UNL     1       2.435   0.067  -0.021  0.00  0.00    -0.006 A 
ATOM     11  C   UNL     1       1.233  -0.683  -0.013  0.00  0.00    -0.017 A 
ATOM     12  C   UNL     1       0.002  -0.004   0.002  0.00  0.00    +0.008 A 
ATOM     13  C   UNL     1       1.291  -2.087  -0.021  0.00  0.00    +0.012 A 
ATOM     14  C   UNL     1       2.487  -2.733  -0.035  0.00  0.00    +0.046 A 
ATOM     15  C   UNL     1       3.696  -2.040  -0.042  0.00  0.00    +0.126 A 
ATOM     16  C   UNL     1       3.711  -0.645  -0.036  0.00  0.00    +0.044 A 
BRANCH  15  17
ATOM     17  O   UNL     1       4.868  -2.727  -0.056  0.00  0.00    -0.506 OA
ATOM     18  H   UNL     1       5.199  -2.922  -0.943  0.00  0.00    +0.292 HD
ENDBRANCH  15  17
ENDBRANCH   5  16
ENDBRANCH   1   6
BRANCH   2  19
ATOM     19  C   UNL     1       9.793   0.233  -0.090  0.00  0.00    +0.099 C 
BRANCH  19  20
ATOM     20  C   UNL     1      10.958  -0.758  -0.106  0.00  0.00    +0.028 C 
BRANCH  20  21
ATOM     21  C   UNL     1      12.281   0.009  -0.115  0.00  0.00    +0.102 C 
BRANCH  21  22
ATOM     22  N   UNL     1      13.397  -0.940  -0.130  0.00  0.00    -0.344 N 
ATOM     23  H   UNL     1      13.222  -1.894  -0.133  0.00  0.00    +0.146 HD
BRANCH  22  24
ATOM     24  C   UNL     1      14.713  -0.471  -0.140  0.00  0.00    +0.027 A 
ATOM     25  C   UNL     1      14.966   0.894  -0.131  0.00  0.00    +0.024 A 
ATOM     26  C   UNL     1      16.268   1.355  -0.140  0.00  0.00    +0.022 A 
ATOM     27  C   UNL     1      17.320   0.457  -0.160  0.00  0.00    +0.041 A 
ATOM     28  C   UNL     1      17.072  -0.904  -0.170  0.00  0.00    +0.022 A 
ATOM     29  C   UNL     1      15.772  -1.370  -0.155  0.00  0.00    +0.024 A 
ATOM     30 CL   UNL     1      18.956   1.039  -0.174  0.00  0.00    -0.084 Cl
ENDBRANCH  22  24
ENDBRANCH  21  22
ENDBRANCH  20  21
ENDBRANCH  19  20
ENDBRANCH   2  19
TORSDOF 8
