REMARK  Name = ZINC05660795
REMARK  6 active torsions:
REMARK  status: ('A' for Active; 'I' for Inactive)
REMARK    1  A    between atoms: N_7  and  C_15
REMARK    2  A    between atoms: C_15  and  C_16
REMARK    3  A    between atoms: C_18  and  O_29
REMARK    4  A    between atoms: C_20  and  N_45
REMARK    5  A    between atoms: C_22  and  O_28
REMARK    6  A    between atoms: C_24  and  O_27
REMARK                            x       y       z     vdW  Elec       q    Type
REMARK                         _______ _______ _______ _____ _____    ______ ____
ROOT
ATOM      1  C   UNL     1       1.334   1.504  -2.399  0.00  0.00    +0.166 C 
ATOM      2  C   UNL     1       1.195   3.026  -2.487  0.00  0.00    +0.133 C 
ATOM      3  C   UNL     1       0.419   3.531  -1.266  0.00  0.00    -0.010 C 
ATOM      4  C   UNL     1       1.145   3.086   0.007  0.00  0.00    +0.158 C 
ATOM      5  C   UNL     1       1.286   1.562  -0.002  0.00  0.00    +0.275 C 
ATOM      6  O   UNL     1       1.990   1.157  -1.178  0.00  0.00    -0.342 OA
ENDROOT
BRANCH   3   9
ATOM      7  H   UNL     1      -0.164   5.354  -0.509  0.00  0.00    -0.089 HD
ATOM      8  H   UNL     1       1.265   5.406  -1.358  0.00  0.00    -0.089 HD
ATOM      9  N   UNL     1       0.331   5.001  -1.326  0.00  0.00    +0.383 N 
ATOM     10  H   UNL     1      -0.182   5.274  -2.172  0.00  0.00    -0.089 HD
ENDBRANCH   3   9
BRANCH   5  11
ATOM     11  O   UNL     1      -0.011   0.963   0.007  0.00  0.00    -0.365 OA
ATOM     12  H   UNL     1       0.002  -0.004   0.002  0.00  0.00    +0.213 HD
ENDBRANCH   5  11
BRANCH   4  13
ATOM     13  O   UNL     1       0.392   3.489   1.153  0.00  0.00    -0.388 OA
ATOM     14  H   UNL     1       0.792   3.235   1.996  0.00  0.00    +0.210 HD
ENDBRANCH   4  13
BRANCH   2  15
ATOM     15  O   UNL     1       0.488   3.373  -3.679  0.00  0.00    -0.391 OA
ATOM     16  H   UNL     1       0.363   4.324  -3.800  0.00  0.00    +0.210 HD
ENDBRANCH   2  15
BRANCH   1  17
ATOM     17  C   UNL     1       2.160   0.998  -3.583  0.00  0.00    +0.145 C 
BRANCH  17  24
ATOM     18  C   UNL     1      -0.267  -1.425  -6.128  0.00  0.00    +0.002 A 
ATOM     19  C   UNL     1      -0.770  -2.596  -5.595  0.00  0.00    +0.001 A 
ATOM     20  C   UNL     1      -0.292  -3.068  -4.383  0.00  0.00    +0.017 A 
ATOM     21  C   UNL     1       0.688  -2.363  -3.711  0.00  0.00    +0.034 A 
ATOM     22  C   UNL     1       1.200  -1.178  -4.246  0.00  0.00    +0.048 A 
ATOM     23  C   UNL     1       0.715  -0.715  -5.459  0.00  0.00    +0.024 A 
ATOM     24  N   UNL     1       2.194  -0.467  -3.565  0.00  0.00    -0.296 N 
ATOM     25  C   UNL     1       3.222  -1.114  -2.871  0.00  0.00    +0.048 A 
ATOM     26  C   UNL     1       4.507  -0.594  -2.880  0.00  0.00    +0.024 A 
ATOM     27  C   UNL     1       5.519  -1.241  -2.194  0.00  0.00    +0.002 A 
ATOM     28  C   UNL     1       5.259  -2.405  -1.496  0.00  0.00    +0.001 A 
ATOM     29  C   UNL     1       3.969  -2.932  -1.470  0.00  0.00    +0.017 A 
ATOM     30  C   UNL     1       2.958  -2.290  -2.159  0.00  0.00    +0.034 A 
ATOM     31  S   UNL     1       1.315  -2.938  -2.164  0.00  0.00    -0.086 S 
ENDBRANCH  17  24
ENDBRANCH   1  17
TORSDOF 6
