REMARK  Name = ZINC04980334
REMARK  4 active torsions:
REMARK  status: ('A' for Active; 'I' for Inactive)
REMARK    1  A    between atoms: C_8  and  N_9
REMARK    2  A    between atoms: C_12  and  N_14
REMARK    3  A    between atoms: N_14  and  S_15
REMARK    4  A    between atoms: S_15  and  C_18
REMARK                            x       y       z     vdW  Elec       q    Type
REMARK                         _______ _______ _______ _____ _____    ______ ____
ROOT
ATOM      1  C   UNL     1       4.193   0.067   0.503  0.00  0.00    +0.003 A 
ATOM      2  C   UNL     1       4.282  -0.515   1.731  0.00  0.00    +0.011 A 
ATOM      3  C   UNL     1       3.914   0.207   2.878  0.00  0.00    +0.014 A 
ATOM      4  C   UNL     1       3.452   1.540   2.745  0.00  0.00    +0.007 A 
ATOM      5  C   UNL     1       3.085   2.260   3.892  0.00  0.00    +0.010 A 
ATOM      6  C   UNL     1       3.176   1.671   5.116  0.00  0.00    +0.003 A 
ATOM      7  C   UNL     1       3.631   0.360   5.249  0.00  0.00    +0.033 A 
ATOM      8  C   UNL     1       3.996  -0.368   4.158  0.00  0.00    +0.134 A 
ATOM      9  C   UNL     1       3.370   2.118   1.460  0.00  0.00    +0.056 A 
ATOM     10  C   UNL     1       3.736   1.373   0.359  0.00  0.00    +0.025 A 
ENDROOT
BRANCH   8  11
ATOM     11  N   UNL     1       4.476  -1.759   4.319  0.00  0.00    +0.057 N 
ATOM     12  O   UNL     1       3.970  -2.485   5.155  0.00  0.00    -0.126 OA
ATOM     13  O   UNL     1       5.379  -2.177   3.616  0.00  0.00    -0.126 OA
ENDBRANCH   8  11
BRANCH   9  14
ATOM     14  N   UNL     1       2.918   3.427   1.305  0.00  0.00    -0.216 N 
ATOM     15  H   UNL     1       3.081   4.082   2.002  0.00  0.00    +0.174 HD
BRANCH  14  16
ATOM     16  S   UNL     1       2.103   3.864  -0.068  0.00  0.00    +0.074 S 
ATOM     17  O   UNL     1       1.751   5.232   0.087  0.00  0.00    -0.150 OA
ATOM     18  O   UNL     1       1.136   2.851  -0.307  0.00  0.00    -0.150 OA
BRANCH  16  19
ATOM     19  C   UNL     1       3.252   3.789  -1.402  0.00  0.00    +0.128 A 
ATOM     20  C   UNL     1       3.054   2.892  -2.435  0.00  0.00    +0.050 A 
ATOM     21  C   UNL     1       3.956   2.832  -3.482  0.00  0.00    +0.043 A 
ATOM     22  C   UNL     1       5.054   3.674  -3.498  0.00  0.00    +0.021 A 
ATOM     23  C   UNL     1       5.255   4.566  -2.462  0.00  0.00    +0.023 A 
ATOM     24  C   UNL     1       4.353   4.626  -1.415  0.00  0.00    +0.068 A 
ATOM     25 CL   UNL     1       4.603   5.752  -0.117  0.00  0.00    -0.082 Cl
ATOM     26 CL   UNL     1       3.706   1.706  -4.780  0.00  0.00    -0.083 Cl
ENDBRANCH  16  19
ENDBRANCH  14  16
ENDBRANCH   9  14
TORSDOF 4
