REMARK  Name = ZINC43289677
REMARK  8 active torsions:
REMARK  status: ('A' for Active; 'I' for Inactive)
REMARK    1  A    between atoms: C_1  and  C_2
REMARK    2  A    between atoms: C_2  and  C_3
REMARK    3  A    between atoms: C_3  and  C_5
REMARK    4  A    between atoms: C_3  and  N_23
REMARK    5  A    between atoms: C_5  and  C_7
REMARK    6  A    between atoms: C_5  and  O_13
REMARK    7  A    between atoms: O_13  and  C_14
REMARK    8  A    between atoms: C_19  and  C_22
REMARK                            x       y       z     vdW  Elec       q    Type
REMARK                         _______ _______ _______ _____ _____    ______ ____
ROOT
ATOM      1  C   UNL     1       0.872  -2.034   1.171  0.00  0.00    +0.141 C 
ENDROOT
BRANCH   1   2
ATOM      2  C   UNL     1       1.601  -2.533   2.392  0.00  0.00    +0.018 A 
ATOM      3  C   UNL     1       1.095  -3.093   3.518  0.00  0.00    +0.029 A 
ATOM      4  C   UNL     1       1.964  -3.480   4.522  0.00  0.00    +0.025 A 
ATOM      5  C   UNL     1       3.295  -3.289   4.349  0.00  0.00    +0.060 A 
ATOM      6  S   UNL     1       3.354  -2.548   2.726  0.00  0.00    -0.098 S 
ATOM      7 BR   UNL     1       1.305  -4.265   6.111  0.00  0.00    -0.050 Br
ENDBRANCH   1   2
BRANCH   1   8
ATOM      8  C   UNL     1       0.742  -0.511   1.242  0.00  0.00    -0.041 C 
BRANCH   8   9
ATOM      9  N   UNL     1      -0.010  -0.139   2.447  0.00  0.00    +0.382 N 
ATOM     10  H   UNL     1      -0.929  -0.554   2.411  0.00  0.00    -0.090 HD
ATOM     11  H   UNL     1       0.478  -0.473   3.265  0.00  0.00    -0.090 HD
ATOM     12  H   UNL     1      -0.096   0.865   2.494  0.00  0.00    -0.090 HD
ENDBRANCH   8   9
BRANCH   8  14
ATOM     13  C   UNL     1      -0.019   1.526   0.010  0.00  0.00    +0.002 C 
ATOM     14  C   UNL     1       0.002  -0.004   0.002  0.00  0.00    -0.017 C 
ENDBRANCH   8  14
ENDBRANCH   1   8
BRANCH   1  15
ATOM     15  O   UNL     1       1.604  -2.395  -0.002  0.00  0.00    -0.370 OA
BRANCH  15  16
ATOM     16  C   UNL     1       0.787  -2.606  -1.155  0.00  0.00    +0.119 C 
ATOM     17  C   UNL     1       0.364  -4.075  -1.219  0.00  0.00    +0.031 C 
ATOM     18  C   UNL     1      -0.511  -4.301  -2.454  0.00  0.00    +0.003 C 
ATOM     19  C   UNL     1       0.281  -3.943  -3.712  0.00  0.00    +0.003 C 
ATOM     20  C   UNL     1       0.704  -2.474  -3.649  0.00  0.00    -0.012 C 
ATOM     21  C   UNL     1       1.579  -2.249  -2.414  0.00  0.00    +0.035 C 
ATOM     22  C   UNL     1       1.497  -2.117  -4.908  0.00  0.00    +0.007 C 
ENDBRANCH  15  16
ENDBRANCH   1  15
TORSDOF 6
