REMARK  Name = ZINC63180185
REMARK  8 active torsions:
REMARK  status: ('A' for Active; 'I' for Inactive)
REMARK    1  A    between atoms: C_7  and  C_10
REMARK    2  A    between atoms: C_10  and  C_11
REMARK    3  A    between atoms: C_11  and  C_12
REMARK    4  A    between atoms: C_12  and  C_13
REMARK    5  A    between atoms: N_15  and  N_16
REMARK    6  A    between atoms: C_17  and  C_19
REMARK    7  A    between atoms: C_19  and  O_20
REMARK    8  A    between atoms: O_20  and  C_21
REMARK                            x       y       z     vdW  Elec       q    Type
REMARK                         _______ _______ _______ _____ _____    ______ ____
ROOT
ATOM      1  C   UNL     1      -0.729  -5.309  -2.876  0.00  0.00    +0.229 C 
ATOM      2  O   UNL     1      -0.183  -4.738  -3.796  0.00  0.00    -0.274 OA
ATOM      3  N   UNL     1      -1.542  -6.356  -3.120  0.00  0.00    -0.234 N 
ATOM      4  H   UNL     1      -1.979  -6.813  -2.385  0.00  0.00    +0.173 HD
ENDROOT
BRANCH   3   5
ATOM      5  N   UNL     1      -1.757  -6.785  -4.437  0.00  0.00    -0.232 N 
ATOM      6  C   UNL     1      -2.570  -7.831  -4.681  0.00  0.00    +0.267 C 
ATOM      7  O   UNL     1      -3.116  -8.403  -3.761  0.00  0.00    -0.271 OA
ATOM      8  H   UNL     1      -1.320  -6.328  -5.173  0.00  0.00    +0.173 HD
BRANCH   6   9
ATOM      9  C   UNL     1      -2.800  -8.292  -6.097  0.00  0.00    +0.326 C 
BRANCH   9  10
ATOM     10  O   UNL     1      -3.692  -9.408  -6.096  0.00  0.00    -0.483 OA
BRANCH  10  11
ATOM     11  C   UNL     1      -4.007  -9.949  -7.303  0.00  0.00    +0.122 A 
ATOM     12  C   UNL     1      -3.463  -9.419  -8.464  0.00  0.00    +0.046 A 
ATOM     13  C   UNL     1      -3.784  -9.969  -9.690  0.00  0.00    +0.005 A 
ATOM     14  C   UNL     1      -4.646 -11.048  -9.760  0.00  0.00    +0.015 A 
ATOM     15  C   UNL     1      -5.190 -11.578  -8.604  0.00  0.00    +0.021 A 
ATOM     16  C   UNL     1      -4.867 -11.034  -7.375  0.00  0.00    +0.061 A 
ATOM     17 BR   UNL     1      -6.370 -13.052  -8.705  0.00  0.00    -0.050 Br
ENDBRANCH  10  11
ENDBRANCH   9  10
ENDBRANCH   6   9
ENDBRANCH   3   5
BRANCH   1  18
ATOM     18  C   UNL     1      -0.499  -4.848  -1.460  0.00  0.00    +0.097 C 
BRANCH  18  19
ATOM     19  C   UNL     1       0.457  -3.653  -1.462  0.00  0.00    +0.014 C 
BRANCH  19  20
ATOM     20  C   UNL     1       0.691  -3.186  -0.024  0.00  0.00    +0.033 C 
BRANCH  20  27
ATOM     21  C   UNL     1      -0.016   1.348   0.009  0.00  0.00    +0.001 A 
ATOM     22  C   UNL     1       1.166   2.101   0.002  0.00  0.00    +0.002 A 
ATOM     23  C   UNL     1       2.391   1.535  -0.013  0.00  0.00    +0.026 A 
ATOM     24  C   UNL     1       2.529   0.120  -0.022  0.00  0.00    +0.043 A 
ATOM     25  N   UNL     1       3.587  -0.654  -0.037  0.00  0.00    -0.380 N 
ATOM     26  C   UNL     1       3.143  -2.053  -0.041  0.00  0.00    +0.144 C 
ATOM     27  C   UNL     1       1.631  -2.008  -0.025  0.00  0.00    -0.042 C 
ATOM     28  C   UNL     1       1.295  -0.698  -0.014  0.00  0.00    -0.001 A 
ATOM     29  C   UNL     1       0.002  -0.004   0.002  0.00  0.00    +0.010 A 
ATOM     30  H   UNL     1       4.509  -0.353  -0.045  0.00  0.00    +0.160 HD
ENDBRANCH  20  27
ENDBRANCH  19  20
ENDBRANCH  18  19
ENDBRANCH   1  18
TORSDOF 8
