REMARK  Name = ZINC36660261
REMARK  12 active torsions:
REMARK  status: ('A' for Active; 'I' for Inactive)
REMARK    1  A    between atoms: C_1  and  C_2
REMARK    2  A    between atoms: C_5  and  S_8
REMARK    3  A    between atoms: S_8  and  N_11
REMARK    4  A    between atoms: C_15  and  C_17
REMARK    5  A    between atoms: N_19  and  C_20
REMARK    6  A    between atoms: C_21  and  C_33
REMARK    7  A    between atoms: C_25  and  C_31
REMARK    8  A    between atoms: C_25  and  C_32
REMARK    9  A    between atoms: C_27  and  C_29
REMARK   10  A    between atoms: C_27  and  C_30
REMARK   11  A    between atoms: C_33  and  O_35
REMARK   12  A    between atoms: O_35  and  C_36
REMARK                            x       y       z     vdW  Elec       q    Type
REMARK                         _______ _______ _______ _____ _____    ______ ____
ROOT
ATOM      1  C   UNL     1       2.345  -4.070   2.247  0.00  0.00    +0.236 C 
ATOM      2  O   UNL     1       1.722  -3.084   1.916  0.00  0.00    -0.274 OA
ATOM      3  N   UNL     1       3.028  -4.078   3.409  0.00  0.00    -0.278 N 
ATOM      4  H   UNL     1       3.526  -4.867   3.673  0.00  0.00    +0.155 HD
ENDROOT
BRANCH   3   5
ATOM      5  C   UNL     1       3.017  -2.959   4.226  0.00  0.00    +0.086 A 
ATOM      6  C   UNL     1       3.657  -2.790   5.449  0.00  0.00    +0.091 A 
ATOM      7  C   UNL     1       3.481  -1.516   6.109  0.00  0.00    -0.024 A 
ATOM      8  C   UNL     1       2.698  -0.637   5.440  0.00  0.00    -0.016 A 
ATOM      9  S   UNL     1       2.229  -1.498   3.969  0.00  0.00    -0.079 S 
ATOM     10  C   UNL     1       2.329   0.737   5.888  0.00  0.00    -0.041 C 
ATOM     11  N   UNL     1       3.087   1.161   7.065  0.00  0.00    +0.389 N 
ATOM     12  C   UNL     1       4.315   0.431   7.348  0.00  0.00    -0.069 C 
ATOM     13  C   UNL     1       4.080  -1.082   7.437  0.00  0.00    +0.024 C 
ATOM     14  C   UNL     1       5.383   0.719   6.291  0.00  0.00    -0.010 C 
ATOM     15  C   UNL     1       4.857   0.905   8.710  0.00  0.00    -0.010 C 
ATOM     16  C   UNL     1       2.547   1.726   4.734  0.00  0.00    -0.005 C 
ATOM     17  C   UNL     1       0.828   0.744   6.239  0.00  0.00    -0.005 C 
ATOM     18  H   UNL     1       3.314   2.152   6.964  0.00  0.00    -0.084 HD
ATOM     19  H   UNL     1       2.477   1.101   7.882  0.00  0.00    -0.084 HD
BRANCH   6  20
ATOM     20  C   UNL     1       4.467  -3.862   6.032  0.00  0.00    +0.342 C 
ATOM     21  O   UNL     1       5.654  -3.934   5.777  0.00  0.00    -0.245 OA
BRANCH  20  22
ATOM     22  O   UNL     1       3.897  -4.769   6.851  0.00  0.00    -0.464 OA
ATOM     23  C   UNL     1       4.746  -5.787   7.383  0.00  0.00    +0.280 C 
ENDBRANCH  20  22
ENDBRANCH   6  20
ENDBRANCH   3   5
BRANCH   1  28
ATOM     24  N   UNL     1       1.145  -5.310   0.525  0.00  0.00    -0.165 NA
ATOM     25  C   UNL     1       1.546  -5.288  -0.893  0.00  0.00    +0.110 C 
ATOM     26  C   UNL     1       2.956  -4.646  -0.897  0.00  0.00    +0.019 C 
ATOM     27  C   UNL     1       3.568  -5.231   0.403  0.00  0.00    +0.031 C 
ATOM     28  C   UNL     1       2.357  -5.287   1.358  0.00  0.00    +0.166 C 
BRANCH  24  29
ATOM     29  S   UNL     1      -0.412  -5.346   1.088  0.00  0.00    +0.062 S 
ATOM     30  O   UNL     1      -1.212  -4.694   0.111  0.00  0.00    -0.153 OA
ATOM     31  O   UNL     1      -0.364  -4.919   2.442  0.00  0.00    -0.153 OA
BRANCH  29  36
ATOM     32  C   UNL     1      -2.150 -11.124   1.162  0.00  0.00    +0.044 C 
ATOM     33  C   UNL     1      -1.716  -9.681   1.143  0.00  0.00    -0.050 A 
ATOM     34  C   UNL     1      -1.010  -9.157   2.211  0.00  0.00    +0.005 A 
ATOM     35  C   UNL     1      -0.612  -7.834   2.194  0.00  0.00    +0.029 A 
ATOM     36  C   UNL     1      -0.919  -7.034   1.109  0.00  0.00    +0.106 A 
ATOM     37  C   UNL     1      -1.623  -7.557   0.041  0.00  0.00    +0.029 A 
ATOM     38  C   UNL     1      -2.018  -8.882   0.056  0.00  0.00    +0.005 A 
ENDBRANCH  29  36
ENDBRANCH  24  29
ENDBRANCH   1  28
TORSDOF 6
