REMARK  Name = ZINC08861376
REMARK  12 active torsions:
REMARK  status: ('A' for Active; 'I' for Inactive)
REMARK    1  A    between atoms: C_1  and  C_2
REMARK    2  A    between atoms: C_2  and  C_4
REMARK    3  A    between atoms: C_2  and  N_12
REMARK    4  A    between atoms: C_13  and  C_15
REMARK    5  A    between atoms: C_15  and  C_17
REMARK    6  A    between atoms: C_15  and  S_18
REMARK    7  A    between atoms: S_18  and  C_19
REMARK    8  A    between atoms: C_22  and  C_25
REMARK    9  A    between atoms: N_23  and  N_24
REMARK   10  A    between atoms: C_25  and  C_26
REMARK   11  A    between atoms: C_29  and  O_32
REMARK   12  A    between atoms: O_32  and  C_33
REMARK                            x       y       z     vdW  Elec       q    Type
REMARK                         _______ _______ _______ _____ _____    ______ ____
ROOT
ATOM      1  S   UNL     1      -0.960   2.548   1.012  0.00  0.00    -0.072 S 
ENDROOT
BRANCH   1   2
ATOM      2  C   UNL     1      -2.596   1.971   0.704  0.00  0.00    +0.209 A 
ATOM      3  N   UNL     1      -2.978   1.201  -0.288  0.00  0.00    -0.121 NA
ATOM      4  N   UNL     1      -4.240   0.975  -0.204  0.00  0.00    -0.132 NA
ATOM      5  C   UNL     1      -4.736   1.587   0.834  0.00  0.00    +0.155 A 
ATOM      6  N   UNL     1      -3.707   2.244   1.450  0.00  0.00    -0.228 N 
BRANCH   6   7
ATOM      7  N   UNL     1      -3.776   3.013   2.577  0.00  0.00    -0.295 N 
ATOM      8  H   UNL     1      -3.962   3.977   2.345  0.00  0.00    +0.163 HD
ATOM      9  H   UNL     1      -4.468   2.654   3.217  0.00  0.00    +0.163 HD
ENDBRANCH   6   7
BRANCH   5  10
ATOM     10  C   UNL     1      -6.178   1.575   1.274  0.00  0.00    +0.113 C 
BRANCH  10  11
ATOM     11  C   UNL     1      -6.912   2.718   0.622  0.00  0.00    -0.040 A 
ATOM     12  C   UNL     1      -6.976   3.946   1.253  0.00  0.00    +0.007 A 
ATOM     13  C   UNL     1      -7.644   4.998   0.655  0.00  0.00    +0.046 A 
ATOM     14  C   UNL     1      -8.259   4.817  -0.575  0.00  0.00    +0.120 A 
ATOM     15  C   UNL     1      -8.198   3.582  -1.204  0.00  0.00    +0.046 A 
ATOM     16  C   UNL     1      -7.525   2.535  -0.604  0.00  0.00    +0.007 A 
BRANCH  14  17
ATOM     17  O   UNL     1      -8.921   5.848  -1.163  0.00  0.00    -0.495 OA
ATOM     18  C   UNL     1      -8.943   7.091  -0.458  0.00  0.00    +0.277 C 
ENDBRANCH  14  17
ENDBRANCH  10  11
ENDBRANCH   5  10
ENDBRANCH   1   2
BRANCH   1  19
ATOM     19  C   UNL     1      -0.088   1.776  -0.373  0.00  0.00    +0.137 C 
ATOM     20  C   UNL     1      -0.599   2.365  -1.689  0.00  0.00    +0.029 C 
BRANCH  19  22
ATOM     21  N   UNL     1       2.273   1.257  -0.899  0.00  0.00    -0.308 N 
ATOM     22  C   UNL     1       1.391   2.039  -0.246  0.00  0.00    +0.227 C 
ATOM     23  O   UNL     1       1.786   2.954   0.445  0.00  0.00    -0.275 OA
ATOM     24  H   UNL     1       1.956   0.525  -1.452  0.00  0.00    +0.149 HD
BRANCH  21  26
ATOM     25  C   UNL     1       4.256   0.771   0.446  0.00  0.00    +0.033 C 
ATOM     26  C   UNL     1       3.710   1.513  -0.775  0.00  0.00    +0.102 C 
BRANCH  26  27
ATOM     27  C   UNL     1       4.415   1.027  -2.015  0.00  0.00    -0.009 A 
ATOM     28  C   UNL     1       3.874  -0.005  -2.759  0.00  0.00    +0.008 A 
ATOM     29  C   UNL     1       4.520  -0.451  -3.896  0.00  0.00    +0.020 A 
ATOM     30  C   UNL     1       5.710   0.135  -4.291  0.00  0.00    +0.042 A 
ATOM     31  C   UNL     1       6.252   1.167  -3.547  0.00  0.00    +0.040 A 
ATOM     32  C   UNL     1       5.602   1.617  -2.412  0.00  0.00    +0.047 A 
ATOM     33 CL   UNL     1       6.278   2.918  -1.483  0.00  0.00    -0.083 Cl
ATOM     34 CL   UNL     1       6.522  -0.426  -5.719  0.00  0.00    -0.083 Cl
ENDBRANCH  26  27
ENDBRANCH  21  26
ENDBRANCH  19  22
ENDBRANCH   1  19
TORSDOF 9
