REMARK  Name = ZINC60358584
REMARK  10 active torsions:
REMARK  status: ('A' for Active; 'I' for Inactive)
REMARK    1  A    between atoms: C_1  and  C_2
REMARK    2  A    between atoms: N_6  and  C_7
REMARK    3  A    between atoms: C_7  and  C_8
REMARK    4  A    between atoms: C_8  and  C_9
REMARK    5  A    between atoms: C_9  and  C_10
REMARK    6  A    between atoms: N_12  and  C_13
REMARK    7  A    between atoms: C_13  and  C_14
REMARK    8  A    between atoms: C_14  and  C_16
REMARK    9  A    between atoms: C_14  and  C_22
REMARK   10  A    between atoms: C_31  and  C_32
REMARK                            x       y       z     vdW  Elec       q    Type
REMARK                         _______ _______ _______ _____ _____    ______ ____
ROOT
ATOM      1  C   UNL     1      -4.420   1.743   8.024  0.00  0.00    +0.069 C 
ENDROOT
BRANCH   1   2
ATOM      2  C   UNL     1      -5.447   2.531   8.795  0.00  0.00    -0.006 A 
ATOM      3  C   UNL     1      -5.900   2.268  10.160  0.00  0.00    +0.004 A 
ATOM      4  C   UNL     1      -5.578   1.302  11.118  0.00  0.00    +0.010 A 
ATOM      5  C   UNL     1      -6.194   1.324  12.337  0.00  0.00    +0.001 A 
ATOM      6  C   UNL     1      -7.138   2.298  12.633  0.00  0.00    +0.002 A 
ATOM      7  C   UNL     1      -7.472   3.260  11.704  0.00  0.00    +0.026 A 
ATOM      8  C   UNL     1      -6.857   3.258  10.456  0.00  0.00    +0.047 A 
ATOM      9  N   UNL     1      -6.973   4.064   9.345  0.00  0.00    -0.354 N 
ATOM     10  H   UNL     1      -7.564   4.830   9.271  0.00  0.00    +0.166 HD
ATOM     11  C   UNL     1      -6.121   3.624   8.358  0.00  0.00    +0.051 A 
BRANCH  11  12
ATOM     12  C   UNL     1      -5.967   4.245   7.025  0.00  0.00    -0.001 A 
ATOM     13  C   UNL     1      -4.694   4.448   6.490  0.00  0.00    +0.010 A 
ATOM     14  C   UNL     1      -4.557   5.027   5.245  0.00  0.00    +0.001 A 
ATOM     15  C   UNL     1      -5.678   5.406   4.528  0.00  0.00    +0.000 A 
ATOM     16  C   UNL     1      -6.942   5.207   5.053  0.00  0.00    +0.001 A 
ATOM     17  C   UNL     1      -7.093   4.624   6.294  0.00  0.00    +0.010 A 
ENDBRANCH  11  12
ENDBRANCH   1   2
BRANCH   1  18
ATOM     18  C   UNL     1      -3.893   0.625   8.886  0.00  0.00    -0.038 A 
ATOM     19  C   UNL     1      -4.619  -0.544   9.021  0.00  0.00    +0.004 A 
ATOM     20  C   UNL     1      -4.135  -1.570   9.812  0.00  0.00    +0.000 A 
ATOM     21  C   UNL     1      -2.927  -1.427  10.467  0.00  0.00    +0.000 A 
ATOM     22  C   UNL     1      -2.201  -0.258  10.331  0.00  0.00    +0.000 A 
ATOM     23  C   UNL     1      -2.682   0.766   9.537  0.00  0.00    +0.004 A 
ENDBRANCH   1  18
BRANCH   1  24
ATOM     24  C   UNL     1      -5.067   1.157   6.767  0.00  0.00    +0.117 C 
BRANCH  24  27
ATOM     25  C   UNL     1      -4.385  -0.102   4.795  0.00  0.00    +0.213 C 
ATOM     26  O   UNL     1      -5.538  -0.085   4.421  0.00  0.00    -0.276 OA
ATOM     27  N   UNL     1      -4.044   0.491   5.956  0.00  0.00    -0.314 N 
ATOM     28  H   UNL     1      -3.121   0.478   6.255  0.00  0.00    +0.149 HD
BRANCH  25  29
ATOM     29  C   UNL     1      -3.332  -0.786   3.961  0.00  0.00    +0.097 C 
BRANCH  29  30
ATOM     30  C   UNL     1      -3.979  -1.372   2.705  0.00  0.00    +0.031 C 
BRANCH  30  31
ATOM     31  C   UNL     1      -2.910  -2.067   1.858  0.00  0.00    +0.123 C 
BRANCH  31  37
ATOM     32  C   UNL     1      -3.439  -0.531  -0.780  0.00  0.00    +0.084 C 
ATOM     33  C   UNL     1      -3.768  -1.976  -0.503  0.00  0.00    +0.084 A 
ATOM     34  N   UNL     1      -4.325  -2.804  -1.344  0.00  0.00    -0.350 N 
ATOM     35  C   UNL     1      -4.465  -4.002  -0.757  0.00  0.00    +0.101 A 
ATOM     36  C   UNL     1      -3.977  -3.912   0.495  0.00  0.00    +0.104 A 
ATOM     37  N   UNL     1      -3.530  -2.628   0.655  0.00  0.00    -0.336 N 
ATOM     38  H   UNL     1      -4.594  -2.587  -2.250  0.00  0.00    +0.166 HD
ENDBRANCH  31  37
ENDBRANCH  30  31
ENDBRANCH  29  30
ENDBRANCH  25  29
ENDBRANCH  24  27
ENDBRANCH   1  24
TORSDOF 9
