REMARK  Name = ZINC01384582
REMARK  4 active torsions:
REMARK  status: ('A' for Active; 'I' for Inactive)
REMARK    1  A    between atoms: C_1  and  C_2
REMARK    2  A    between atoms: C_2  and  C_13
REMARK    3  A    between atoms: N_15  and  C_16
REMARK    4  A    between atoms: C_16  and  C_17
REMARK                            x       y       z     vdW  Elec       q    Type
REMARK                         _______ _______ _______ _____ _____    ______ ____
ROOT
ATOM      1  C   UNL     1      -0.019   1.526   0.010  0.00  0.00    +0.076 C 
ATOM      2  C   UNL     1       0.002  -0.004   0.002  0.00  0.00    +0.257 C 
ATOM      3  C   UNL     1      -1.413  -0.525   0.008  0.00  0.00    +0.270 C 
ATOM      4  O   UNL     1      -2.310   0.144  -0.460  0.00  0.00    -0.271 OA
ATOM      5  N   UNL     1      -1.677  -1.739   0.535  0.00  0.00    -0.279 N 
ATOM      6  C   UNL     1      -0.651  -2.441   1.182  0.00  0.00    +0.076 A 
ATOM      7  C   UNL     1      -0.820  -3.772   1.531  0.00  0.00    +0.027 A 
ATOM      8  C   UNL     1       0.207  -4.454   2.158  0.00  0.00    +0.002 A 
ATOM      9  C   UNL     1       1.400  -3.813   2.436  0.00  0.00    +0.004 A 
ATOM     10  C   UNL     1       1.573  -2.484   2.095  0.00  0.00    +0.047 A 
ATOM     11  C   UNL     1       0.547  -1.792   1.472  0.00  0.00    +0.144 A 
ATOM     12  O   UNL     1       0.694  -0.477   1.160  0.00  0.00    -0.466 OA
ATOM     13  H   UNL     1      -2.566  -2.121   0.467  0.00  0.00    +0.155 HD
ENDROOT
BRANCH   2  14
ATOM     14  C   UNL     1       0.709  -0.489  -1.237  0.00  0.00    +0.266 C 
ATOM     15  O   UNL     1       0.070  -0.781  -2.225  0.00  0.00    -0.271 OA
ATOM     16  N   UNL     1       2.053  -0.599  -1.247  0.00  0.00    -0.307 N 
ATOM     17  H   UNL     1       2.564  -0.366  -0.456  0.00  0.00    +0.149 HD
BRANCH  16  18
ATOM     18  C   UNL     1       2.740  -1.071  -2.452  0.00  0.00    +0.139 C 
BRANCH  18  19
ATOM     19  C   UNL     1       4.226  -1.103  -2.202  0.00  0.00    -0.029 A 
ATOM     20  C   UNL     1       4.996   0.013  -2.473  0.00  0.00    +0.007 A 
ATOM     21  C   UNL     1       6.359  -0.015  -2.245  0.00  0.00    +0.022 A 
ATOM     22  C   UNL     1       6.953  -1.159  -1.745  0.00  0.00    +0.059 A 
ATOM     23  C   UNL     1       6.182  -2.276  -1.473  0.00  0.00    +0.060 A 
ATOM     24  C   UNL     1       4.817  -2.245  -1.697  0.00  0.00    +0.026 A 
ATOM     25 CL   UNL     1       6.927  -3.714  -0.846  0.00  0.00    -0.082 Cl
ATOM     26 CL   UNL     1       8.665  -1.195  -1.459  0.00  0.00    -0.082 Cl
ENDBRANCH  18  19
ENDBRANCH  16  18
ENDBRANCH   2  14
TORSDOF 3
