REMARK  Name = ZINC19597713
REMARK  7 active torsions:
REMARK  status: ('A' for Active; 'I' for Inactive)
REMARK    1  A    between atoms: C_1  and  C_2
REMARK    2  A    between atoms: C_3  and  C_9
REMARK    3  A    between atoms: C_4  and  O_8
REMARK    4  A    between atoms: C_9  and  C_10
REMARK    5  A    between atoms: C_9  and  C_17
REMARK    6  A    between atoms: C_18  and  C_24
REMARK    7  A    between atoms: C_22  and  O_23
REMARK                            x       y       z     vdW  Elec       q    Type
REMARK                         _______ _______ _______ _____ _____    ______ ____
ROOT
ATOM      1  C   UNL     1      -0.008  -0.356  -2.553  0.00  0.00    +0.094 C 
ENDROOT
BRANCH   1   4
ATOM      2  C   UNL     1      -0.509   1.856  -0.340  0.00  0.00    +0.068 C 
ATOM      3  C   UNL     1      -0.375   0.375  -0.095  0.00  0.00    +0.068 A 
ATOM      4  C   UNL     1      -0.153  -0.600  -1.073  0.00  0.00    +0.048 A 
ATOM      5  C   UNL     1      -0.094  -1.807  -0.451  0.00  0.00    +0.213 A 
ATOM      6  N   UNL     1      -0.272  -1.595   0.872  0.00  0.00    -0.247 N 
ATOM      7  H   UNL     1      -0.278  -2.275   1.563  0.00  0.00    +0.192 HD
ATOM      8  N   UNL     1      -0.440  -0.218   1.069  0.00  0.00    -0.176 NA
BRANCH   5   9
ATOM      9  O   UNL     1       0.107  -3.009  -1.050  0.00  0.00    -0.492 OA
ATOM     10  H   UNL     1       1.031  -3.297  -1.052  0.00  0.00    +0.294 HD
ENDBRANCH   5   9
ENDBRANCH   1   4
BRANCH   1  11
ATOM     11  C   UNL     1      -1.191  -0.943  -3.278  0.00  0.00    -0.017 A 
ATOM     12  C   UNL     1      -1.374  -2.312  -3.308  0.00  0.00    +0.006 A 
ATOM     13  C   UNL     1      -2.460  -2.851  -3.973  0.00  0.00    +0.000 A 
ATOM     14  C   UNL     1      -3.364  -2.020  -4.608  0.00  0.00    +0.001 A 
ATOM     15  C   UNL     1      -3.182  -0.650  -4.579  0.00  0.00    +0.020 A 
ATOM     16  C   UNL     1      -2.098  -0.110  -3.909  0.00  0.00    +0.045 A 
ATOM     17 CL   UNL     1      -1.873   1.611  -3.866  0.00  0.00    -0.083 Cl
ENDBRANCH   1  11
BRANCH   1  18
ATOM     18  C   UNL     1       1.258  -1.008  -3.047  0.00  0.00    +0.048 A 
ATOM     19  C   UNL     1       2.425  -1.099  -2.368  0.00  0.00    +0.041 A 
ATOM     20  N   UNL     1       3.308  -1.752  -3.151  0.00  0.00    -0.278 N 
ATOM     21  N   UNL     1       2.666  -2.075  -4.354  0.00  0.00    -0.136 NA
ATOM     22  H   UNL     1       4.228  -1.961  -2.922  0.00  0.00    +0.189 HD
ATOM     23  C   UNL     1       1.433  -1.634  -4.290  0.00  0.00    +0.236 A 
ATOM     24  C   UNL     1       2.690  -0.565  -0.984  0.00  0.00    +0.065 C 
BRANCH  23  25
ATOM     25  O   UNL     1       0.490  -1.759  -5.261  0.00  0.00    -0.491 OA
ATOM     26  H   UNL     1       0.525  -1.067  -5.936  0.00  0.00    +0.294 HD
ENDBRANCH  23  25
ENDBRANCH   1  18
TORSDOF 5
