REMARK  Name = ZINC39935676
REMARK  10 active torsions:
REMARK  status: ('A' for Active; 'I' for Inactive)
REMARK    1  A    between atoms: C_1  and  C_2
REMARK    2  A    between atoms: C_2  and  O_3
REMARK    3  A    between atoms: O_3  and  C_4
REMARK    4  A    between atoms: C_7  and  C_10
REMARK    5  A    between atoms: C_12  and  C_32
REMARK    6  A    between atoms: C_13  and  C_31
REMARK    7  A    between atoms: C_20  and  C_21
REMARK    8  A    between atoms: C_32  and  O_34
REMARK    9  A    between atoms: O_34  and  C_35
REMARK   10  A    between atoms: C_35  and  C_36
REMARK                            x       y       z     vdW  Elec       q    Type
REMARK                         _______ _______ _______ _____ _____    ______ ____
ROOT
ATOM      1  C   UNL     1      -2.126  -5.879   0.081  0.00  0.00    +0.162 C 
ATOM      2  C   UNL     1      -2.334  -6.401   1.484  0.00  0.00    +0.085 C 
ATOM      3  C   UNL     1      -3.351  -7.287   1.695  0.00  0.00    +0.053 C 
ATOM      4  N   UNL     1      -4.131  -7.673   0.691  0.00  0.00    -0.228 NA
ATOM      5  C   UNL     1      -4.012  -7.266  -0.545  0.00  0.00    +0.178 A 
ATOM      6  N   UNL     1      -3.056  -6.375  -0.973  0.00  0.00    -0.275 N 
ATOM      7  C   UNL     1      -3.031  -6.029  -2.267  0.00  0.00    +0.268 A 
ATOM      8  O   UNL     1      -2.204  -5.246  -2.693  0.00  0.00    -0.266 OA
ATOM      9  C   UNL     1      -4.043  -6.633  -3.160  0.00  0.00    +0.080 A 
ATOM     10  C   UNL     1      -4.237  -6.452  -4.515  0.00  0.00    +0.026 C 
ATOM     11  S   UNL     1      -4.943  -7.661  -2.013  0.00  0.00    -0.046 S 
ATOM     12  C   UNL     1      -3.592  -7.832   3.079  0.00  0.00    +0.066 C 
ENDROOT
BRANCH  10  13
ATOM     13  C   UNL     1      -5.267  -7.131  -5.170  0.00  0.00    -0.018 C 
ATOM     14  C   UNL     1      -5.593  -7.066  -6.524  0.00  0.00    +0.003 A 
ATOM     15  C   UNL     1      -5.039  -6.349  -7.606  0.00  0.00    +0.010 A 
ATOM     16  C   UNL     1      -5.574  -6.481  -8.846  0.00  0.00    +0.001 A 
ATOM     17  C   UNL     1      -6.671  -7.316  -9.086  0.00  0.00    +0.002 A 
ATOM     18  C   UNL     1      -7.255  -8.033  -8.098  0.00  0.00    +0.026 A 
ATOM     19  C   UNL     1      -6.750  -7.947  -6.771  0.00  0.00    +0.043 A 
ATOM     20  N   UNL     1      -7.130  -8.530  -5.656  0.00  0.00    -0.380 N 
ATOM     21  C   UNL     1      -6.259  -8.096  -4.559  0.00  0.00    +0.149 C 
ATOM     22  H   UNL     1      -7.869  -9.152  -5.573  0.00  0.00    +0.160 HD
ENDBRANCH  10  13
BRANCH   1  26
ATOM     23  C   UNL     1      -2.433  -1.618   0.205  0.00  0.00    +0.121 A 
ATOM     24  C   UNL     1      -1.188  -2.227   0.259  0.00  0.00    +0.046 A 
ATOM     25  C   UNL     1      -1.091  -3.604   0.218  0.00  0.00    +0.009 A 
ATOM     26  C   UNL     1      -2.235  -4.376   0.125  0.00  0.00    -0.020 A 
ATOM     27  C   UNL     1      -3.477  -3.772   0.071  0.00  0.00    +0.009 A 
ATOM     28  C   UNL     1      -3.579  -2.395   0.117  0.00  0.00    +0.046 A 
BRANCH  23  29
ATOM     29  O   UNL     1      -2.531  -0.263   0.245  0.00  0.00    -0.492 OA
BRANCH  29  31
ATOM     30  C   UNL     1      -1.618   1.971   0.368  0.00  0.00    +0.048 C 
ATOM     31  C   UNL     1      -1.309   0.473   0.336  0.00  0.00    +0.225 C 
ENDBRANCH  29  31
ENDBRANCH  23  29
ENDBRANCH   1  26
BRANCH   2  32
ATOM     32  C   UNL     1      -1.504  -5.987   2.541  0.00  0.00    +0.339 C 
ATOM     33  O   UNL     1      -1.761  -6.319   3.684  0.00  0.00    -0.245 OA
BRANCH  32  34
ATOM     34  O   UNL     1      -0.420  -5.221   2.288  0.00  0.00    -0.462 OA
BRANCH  34  35
ATOM     35  C   UNL     1       0.379  -4.837   3.409  0.00  0.00    +0.229 C 
ATOM     36  C   UNL     1       1.552  -3.980   2.930  0.00  0.00    +0.048 C 
ENDBRANCH  34  35
ENDBRANCH  32  34
ENDBRANCH   2  32
TORSDOF 7
