REMARK  Name = ZINC03771996
REMARK  11 active torsions:
REMARK  status: ('A' for Active; 'I' for Inactive)
REMARK    1  A    between atoms: C_1  and  N_2
REMARK    2  A    between atoms: C_3  and  C_15
REMARK    3  A    between atoms: C_3  and  N_59
REMARK    4  A    between atoms: C_15  and  C_17
REMARK    5  A    between atoms: C_23  and  C_24
REMARK    6  A    between atoms: C_23  and  N_59
REMARK    7  A    between atoms: C_24  and  O_25
REMARK    8  A    between atoms: O_25  and  C_26
REMARK    9  A    between atoms: C_26  and  C_28
REMARK   10  A    between atoms: C_33  and  O_34
REMARK   11  A    between atoms: O_34  and  C_35
REMARK                            x       y       z     vdW  Elec       q    Type
REMARK                         _______ _______ _______ _____ _____    ______ ____
ROOT
ATOM      1  C   UNL     1      -2.221   4.553   0.932  0.00  0.00    +0.131 C 
ATOM      2  N   UNL     1      -1.255   3.796   0.131  0.00  0.00    -0.176 NA
ATOM      3  C   UNL     1      -0.023   4.420  -0.387  0.00  0.00    +0.135 C 
ATOM      4  C   UNL     1       1.160   3.666   0.161  0.00  0.00    +0.177 C 
ATOM      5  O   UNL     1       2.082   4.287   0.645  0.00  0.00    -0.292 OA
ATOM      6  C   UNL     1       1.226   2.199   0.125  0.00  0.00    +0.044 A 
ATOM      7  C   UNL     1       2.470   1.568   0.261  0.00  0.00    +0.013 A 
ATOM      8  C   UNL     1       2.549   0.193   0.259  0.00  0.00    +0.001 A 
ATOM      9  C   UNL     1       1.403  -0.572   0.121  0.00  0.00    +0.002 A 
ATOM     10  C   UNL     1       0.171   0.042  -0.021  0.00  0.00    +0.029 A 
ATOM     11  C   UNL     1       0.079   1.417  -0.026  0.00  0.00    +0.116 A 
ATOM     12  S   UNL     1      -1.494   2.190  -0.238  0.00  0.00    +0.061 S 
ATOM     13  O   UNL     1      -1.800   2.127  -1.625  0.00  0.00    -0.153 OA
ATOM     14  O   UNL     1      -2.353   1.660   0.762  0.00  0.00    -0.153 OA
ENDROOT
BRANCH   3  15
ATOM     15  N   UNL     1      -0.020   4.353  -1.861  0.00  0.00    +0.404 N 
ATOM     16  H   UNL     1      -0.774   4.944  -2.228  0.00  0.00    -0.082 HD
ATOM     17  H   UNL     1      -0.172   3.381  -2.156  0.00  0.00    -0.082 HD
BRANCH  15  18
ATOM     18  C   UNL     1       1.272   4.825  -2.393  0.00  0.00    -0.037 C 
BRANCH  18  19
ATOM     19  C   UNL     1       1.289   4.637  -3.911  0.00  0.00    +0.213 C 
BRANCH  19  20
ATOM     20  O   UNL     1       0.283   5.492  -4.516  0.00  0.00    -0.463 OA
BRANCH  20  21
ATOM     21  C   UNL     1       0.168   5.445  -5.857  0.00  0.00    +0.343 C 
ATOM     22  O   UNL     1       0.887   4.710  -6.504  0.00  0.00    -0.245 OA
BRANCH  21  23
ATOM     23  C   UNL     1      -0.832   6.286  -6.541  0.00  0.00    +0.100 A 
ATOM     24  C   UNL     1      -1.666   7.129  -5.800  0.00  0.00    +0.018 A 
ATOM     25  C   UNL     1      -2.594   7.916  -6.446  0.00  0.00    +0.001 A 
ATOM     26  C   UNL     1      -2.713   7.869  -7.825  0.00  0.00    +0.004 A 
ATOM     27  C   UNL     1      -1.900   7.036  -8.568  0.00  0.00    +0.046 A 
ATOM     28  C   UNL     1      -0.956   6.241  -7.936  0.00  0.00    +0.134 A 
BRANCH  28  29
ATOM     29  O   UNL     1      -0.157   5.422  -8.665  0.00  0.00    -0.494 OA
ATOM     30  C   UNL     1      -0.341   5.429 -10.082  0.00  0.00    +0.277 C 
ENDBRANCH  28  29
ENDBRANCH  21  23
ENDBRANCH  20  21
ENDBRANCH  19  20
ENDBRANCH  18  19
ENDBRANCH  15  18
ENDBRANCH   3  15
BRANCH   3  31
ATOM     31  C   UNL     1       0.043   5.858   0.058  0.00  0.00    +0.175 C 
ATOM     32  O   UNL     1      -0.029   6.750  -0.761  0.00  0.00    -0.292 OA
BRANCH  31  33
ATOM     33  C   UNL     1       0.193   6.181   1.486  0.00  0.00    +0.018 A 
ATOM     34  C   UNL     1       0.310   5.155   2.429  0.00  0.00    +0.011 A 
ATOM     35  C   UNL     1       0.458   5.466   3.765  0.00  0.00    +0.001 A 
ATOM     36  C   UNL     1       0.478   6.788   4.173  0.00  0.00    +0.000 A 
ATOM     37  C   UNL     1       0.356   7.808   3.246  0.00  0.00    +0.001 A 
ATOM     38  C   UNL     1       0.214   7.514   1.907  0.00  0.00    +0.011 A 
ENDBRANCH  31  33
ENDBRANCH   3  31
TORSDOF 9
