REMARK  Name = ZINC39431407
REMARK  6 active torsions:
REMARK  status: ('A' for Active; 'I' for Inactive)
REMARK    1  A    between atoms: C_1  and  C_2
REMARK    2  A    between atoms: C_2  and  O_3
REMARK    3  A    between atoms: O_3  and  C_4
REMARK    4  A    between atoms: C_4  and  C_6
REMARK    5  A    between atoms: C_7  and  C_27
REMARK    6  A    between atoms: C_12  and  C_14
REMARK                            x       y       z     vdW  Elec       q    Type
REMARK                         _______ _______ _______ _____ _____    ______ ____
ROOT
ATOM      1  C   UNL     1      -2.800  -2.432   0.236  0.00  0.00    +0.078 C 
ATOM      2  C   UNL     1      -2.985  -3.731  -0.085  0.00  0.00    +0.021 C 
ATOM      3  N   UNL     1      -4.236  -4.233  -0.297  0.00  0.00    -0.273 N 
ATOM      4  C   UNL     1      -5.355  -3.503  -0.209  0.00  0.00    +0.304 C 
ATOM      5  O   UNL     1      -6.426  -4.039  -0.417  0.00  0.00    -0.252 OA
ATOM      6  N   UNL     1      -5.332  -2.192   0.102  0.00  0.00    -0.288 N 
ATOM      7  C   UNL     1      -4.029  -1.554   0.357  0.00  0.00    +0.143 C 
ATOM      8  C   UNL     1      -1.789  -4.640  -0.210  0.00  0.00    +0.061 C 
ATOM      9  H   UNL     1      -4.320  -5.173  -0.525  0.00  0.00    +0.156 HD
ATOM     10  H   UNL     1      -6.155  -1.681   0.160  0.00  0.00    +0.151 HD
ENDROOT
BRANCH   7  11
ATOM     11  C   UNL     1      -3.880  -0.410  -0.612  0.00  0.00    -0.022 A 
ATOM     12  C   UNL     1      -4.170  -0.596  -1.952  0.00  0.00    +0.006 A 
ATOM     13  C   UNL     1      -4.035   0.447  -2.844  0.00  0.00    +0.009 A 
ATOM     14  C   UNL     1      -3.604   1.697  -2.396  0.00  0.00    -0.014 A 
ATOM     15  C   UNL     1      -3.316   1.875  -1.046  0.00  0.00    -0.035 A 
ATOM     16  C   UNL     1      -3.458   0.828  -0.160  0.00  0.00    +0.010 A 
ATOM     17  C   UNL     1      -2.880   3.308  -0.860  0.00  0.00    +0.071 C 
ATOM     18  C   UNL     1      -2.943   3.944  -2.226  0.00  0.00    -0.035 A 
ATOM     19  C   UNL     1      -3.376   2.970  -3.123  0.00  0.00    -0.014 A 
ATOM     20  C   UNL     1      -3.522   3.298  -4.471  0.00  0.00    +0.009 A 
ATOM     21  C   UNL     1      -3.238   4.577  -4.904  0.00  0.00    +0.001 A 
ATOM     22  C   UNL     1      -2.809   5.537  -4.007  0.00  0.00    +0.000 A 
ATOM     23  C   UNL     1      -2.663   5.220  -2.668  0.00  0.00    +0.004 A 
ENDBRANCH   7  11
BRANCH   1  24
ATOM     24  C   UNL     1      -1.504  -1.910   0.457  0.00  0.00    +0.339 C 
ATOM     25  O   UNL     1      -0.542  -2.655   0.471  0.00  0.00    -0.245 OA
BRANCH  24  26
ATOM     26  O   UNL     1      -1.334  -0.586   0.652  0.00  0.00    -0.462 OA
BRANCH  26  28
ATOM     27  C   UNL     1      -0.005   1.389   1.070  0.00  0.00    +0.048 C 
ATOM     28  C   UNL     1       0.002  -0.128   0.870  0.00  0.00    +0.229 C 
ENDBRANCH  26  28
ENDBRANCH  24  26
ENDBRANCH   1  24
TORSDOF 4
