REMARK  Name = ZINC07696463
REMARK  10 active torsions:
REMARK  status: ('A' for Active; 'I' for Inactive)
REMARK    1  A    between atoms: C_1  and  C_2
REMARK    2  A    between atoms: C_2  and  C_3
REMARK    3  A    between atoms: C_3  and  N_61
REMARK    4  A    between atoms: C_4  and  C_5
REMARK    5  A    between atoms: C_4  and  N_61
REMARK    6  A    between atoms: N_7  and  C_8
REMARK    7  A    between atoms: C_13  and  C_14
REMARK    8  A    between atoms: C_15  and  C_16
REMARK    9  A    between atoms: C_15  and  N_61
REMARK   10  A    between atoms: C_29  and  C_31
REMARK                            x       y       z     vdW  Elec       q    Type
REMARK                         _______ _______ _______ _____ _____    ______ ____
ROOT
ATOM      1  C   UNL     1       0.746   5.277   2.412  0.00  0.00    +0.020 C 
ENDROOT
BRANCH   1   2
ATOM      2  C   UNL     1      -0.613   4.698   2.714  0.00  0.00    +0.204 C 
ATOM      3  O   UNL     1      -1.249   5.107   3.663  0.00  0.00    -0.277 OA
ATOM      4  N   UNL     1      -1.121   3.727   1.931  0.00  0.00    -0.268 N 
ATOM      5  C   UNL     1      -0.398   3.244   0.832  0.00  0.00    +0.058 A 
ATOM      6  C   UNL     1      -0.259   4.011  -0.314  0.00  0.00    +0.025 A 
ATOM      7  C   UNL     1       0.430   3.506  -1.401  0.00  0.00    +0.002 A 
ATOM      8  C   UNL     1       0.974   2.236  -1.352  0.00  0.00    +0.002 A 
ATOM      9  C   UNL     1       0.838   1.462  -0.214  0.00  0.00    +0.025 A 
ATOM     10  C   UNL     1       0.166   1.969   0.886  0.00  0.00    +0.055 A 
ATOM     11  N   UNL     1       0.052   1.222   2.065  0.00  0.00    -0.284 N 
ATOM     12  C   UNL     1      -1.146   1.080   2.673  0.00  0.00    +0.219 C 
ATOM     13  O   UNL     1      -1.217   0.501   3.736  0.00  0.00    -0.275 OA
ATOM     14  C   UNL     1      -2.394   1.636   2.040  0.00  0.00    +0.118 C 
ATOM     15  C   UNL     1      -2.439   3.155   2.211  0.00  0.00    +0.087 C 
ATOM     16  C   UNL     1      -3.466   3.745   1.241  0.00  0.00    +0.029 C 
ATOM     17  H   UNL     1       0.839   0.804   2.448  0.00  0.00    +0.155 HD
ENDBRANCH   1   2
BRANCH   1  18
ATOM     18  N   UNL     1       0.996   6.405   3.334  0.00  0.00    +0.391 N 
ATOM     19  H   UNL     1       0.140   6.967   3.413  0.00  0.00    -0.080 HD
BRANCH  18  20
ATOM     20  C   UNL     1       2.082   7.257   2.806  0.00  0.00    -0.078 C 
BRANCH  20  22
ATOM     21  C   UNL     1       2.656   8.932   1.043  0.00  0.00    +0.002 C 
ATOM     22  C   UNL     1       1.523   8.119   1.673  0.00  0.00    -0.022 C 
ENDBRANCH  20  22
ENDBRANCH  18  20
BRANCH  18  23
ATOM     23  C   UNL     1       1.360   5.893   4.672  0.00  0.00    +0.020 C 
BRANCH  23  24
ATOM     24  C   UNL     1       1.393   7.046   5.641  0.00  0.00    +0.201 C 
ATOM     25  O   UNL     1       1.157   8.171   5.253  0.00  0.00    -0.278 OA
ATOM     26  N   UNL     1       1.686   6.828   6.938  0.00  0.00    -0.287 N 
ATOM     27  H   UNL     1       1.794   5.921   7.265  0.00  0.00    +0.155 HD
BRANCH  26  28
ATOM     28  C   UNL     1       1.833   7.910   7.814  0.00  0.00    +0.036 A 
ATOM     29  C   UNL     1       2.191   9.159   7.323  0.00  0.00    +0.023 A 
ATOM     30  C   UNL     1       2.330  10.225   8.189  0.00  0.00    +0.002 A 
ATOM     31  C   UNL     1       2.124  10.048   9.545  0.00  0.00    +0.000 A 
ATOM     32  C   UNL     1       1.772   8.805  10.038  0.00  0.00    +0.005 A 
ATOM     33  C   UNL     1       1.626   7.735   9.176  0.00  0.00    -0.029 A 
ATOM     34  C   UNL     1       1.243   6.380   9.713  0.00  0.00    +0.045 C 
ENDBRANCH  26  28
ENDBRANCH  23  24
ENDBRANCH  18  23
ENDBRANCH   1  18
TORSDOF 7
