REMARK  Name = ZINC06815159
REMARK  6 active torsions:
REMARK  status: ('A' for Active; 'I' for Inactive)
REMARK    1  A    between atoms: C_1  and  C_2
REMARK    2  A    between atoms: C_5  and  O_9
REMARK    3  A    between atoms: C_7  and  C_8
REMARK    4  A    between atoms: O_9  and  C_10
REMARK    5  A    between atoms: C_10  and  C_11
REMARK    6  A    between atoms: N_16  and  N_17
REMARK                            x       y       z     vdW  Elec       q    Type
REMARK                         _______ _______ _______ _____ _____    ______ ____
ROOT
ATOM      1  C   UNL     1       0.058  -4.771  -1.298  0.00  0.00    +0.306 C 
ENDROOT
BRANCH   1   2
ATOM      2  C   UNL     1       0.079  -6.266  -1.108  0.00  0.00    +0.189 A 
ATOM      3  N   UNL     1       1.139  -7.017  -1.011  0.00  0.00    -0.128 NA
ATOM      4  N   UNL     1       0.795  -8.246  -0.855  0.00  0.00    -0.120 NA
ATOM      5  C   UNL     1      -0.514  -8.346  -0.845  0.00  0.00    +0.219 A 
ATOM      6  S   UNL     1      -1.450  -9.826  -0.658  0.00  0.00    -0.008 SA
ATOM      7  N   UNL     1      -1.012  -7.084  -1.001  0.00  0.00    -0.224 N 
BRANCH   7   8
ATOM      8  N   UNL     1      -2.327  -6.716  -1.044  0.00  0.00    -0.295 N 
ATOM      9  H   UNL     1      -2.678  -6.737  -1.989  0.00  0.00    +0.163 HD
ATOM     10  H   UNL     1      -2.885  -7.298  -0.438  0.00  0.00    +0.163 HD
ENDBRANCH   7   8
ENDBRANCH   1   2
BRANCH   1  11
ATOM     11  O   UNL     1       0.057  -4.129  -0.021  0.00  0.00    -0.484 OA
BRANCH  11  16
ATOM     12  C   UNL     1      -0.018   1.503   0.010  0.00  0.00    +0.044 C 
ATOM     13  C   UNL     1       0.002  -0.004   0.002  0.00  0.00    -0.047 A 
ATOM     14  C   UNL     1       0.006  -0.688  -1.200  0.00  0.00    +0.007 A 
ATOM     15  C   UNL     1       0.024  -2.069  -1.210  0.00  0.00    +0.046 A 
ATOM     16  C   UNL     1       0.039  -2.770  -0.013  0.00  0.00    +0.121 A 
ATOM     17  C   UNL     1       0.036  -2.082   1.191  0.00  0.00    +0.049 A 
ATOM     18  C   UNL     1       0.023  -0.701   1.196  0.00  0.00    -0.044 A 
ATOM     19  C   UNL     1       0.025   0.048   2.504  0.00  0.00    +0.044 C 
ENDBRANCH  11  16
ENDBRANCH   1  11
TORSDOF 4
