REMARK  Name = ZINC13640089
REMARK  10 active torsions:
REMARK  status: ('A' for Active; 'I' for Inactive)
REMARK    1  A    between atoms: C_1  and  C_2
REMARK    2  A    between atoms: C_2  and  O_3
REMARK    3  A    between atoms: O_3  and  C_4
REMARK    4  A    between atoms: C_6  and  C_11
REMARK    5  A    between atoms: C_9  and  O_10
REMARK    6  A    between atoms: C_13  and  C_31
REMARK    7  A    between atoms: N_23  and  C_26
REMARK    8  A    between atoms: C_31  and  O_33
REMARK    9  A    between atoms: O_33  and  C_34
REMARK   10  A    between atoms: C_34  and  C_35
REMARK                            x       y       z     vdW  Elec       q    Type
REMARK                         _______ _______ _______ _____ _____    ______ ____
ROOT
ATOM      1  C   UNL     1       1.222  -2.189  -0.020  0.00  0.00    +0.126 C 
ATOM      2  C   UNL     1       1.114  -2.718   1.416  0.00  0.00    +0.210 C 
ATOM      3  C   UNL     1      -0.285  -2.475   1.922  0.00  0.00    +0.255 C 
ATOM      4  O   UNL     1      -0.471  -2.338   3.115  0.00  0.00    -0.273 OA
ATOM      5  N   UNL     1      -1.316  -2.408   1.091  0.00  0.00    -0.151 NA
ATOM      6  C   UNL     1      -1.180  -2.522  -0.220  0.00  0.00    +0.175 C 
ATOM      7  N   UNL     1       0.059  -2.696  -0.769  0.00  0.00    -0.311 N 
ATOM      8  N   UNL     1      -2.278  -2.466  -1.024  0.00  0.00    -0.302 N 
ATOM      9  C   UNL     1      -2.150  -2.584  -2.485  0.00  0.00    +0.126 C 
ATOM     10  C   UNL     1      -3.131  -3.664  -2.968  0.00  0.00    +0.125 C 
ATOM     11  N   UNL     1      -4.481  -3.343  -2.487  0.00  0.00    -0.314 N 
ATOM     12  C   UNL     1      -4.543  -3.365  -1.020  0.00  0.00    +0.125 C 
ATOM     13  C   UNL     1      -3.621  -2.279  -0.456  0.00  0.00    +0.126 C 
ATOM     14  H   UNL     1       0.170  -3.139  -1.625  0.00  0.00    +0.149 HD
ENDROOT
BRANCH  11  15
ATOM     15  C   UNL     1      -5.424  -4.202  -3.039  0.00  0.00    +0.099 A 
ATOM     16  C   UNL     1      -5.526  -4.317  -4.422  0.00  0.00    +0.042 A 
ATOM     17  C   UNL     1      -6.465  -5.181  -4.957  0.00  0.00    +0.005 A 
ATOM     18  C   UNL     1      -7.281  -5.894  -4.089  0.00  0.00    +0.018 A 
ATOM     19  C   UNL     1      -7.129  -5.726  -2.728  0.00  0.00    +0.084 A 
ATOM     20  N   UNL     1      -6.214  -4.892  -2.166  0.00  0.00    -0.350 N 
ATOM     21  H   UNL     1      -6.123  -4.787  -1.149  0.00  0.00    +0.166 HD
ENDBRANCH  11  15
BRANCH   1  24
ATOM     22  C   UNL     1       0.043   1.380   0.361  0.00  0.00    +0.162 A 
ATOM     23  C   UNL     1       0.058  -0.005   0.354  0.00  0.00    +0.055 A 
ATOM     24  C   UNL     1       1.207  -0.682  -0.013  0.00  0.00    -0.022 A 
ATOM     25  C   UNL     1       2.342   0.021  -0.372  0.00  0.00    +0.009 A 
ATOM     26  C   UNL     1       2.333   1.403  -0.367  0.00  0.00    +0.049 A 
ATOM     27  C   UNL     1       1.186   2.087  -0.001  0.00  0.00    +0.158 A 
BRANCH  27  28
ATOM     28  O   UNL     1       1.176   3.447   0.005  0.00  0.00    -0.503 OA
ATOM     29  H   UNL     1       0.905   3.842  -0.835  0.00  0.00    +0.292 HD
ENDBRANCH  27  28
BRANCH  22  30
ATOM     30  O   UNL     1      -1.086   2.047   0.721  0.00  0.00    -0.489 OA
BRANCH  30  32
ATOM     31  C   UNL     1      -3.386   2.175   1.452  0.00  0.00    +0.048 C 
ATOM     32  C   UNL     1      -2.220   1.256   1.080  0.00  0.00    +0.226 C 
ENDBRANCH  30  32
ENDBRANCH  22  30
ENDBRANCH   1  24
BRANCH   2  33
ATOM     33  C   UNL     1       2.102  -1.995   2.296  0.00  0.00    +0.321 C 
ATOM     34  O   UNL     1       2.819  -1.144   1.826  0.00  0.00    -0.250 OA
BRANCH  33  35
ATOM     35  O   UNL     1       2.184  -2.297   3.601  0.00  0.00    -0.464 OA
BRANCH  35  36
ATOM     36  C   UNL     1       3.158  -1.561   4.388  0.00  0.00    +0.229 C 
ATOM     37  C   UNL     1       3.106  -2.039   5.840  0.00  0.00    +0.048 C 
ENDBRANCH  35  36
ENDBRANCH  33  35
ENDBRANCH   2  33
TORSDOF 8
