REMARK  Name = ZINC10395752
REMARK  10 active torsions:
REMARK  status: ('A' for Active; 'I' for Inactive)
REMARK    1  A    between atoms: C_1  and  C_2
REMARK    2  A    between atoms: C_3  and  C_32
REMARK    3  A    between atoms: C_7  and  N_31
REMARK    4  A    between atoms: C_9  and  C_11
REMARK    5  A    between atoms: C_11  and  S_12
REMARK    6  A    between atoms: S_12  and  C_13
REMARK    7  A    between atoms: C_16  and  C_26
REMARK    8  A    between atoms: N_17  and  C_18
REMARK    9  A    between atoms: C_23  and  O_24
REMARK   10  A    between atoms: O_24  and  C_25
REMARK                            x       y       z     vdW  Elec       q    Type
REMARK                         _______ _______ _______ _____ _____    ______ ____
ROOT
ATOM      1  C   UNL     1      -3.365   0.520  -1.305  0.00  0.00    +0.197 A 
ATOM      2  N   UNL     1      -4.398  -0.123  -0.810  0.00  0.00    -0.122 NA
ATOM      3  N   UNL     1      -4.367  -0.091   0.474  0.00  0.00    -0.127 NA
ATOM      4  C   UNL     1      -3.306   0.571   0.882  0.00  0.00    +0.176 A 
ATOM      5  N   UNL     1      -2.628   0.980  -0.247  0.00  0.00    -0.266 N 
ENDROOT
BRANCH   5   6
ATOM      6  C   UNL     1      -1.436   1.719  -0.300  0.00  0.00    +0.092 A 
ATOM      7  C   UNL     1      -0.213   1.065  -0.316  0.00  0.00    +0.030 A 
ATOM      8  C   UNL     1       0.959   1.794  -0.374  0.00  0.00    +0.002 A 
ATOM      9  C   UNL     1       0.917   3.176  -0.411  0.00  0.00    +0.004 A 
ATOM     10  C   UNL     1      -0.298   3.835  -0.390  0.00  0.00    +0.048 A 
ATOM     11  C   UNL     1      -1.478   3.111  -0.331  0.00  0.00    +0.144 A 
BRANCH  11  12
ATOM     12  O   UNL     1      -2.674   3.757  -0.309  0.00  0.00    -0.493 OA
ATOM     13  C   UNL     1      -2.640   5.185  -0.349  0.00  0.00    +0.277 C 
ENDBRANCH  11  12
ENDBRANCH   5   6
BRANCH   4  14
ATOM     14  C   UNL     1      -2.917   0.827   2.278  0.00  0.00    +0.057 A 
ATOM     15  C   UNL     1      -3.667   0.705   3.421  0.00  0.00    +0.019 A 
ATOM     16  C   UNL     1      -3.079   1.000   4.630  0.00  0.00    +0.008 A 
ATOM     17  C   UNL     1      -1.785   1.412   4.655  0.00  0.00    +0.046 A 
ATOM     18  S   UNL     1      -1.349   1.385   2.925  0.00  0.00    -0.094 S 
ENDBRANCH   4  14
BRANCH   1  19
ATOM     19  S   UNL     1      -2.994   0.744  -3.013  0.00  0.00    -0.078 S 
BRANCH  19  20
ATOM     20  C   UNL     1      -4.396  -0.128  -3.756  0.00  0.00    +0.153 C 
BRANCH  20  29
ATOM     21  C   UNL     1      -4.451   1.000 -10.335  0.00  0.00    +0.045 C 
ATOM     22  C   UNL     1      -3.893  -0.046  -9.405  0.00  0.00    -0.028 A 
ATOM     23  C   UNL     1      -3.199  -1.086  -9.892  0.00  0.00    -0.008 A 
ATOM     24  S   UNL     1      -2.764  -2.017  -8.435  0.00  0.00    -0.074 S 
ATOM     25  C   UNL     1      -3.526  -0.984  -7.211  0.00  0.00    +0.114 A 
ATOM     26  C   UNL     1      -4.099   0.059  -7.971  0.00  0.00    +0.050 A 
ATOM     27  C   UNL     1      -4.788   1.052  -7.222  0.00  0.00    +0.128 A 
ATOM     28  N   UNL     1      -4.852   0.938  -5.905  0.00  0.00    -0.216 NA
ATOM     29  C   UNL     1      -4.287  -0.065  -5.258  0.00  0.00    +0.143 A 
ATOM     30  N   UNL     1      -3.634  -1.016  -5.897  0.00  0.00    -0.224 NA
ATOM     31  C   UNL     1      -2.866  -1.394 -11.329  0.00  0.00    +0.052 C 
BRANCH  27  32
ATOM     32  N   UNL     1      -5.389   2.121  -7.862  0.00  0.00    -0.343 N 
ATOM     33  H   UNL     1      -5.631   2.051  -8.799  0.00  0.00    +0.144 HD
ATOM     34  H   UNL     1      -5.568   2.940  -7.375  0.00  0.00    +0.144 HD
ENDBRANCH  27  32
ENDBRANCH  20  29
ENDBRANCH  19  20
ENDBRANCH   1  19
TORSDOF 7
