REMARK  Name = ZINC39449276
REMARK  6 active torsions:
REMARK  status: ('A' for Active; 'I' for Inactive)
REMARK    1  A    between atoms: C_1  and  S_2
REMARK    2  A    between atoms: S_2  and  C_3
REMARK    3  A    between atoms: N_9  and  C_12
REMARK    4  A    between atoms: C_12  and  C_13
REMARK    5  A    between atoms: C_22  and  C_25
REMARK    6  A    between atoms: C_30  and  O_31
REMARK                            x       y       z     vdW  Elec       q    Type
REMARK                         _______ _______ _______ _____ _____    ______ ____
ROOT
ATOM      1  C   UNL     1       1.019  -0.088  -1.427  0.00  0.00    +0.026 A 
ATOM      2  C   UNL     1       1.228  -1.435  -1.715  0.00  0.00    +0.031 A 
ATOM      3  C   UNL     1       1.795  -1.758  -2.946  0.00  0.00    +0.068 A 
ATOM      4  C   UNL     1       2.132  -0.723  -3.846  0.00  0.00    +0.099 A 
ATOM      5  C   UNL     1       2.727  -1.092  -5.136  0.00  0.00    +0.081 A 
ATOM      6  C   UNL     1       2.944  -2.426  -5.436  0.00  0.00    +0.111 A 
ATOM      7  N   UNL     1       2.600  -3.426  -4.534  0.00  0.00    -0.299 N 
ATOM      8  C   UNL     1       2.051  -3.152  -3.337  0.00  0.00    +0.261 A 
ATOM      9  O   UNL     1       1.767  -4.059  -2.576  0.00  0.00    -0.267 OA
ATOM     10  C   UNL     1       3.526  -2.780  -6.672  0.00  0.00    +0.183 C 
ATOM     11  O   UNL     1       3.670  -3.953  -6.955  0.00  0.00    -0.290 OA
ATOM     12  C   UNL     1       3.970  -1.719  -7.645  0.00  0.00    +0.108 C 
ATOM     13  C   UNL     1       3.089  -0.476  -7.478  0.00  0.00    +0.112 C 
ATOM     14  N   UNL     1       3.067  -0.116  -6.052  0.00  0.00    -0.333 N 
ATOM     15  N   UNL     1       1.912   0.546  -3.522  0.00  0.00    -0.252 NA
ATOM     16  C   UNL     1       1.374   0.878  -2.370  0.00  0.00    +0.126 A 
ATOM     17  H   UNL     1       3.285   0.784  -5.763  0.00  0.00    +0.147 HD
ENDROOT
BRANCH  13  18
ATOM     18  C   UNL     1       1.690  -0.778  -7.949  0.00  0.00    +0.014 A 
ATOM     19  C   UNL     1       0.689  -1.023  -7.029  0.00  0.00    +0.009 A 
ATOM     20  C   UNL     1      -0.595  -1.300  -7.460  0.00  0.00    +0.001 A 
ATOM     21  C   UNL     1      -0.881  -1.333  -8.813  0.00  0.00    +0.004 A 
ATOM     22  C   UNL     1       0.116  -1.089  -9.737  0.00  0.00    +0.046 A 
ATOM     23  C   UNL     1       1.405  -0.805  -9.306  0.00  0.00    +0.122 A 
BRANCH  23  24
ATOM     24  O   UNL     1       2.386  -0.558 -10.213  0.00  0.00    -0.506 OA
ATOM     25  H   UNL     1       2.865  -1.348 -10.499  0.00  0.00    +0.292 HD
ENDBRANCH  23  24
ENDBRANCH  13  18
BRANCH   1  27
ATOM     26  C   UNL     1       0.231   2.201   0.015  0.00  0.00    +0.090 C 
ATOM     27  S   UNL     1       0.306   0.391   0.111  0.00  0.00    -0.127 S 
ENDBRANCH   1  27
BRANCH   7  28
ATOM     28  C   UNL     1       2.844  -4.824  -4.899  0.00  0.00    +0.160 C 
BRANCH  28  29
ATOM     29  C   UNL     1       4.211  -5.238  -4.419  0.00  0.00    -0.028 A 
ATOM     30  C   UNL     1       5.325  -4.974  -5.193  0.00  0.00    +0.005 A 
ATOM     31  C   UNL     1       6.579  -5.354  -4.752  0.00  0.00    +0.000 A 
ATOM     32  C   UNL     1       6.718  -5.997  -3.537  0.00  0.00    +0.000 A 
ATOM     33  C   UNL     1       5.604  -6.261  -2.762  0.00  0.00    +0.000 A 
ATOM     34  C   UNL     1       4.351  -5.877  -3.201  0.00  0.00    +0.005 A 
ENDBRANCH  28  29
ENDBRANCH   7  28
TORSDOF 5
