REMARK  Name = ZINC09640760
REMARK  7 active torsions:
REMARK  status: ('A' for Active; 'I' for Inactive)
REMARK    1  A    between atoms: C_1  and  C_2
REMARK    2  A    between atoms: C_15  and  C_17
REMARK    3  A    between atoms: C_17  and  S_18
REMARK    4  A    between atoms: S_18  and  C_19
REMARK    5  A    between atoms: C_22  and  C_25
REMARK    6  A    between atoms: N_23  and  C_24
REMARK    7  A    between atoms: C_25  and  C_26
REMARK                            x       y       z     vdW  Elec       q    Type
REMARK                         _______ _______ _______ _____ _____    ______ ____
ROOT
ATOM      1  C   UNL     1       1.539  -1.246  -1.437  0.00  0.00    +0.029 C 
ATOM      2  C   UNL     1       1.272  -0.732  -0.020  0.00  0.00    +0.087 C 
ATOM      3  C   UNL     1       1.204  -1.916   0.951  0.00  0.00    +0.118 C 
ATOM      4  C   UNL     1       0.557  -1.493   2.244  0.00  0.00    +0.219 C 
ATOM      5  O   UNL     1       1.241  -1.314   3.229  0.00  0.00    -0.275 OA
ATOM      6  N   UNL     1      -0.780  -1.313   2.312  0.00  0.00    -0.284 N 
ATOM      7  C   UNL     1      -1.571  -1.423   1.163  0.00  0.00    +0.055 A 
ATOM      8  C   UNL     1      -2.734  -2.175   1.171  0.00  0.00    +0.025 A 
ATOM      9  C   UNL     1      -3.529  -2.224   0.040  0.00  0.00    +0.002 A 
ATOM     10  C   UNL     1      -3.166  -1.525  -1.097  0.00  0.00    +0.002 A 
ATOM     11  C   UNL     1      -2.001  -0.781  -1.116  0.00  0.00    +0.025 A 
ATOM     12  C   UNL     1      -1.195  -0.734   0.009  0.00  0.00    +0.058 A 
ATOM     13  N   UNL     1       0.002  -0.004   0.002  0.00  0.00    -0.266 N 
ATOM     14  C   UNL     1      -0.016   1.344   0.009  0.00  0.00    +0.230 C 
ATOM     15  O   UNL     1       1.026   1.964   0.003  0.00  0.00    -0.274 OA
ATOM     16  H   UNL     1      -1.195  -1.107   3.165  0.00  0.00    +0.155 HD
ENDROOT
BRANCH  14  17
ATOM     17  C   UNL     1      -1.331   2.079   0.020  0.00  0.00    +0.173 C 
BRANCH  17  18
ATOM     18  S   UNL     1      -1.025   3.863   0.028  0.00  0.00    -0.077 S 
BRANCH  18  19
ATOM     19  C   UNL     1      -2.683   4.458   0.039  0.00  0.00    +0.192 A 
ATOM     20  N   UNL     1      -3.775   3.729   0.035  0.00  0.00    -0.122 NA
ATOM     21  N   UNL     1      -4.809   4.491   0.048  0.00  0.00    -0.133 NA
ATOM     22  C   UNL     1      -4.444   5.742   0.053  0.00  0.00    +0.139 A 
ATOM     23  N   UNL     1      -3.076   5.766   0.048  0.00  0.00    -0.309 N 
ATOM     24  C   UNL     1      -2.213   6.949   0.051  0.00  0.00    +0.152 C 
BRANCH  22  25
ATOM     25  C   UNL     1      -5.358   6.939   0.064  0.00  0.00    +0.118 C 
BRANCH  25  26
ATOM     26  C   UNL     1      -5.669   7.347  -1.353  0.00  0.00    -0.003 A 
ATOM     27  C   UNL     1      -6.678   6.934  -2.158  0.00  0.00    +0.011 A 
ATOM     28  C   UNL     1      -6.771   7.452  -3.436  0.00  0.00    +0.008 A 
ATOM     29  C   UNL     1      -5.843   8.348  -3.851  0.00  0.00    +0.045 A 
ATOM     30  S   UNL     1      -4.798   8.492  -2.411  0.00  0.00    -0.101 S 
ENDBRANCH  25  26
ENDBRANCH  22  25
ENDBRANCH  18  19
ENDBRANCH  17  18
ENDBRANCH  14  17
TORSDOF 5
