REMARK  Name = ZINC20894102
REMARK  7 active torsions:
REMARK  status: ('A' for Active; 'I' for Inactive)
REMARK    1  A    between atoms: C_1  and  C_2
REMARK    2  A    between atoms: C_4  and  C_29
REMARK    3  A    between atoms: C_6  and  N_8
REMARK    4  A    between atoms: C_17  and  S_18
REMARK    5  A    between atoms: S_18  and  C_19
REMARK    6  A    between atoms: C_19  and  C_21
REMARK    7  A    between atoms: C_19  and  C_22
REMARK                            x       y       z     vdW  Elec       q    Type
REMARK                         _______ _______ _______ _____ _____    ______ ____
ROOT
ATOM      1  N   UNL     1      -1.650   4.494  -4.529  0.00  0.00    -0.255 N 
ATOM      2  C   UNL     1      -1.889   3.563  -3.576  0.00  0.00    +0.268 A 
ATOM      3  O   UNL     1      -2.247   2.431  -3.853  0.00  0.00    -0.267 OA
ATOM      4  C   UNL     1      -1.694   3.988  -2.222  0.00  0.00    +0.076 A 
ATOM      5  C   UNL     1      -1.881   3.187  -1.024  0.00  0.00    -0.023 A 
ATOM      6  C   UNL     1      -1.638   3.797   0.159  0.00  0.00    -0.004 A 
ATOM      7  S   UNL     1      -1.152   5.452  -0.262  0.00  0.00    -0.073 S 
ATOM      8  C   UNL     1      -1.276   5.324  -2.018  0.00  0.00    +0.117 A 
ATOM      9  N   UNL     1      -1.058   6.191  -2.999  0.00  0.00    -0.215 NA
ATOM     10  C   UNL     1      -1.249   5.765  -4.240  0.00  0.00    +0.178 A 
ATOM     11  C   UNL     1      -1.756   3.202   1.528  0.00  0.00    +0.043 C 
ATOM     12  C   UNL     1      -2.555   1.895   1.422  0.00  0.00    +0.005 C 
ATOM     13  C   UNL     1      -1.985   1.065   0.268  0.00  0.00    +0.005 C 
ATOM     14  C   UNL     1      -2.329   1.728  -1.066  0.00  0.00    +0.037 C 
ENDROOT
BRANCH   1  20
ATOM     15  C   UNL     1      -4.564   4.146  -8.476  0.00  0.00    +0.044 C 
ATOM     16  C   UNL     1      -3.225   3.957  -7.810  0.00  0.00    -0.048 A 
ATOM     17  C   UNL     1      -2.166   3.429  -8.525  0.00  0.00    +0.006 A 
ATOM     18  C   UNL     1      -0.937   3.254  -7.918  0.00  0.00    -0.048 A 
ATOM     19  C   UNL     1      -0.762   3.606  -6.594  0.00  0.00    +0.029 A 
ATOM     20  C   UNL     1      -1.824   4.136  -5.872  0.00  0.00    +0.052 A 
ATOM     21  C   UNL     1      -3.059   4.306  -6.484  0.00  0.00    +0.029 A 
ATOM     22  C   UNL     1       0.215   2.678  -8.701  0.00  0.00    +0.044 C 
ENDBRANCH   1  20
BRANCH  10  23
ATOM     23  S   UNL     1      -0.971   6.887  -5.571  0.00  0.00    -0.075 S 
BRANCH  23  24
ATOM     24  C   UNL     1      -0.476   8.359  -4.642  0.00  0.00    +0.137 C 
ATOM     25  C   UNL     1      -1.654   8.849  -3.797  0.00  0.00    +0.029 C 
BRANCH  24  26
ATOM     26  C   UNL     1      -0.061   9.444  -5.603  0.00  0.00    +0.224 C 
ATOM     27  O   UNL     1      -0.496   9.449  -6.735  0.00  0.00    -0.275 OA
ATOM     28  N   UNL     1       0.792  10.407  -5.204  0.00  0.00    -0.328 N 
ATOM     29  H   UNL     1       1.095  11.199  -5.906  0.00  0.00    +0.145 HD
ATOM     30  H   UNL     1       1.187  10.402  -4.178  0.00  0.00    +0.145 HD
ENDBRANCH  24  26
ENDBRANCH  23  24
ENDBRANCH  10  23
TORSDOF 4
