REMARK  Name = ZINC12349853
REMARK  7 active torsions:
REMARK  status: ('A' for Active; 'I' for Inactive)
REMARK    1  A    between atoms: C_1  and  O_2
REMARK    2  A    between atoms: O_2  and  C_3
REMARK    3  A    between atoms: C_5  and  C_10
REMARK    4  A    between atoms: C_8  and  O_9
REMARK    5  A    between atoms: C_23  and  S_25
REMARK    6  A    between atoms: S_25  and  C_26
REMARK    7  A    between atoms: C_26  and  C_27
REMARK                            x       y       z     vdW  Elec       q    Type
REMARK                         _______ _______ _______ _____ _____    ______ ____
ROOT
ATOM      1  C   UNL     1      -0.018   1.509   0.010  0.00  0.00    +0.176 C 
ATOM      2  C   UNL     1       0.002  -0.004   0.002  0.00  0.00    +0.041 C 
ATOM      3  C   UNL     1       1.124  -0.708   0.262  0.00  0.00    +0.020 C 
ATOM      4  C   UNL     1       1.109  -2.219   0.265  0.00  0.00    +0.052 C 
ATOM      5  C   UNL     1       0.071  -2.724  -0.739  0.00  0.00    +0.014 C 
ATOM      6  C   UNL     1      -1.297  -2.158  -0.344  0.00  0.00    +0.080 C 
ATOM      7  C   UNL     1      -1.208  -0.658  -0.293  0.00  0.00    +0.163 C 
ATOM      8  O   UNL     1      -2.203   0.004  -0.511  0.00  0.00    -0.292 OA
ATOM      9  N   UNL     1       2.322  -0.090   0.530  0.00  0.00    -0.287 N 
ATOM     10  C   UNL     1       2.435   1.262   0.251  0.00  0.00    +0.219 A 
ATOM     11  N   UNL     1       1.344   2.027   0.000  0.00  0.00    -0.220 N 
ATOM     12  N   UNL     1       1.809   3.318  -0.245  0.00  0.00    -0.141 NA
ATOM     13  C   UNL     1       3.119   3.276  -0.130  0.00  0.00    +0.211 A 
ATOM     14  N   UNL     1       3.491   2.025   0.173  0.00  0.00    -0.187 NA
ATOM     15  H   UNL     1       3.067  -0.586   0.904  0.00  0.00    +0.155 HD
ENDROOT
BRANCH   1  18
ATOM     16  C   UNL     1      -2.518   3.217   2.271  0.00  0.00    +0.162 A 
ATOM     17  C   UNL     1      -1.864   2.771   1.133  0.00  0.00    +0.055 A 
ATOM     18  C   UNL     1      -0.728   1.992   1.249  0.00  0.00    -0.015 A 
ATOM     19  C   UNL     1      -0.245   1.651   2.498  0.00  0.00    +0.010 A 
ATOM     20  C   UNL     1      -0.889   2.097   3.637  0.00  0.00    +0.049 A 
ATOM     21  C   UNL     1      -2.028   2.878   3.528  0.00  0.00    +0.158 A 
BRANCH  16  23
ATOM     22  C   UNL     1      -4.081   4.291   0.836  0.00  0.00    +0.277 C 
ATOM     23  O   UNL     1      -3.635   3.983   2.158  0.00  0.00    -0.491 OA
ENDBRANCH  16  23
BRANCH  21  24
ATOM     24  O   UNL     1      -2.666   3.312   4.648  0.00  0.00    -0.503 OA
ATOM     25  H   UNL     1      -3.350   2.709   4.970  0.00  0.00    +0.292 HD
ENDBRANCH  21  24
ENDBRANCH   1  18
BRANCH  13  26
ATOM     26  S   UNL     1       4.208   4.645  -0.341  0.00  0.00    -0.078 S 
BRANCH  26  27
ATOM     27  C   UNL     1       5.856   3.943  -0.054  0.00  0.00    +0.132 C 
BRANCH  27  28
ATOM     28  C   UNL     1       6.896   5.023  -0.205  0.00  0.00    +0.051 A 
ATOM     29  C   UNL     1       7.272   5.768   0.896  0.00  0.00    +0.024 A 
ATOM     30  C   UNL     1       8.230   6.759   0.746  0.00  0.00    +0.003 A 
ATOM     31  C   UNL     1       8.776   6.965  -0.512  0.00  0.00    +0.020 A 
ATOM     32  C   UNL     1       8.350   6.181  -1.567  0.00  0.00    +0.111 A 
ATOM     33  N   UNL     1       7.440   5.243  -1.386  0.00  0.00    -0.259 NA
ENDBRANCH  27  28
ENDBRANCH  26  27
ENDBRANCH  13  26
TORSDOF 6
