REMARK  Name = ZINC63384399
REMARK  12 active torsions:
REMARK  status: ('A' for Active; 'I' for Inactive)
REMARK    1  A    between atoms: C_1  and  C_2
REMARK    2  A    between atoms: C_2  and  C_3
REMARK    3  A    between atoms: C_3  and  C_4
REMARK    4  A    between atoms: C_4  and  C_5
REMARK    5  A    between atoms: C_5  and  C_6
REMARK    6  A    between atoms: C_6  and  N_7
REMARK    7  A    between atoms: C_8  and  C_10
REMARK    8  A    between atoms: C_10  and  C_12
REMARK    9  A    between atoms: C_10  and  N_15
REMARK   10  A    between atoms: C_12  and  C_13
REMARK   11  A    between atoms: C_12  and  C_14
REMARK   12  A    between atoms: C_16  and  C_18
REMARK                            x       y       z     vdW  Elec       q    Type
REMARK                         _______ _______ _______ _____ _____    ______ ____
ROOT
ATOM      1  C   UNL     1      -6.843 -10.150   0.035  0.00  0.00    +0.167 C 
ATOM      2  C   UNL     1      -5.729 -10.704  -0.875  0.00  0.00    +0.065 C 
ATOM      3  C   UNL     1      -6.257 -10.683  -2.288  0.00  0.00    -0.034 C 
ATOM      4  C   UNL     1      -5.745 -10.162  -3.398  0.00  0.00    -0.001 A 
ATOM      5  C   UNL     1      -4.454  -9.510  -3.668  0.00  0.00    +0.010 A 
ATOM      6  C   UNL     1      -4.259  -9.068  -4.939  0.00  0.00    +0.001 A 
ATOM      7  C   UNL     1      -5.208  -9.209  -5.956  0.00  0.00    +0.002 A 
ATOM      8  C   UNL     1      -6.418  -9.803  -5.800  0.00  0.00    +0.026 A 
ATOM      9  C   UNL     1      -6.735 -10.314  -4.508  0.00  0.00    +0.043 A 
ATOM     10  N   UNL     1      -7.795 -10.937  -4.087  0.00  0.00    -0.375 N 
ATOM     11  C   UNL     1      -7.592 -11.304  -2.685  0.00  0.00    +0.131 C 
ATOM     12  C   UNL     1      -8.651 -10.671  -1.776  0.00  0.00    +0.134 C 
ATOM     13  N   UNL     1      -8.126 -10.726  -0.389  0.00  0.00    -0.276 N 
ATOM     14  C   UNL     1      -9.002 -11.393   0.384  0.00  0.00    +0.248 C 
ATOM     15  O   UNL     1      -8.896 -11.544   1.585  0.00  0.00    -0.270 OA
ATOM     16  C   UNL     1     -10.102 -11.911  -0.432  0.00  0.00    +0.042 A 
ATOM     17  C   UNL     1      -9.909 -11.477  -1.782  0.00  0.00    -0.013 A 
ATOM     18  C   UNL     1     -10.783 -11.806  -2.794  0.00  0.00    +0.006 A 
ATOM     19  C   UNL     1     -11.883 -12.586  -2.450  0.00  0.00    +0.000 A 
ATOM     20  C   UNL     1     -12.096 -13.012  -1.155  0.00  0.00    +0.001 A 
ATOM     21  C   UNL     1     -11.207 -12.694  -0.085  0.00  0.00    +0.013 A 
ATOM     22  H   UNL     1      -8.588 -11.127  -4.614  0.00  0.00    +0.160 HD
ENDROOT
BRANCH   1  24
ATOM     23  N   UNL     1      -5.822  -7.906   0.240  0.00  0.00    -0.302 N 
ATOM     24  C   UNL     1      -6.897  -8.649  -0.088  0.00  0.00    +0.235 C 
ATOM     25  O   UNL     1      -7.909  -8.109  -0.483  0.00  0.00    -0.274 OA
ATOM     26  H   UNL     1      -5.013  -8.338   0.556  0.00  0.00    +0.150 HD
BRANCH  23  27
ATOM     27  C   UNL     1      -5.874  -6.447   0.121  0.00  0.00    +0.161 C 
BRANCH  27  29
ATOM     28  N   UNL     1      -4.285  -4.752  -0.727  0.00  0.00    -0.314 N 
ATOM     29  C   UNL     1      -4.479  -5.907  -0.061  0.00  0.00    +0.234 C 
ATOM     30  O   UNL     1      -3.531  -6.513   0.391  0.00  0.00    -0.274 OA
ATOM     31  H   UNL     1      -5.035  -4.302  -1.147  0.00  0.00    +0.149 HD
BRANCH  28  32
ATOM     32  C   UNL     1      -2.942  -4.175  -0.817  0.00  0.00    +0.104 C 
BRANCH  32  33
ATOM     33  C   UNL     1      -2.998  -2.873  -1.620  0.00  0.00    +0.019 C 
BRANCH  33  34
ATOM     34  C   UNL     1      -1.595  -2.271  -1.714  0.00  0.00    +0.002 C 
BRANCH  34  35
ATOM     35  C   UNL     1      -1.652  -0.970  -2.517  0.00  0.00    -0.000 C 
BRANCH  35  37
ATOM     36  C   UNL     1      -0.305   0.934  -3.414  0.00  0.00    +0.004 C 
ATOM     37  C   UNL     1      -0.249  -0.367  -2.611  0.00  0.00    -0.003 C 
ENDBRANCH  35  37
ENDBRANCH  34  35
ENDBRANCH  33  34
ENDBRANCH  32  33
ENDBRANCH  28  32
ENDBRANCH  27  29
BRANCH  27  38
ATOM     38  C   UNL     1      -6.489  -5.853   1.390  0.00  0.00    +0.012 C 
ATOM     39  C   UNL     1      -6.592  -4.334   1.243  0.00  0.00    +0.009 C 
ATOM     40  C   UNL     1      -7.886  -6.441   1.603  0.00  0.00    +0.009 C 
ENDBRANCH  27  38
ENDBRANCH  23  27
ENDBRANCH   1  24
TORSDOF 9
