REMARK  Name = ZINC12479734
REMARK  13 active torsions:
REMARK  status: ('A' for Active; 'I' for Inactive)
REMARK    1  A    between atoms: C_1  and  C_2
REMARK    2  A    between atoms: C_5  and  N_8
REMARK    3  A    between atoms: N_8  and  C_9
REMARK    4  A    between atoms: C_9  and  C_11
REMARK    5  A    between atoms: C_9  and  C_18
REMARK    6  A    between atoms: N_20  and  C_21
REMARK    7  A    between atoms: C_21  and  C_22
REMARK    8  A    between atoms: C_22  and  C_23
REMARK    9  A    between atoms: C_23  and  C_24
REMARK   10  A    between atoms: C_23  and  C_25
REMARK   11  A    between atoms: C_26  and  C_28
REMARK   12  A    between atoms: C_29  and  N_36
REMARK   13  A    between atoms: C_30  and  C_33
REMARK                            x       y       z     vdW  Elec       q    Type
REMARK                         _______ _______ _______ _____ _____    ______ ____
ROOT
ATOM      1  N   UNL     1       3.279   1.716   0.797  0.00  0.00    -0.251 N 
ATOM      2  C   UNL     1       4.294   1.046   1.377  0.00  0.00    +0.262 C 
ATOM      3  O   UNL     1       4.726   0.030   0.864  0.00  0.00    -0.269 OA
ENDROOT
BRANCH   1   8
ATOM      4  C   UNL     1       0.947   6.168   3.427  0.00  0.00    +0.044 C 
ATOM      5  C   UNL     1       1.567   4.985   2.728  0.00  0.00    -0.050 A 
ATOM      6  C   UNL     1       1.193   3.701   3.082  0.00  0.00    +0.005 A 
ATOM      7  C   UNL     1       1.759   2.615   2.443  0.00  0.00    +0.024 A 
ATOM      8  C   UNL     1       2.704   2.813   1.445  0.00  0.00    +0.038 A 
ATOM      9  C   UNL     1       3.081   4.104   1.096  0.00  0.00    +0.024 A 
ATOM     10  C   UNL     1       2.507   5.186   1.735  0.00  0.00    +0.005 A 
ENDBRANCH   1   8
BRANCH   2  11
ATOM     11  C   UNL     1       4.877   1.539   2.627  0.00  0.00    +0.116 A 
ATOM     12  C   UNL     1       5.865   0.966   3.429  0.00  0.00    +0.076 A 
ATOM     13  C   UNL     1       6.159   1.742   4.550  0.00  0.00    +0.155 A 
ATOM     14  N   UNL     1       5.516   2.873   4.736  0.00  0.00    -0.203 NA
ATOM     15  S   UNL     1       4.521   3.035   3.525  0.00  0.00    +0.019 S 
BRANCH  13  16
ATOM     16  C   UNL     1       7.179   1.297   5.517  0.00  0.00    +0.262 C 
ATOM     17  O   UNL     1       7.770   0.249   5.339  0.00  0.00    -0.269 OA
ATOM     18  N   UNL     1       7.458   2.052   6.598  0.00  0.00    -0.324 N 
ATOM     19  H   UNL     1       6.987   2.888   6.740  0.00  0.00    +0.145 HD
ATOM     20  H   UNL     1       8.129   1.759   7.234  0.00  0.00    +0.145 HD
ENDBRANCH  13  16
BRANCH  12  21
ATOM     21  N   UNL     1       6.486  -0.242   3.143  0.00  0.00    -0.355 N 
ATOM     22  H   UNL     1       6.240  -0.738   2.346  0.00  0.00    +0.142 HD
ATOM     23  H   UNL     1       7.167  -0.591   3.739  0.00  0.00    +0.142 HD
ENDBRANCH  12  21
ENDBRANCH   2  11
BRANCH   1  24
ATOM     24  C   UNL     1       2.778   1.294  -0.514  0.00  0.00    +0.197 C 
BRANCH  24  25
ATOM     25  C   UNL     1       1.286   1.091  -0.440  0.00  0.00    -0.018 A 
ATOM     26  C   UNL     1       0.762  -0.188  -0.445  0.00  0.00    +0.007 A 
ATOM     27  C   UNL     1      -0.606  -0.375  -0.383  0.00  0.00    +0.020 A 
ATOM     28  C   UNL     1      -1.450   0.718  -0.304  0.00  0.00    +0.041 A 
ATOM     29  C   UNL     1      -0.925   1.998  -0.299  0.00  0.00    +0.020 A 
ATOM     30  C   UNL     1       0.443   2.184  -0.367  0.00  0.00    +0.007 A 
ATOM     31 CL   UNL     1      -3.168   0.484  -0.220  0.00  0.00    -0.084 Cl
ENDBRANCH  24  25
BRANCH  24  32
ATOM     32  C   UNL     1       3.090   2.356  -1.536  0.00  0.00    +0.238 C 
ATOM     33  O   UNL     1       3.673   3.366  -1.203  0.00  0.00    -0.273 OA
ATOM     34  N   UNL     1       2.720   2.184  -2.821  0.00  0.00    -0.313 N 
ATOM     35  H   UNL     1       2.254   1.377  -3.087  0.00  0.00    +0.149 HD
BRANCH  34  36
ATOM     36  C   UNL     1       3.024   3.217  -3.815  0.00  0.00    +0.104 C 
BRANCH  36  37
ATOM     37  C   UNL     1       2.501   2.776  -5.184  0.00  0.00    +0.022 C 
BRANCH  37  38
ATOM     38  C   UNL     1       2.817   3.855  -6.222  0.00  0.00    -0.016 C 
ATOM     39  C   UNL     1       4.334   3.973  -6.387  0.00  0.00    +0.007 C 
ATOM     40  C   UNL     1       2.186   3.473  -7.562  0.00  0.00    +0.007 C 
ENDBRANCH  37  38
ENDBRANCH  36  37
ENDBRANCH  34  36
ENDBRANCH  24  32
ENDBRANCH   1  24
TORSDOF 10
