REMARK  Name = ZINC35026766
REMARK  8 active torsions:
REMARK  status: ('A' for Active; 'I' for Inactive)
REMARK    1  A    between atoms: C_1  and  C_2
REMARK    2  A    between atoms: C_2  and  C_4
REMARK    3  A    between atoms: C_2  and  N_16
REMARK    4  A    between atoms: N_16  and  C_17
REMARK    5  A    between atoms: C_17  and  C_18
REMARK    6  A    between atoms: C_18  and  O_19
REMARK    7  A    between atoms: O_19  and  C_20
REMARK    8  A    between atoms: N_23  and  C_24
REMARK                            x       y       z     vdW  Elec       q    Type
REMARK                         _______ _______ _______ _____ _____    ______ ____
ROOT
ATOM      1  N   UNL     1       0.575  -0.396   0.997  0.00  0.00    -0.274 N 
ATOM      2  C   UNL     1       1.776  -0.973   0.796  0.00  0.00    +0.303 C 
ATOM      3  O   UNL     1       2.134  -1.256  -0.331  0.00  0.00    -0.253 OA
ATOM      4  N   UNL     1       2.580  -1.237   1.845  0.00  0.00    -0.294 N 
ATOM      5  H   UNL     1       2.295  -1.011   2.744  0.00  0.00    +0.151 HD
ENDROOT
BRANCH   4   6
ATOM      6  C   UNL     1       3.886  -1.864   1.627  0.00  0.00    +0.037 C 
ATOM      7  C   UNL     1       3.692  -3.227   0.958  0.00  0.00    +0.029 C 
ATOM      8  C   UNL     1       5.056  -3.882   0.730  0.00  0.00    -0.008 C 
ATOM      9  C   UNL     1       5.763  -4.069   2.074  0.00  0.00    +0.007 C 
ATOM     10  C   UNL     1       5.957  -2.707   2.743  0.00  0.00    -0.008 C 
ATOM     11  C   UNL     1       4.593  -2.052   2.971  0.00  0.00    +0.029 C 
ATOM     12  C   UNL     1       6.808  -1.812   1.840  0.00  0.00    +0.007 C 
ATOM     13  C   UNL     1       6.101  -1.624   0.496  0.00  0.00    -0.008 C 
ATOM     14  C   UNL     1       5.907  -2.987  -0.173  0.00  0.00    +0.007 C 
ATOM     15  C   UNL     1       4.737  -0.969   0.724  0.00  0.00    +0.029 C 
ENDBRANCH   4   6
BRANCH   1  17
ATOM     16  C   UNL     1      -0.594  -1.407  -0.899  0.00  0.00    +0.036 C 
ATOM     17  C   UNL     1      -0.300  -0.110  -0.143  0.00  0.00    +0.140 C 
BRANCH  17  18
ATOM     18  C   UNL     1       0.382   0.866  -1.066  0.00  0.00    +0.131 A 
ATOM     19  N   UNL     1      -0.226   1.174  -2.242  0.00  0.00    -0.309 N 
ATOM     20  H   UNL     1      -1.077   0.766  -2.464  0.00  0.00    +0.170 HD
ATOM     21  C   UNL     1       0.345   2.045  -3.106  0.00  0.00    +0.259 A 
ATOM     22  O   UNL     1      -0.189   2.330  -4.162  0.00  0.00    -0.267 OA
ATOM     23  C   UNL     1       1.636   2.634  -2.719  0.00  0.00    +0.065 A 
ATOM     24  C   UNL     1       2.307   3.541  -3.536  0.00  0.00    +0.015 A 
ATOM     25  C   UNL     1       3.514   4.062  -3.124  0.00  0.00    +0.001 A 
ATOM     26  C   UNL     1       4.064   3.691  -1.904  0.00  0.00    +0.002 A 
ATOM     27  C   UNL     1       3.417   2.796  -1.082  0.00  0.00    +0.028 A 
ATOM     28  C   UNL     1       2.192   2.254  -1.477  0.00  0.00    +0.078 A 
ATOM     29  N   UNL     1       1.518   1.374  -0.696  0.00  0.00    -0.232 NA
ENDBRANCH  17  18
ENDBRANCH   1  17
BRANCH   1  30
ATOM     30  C   UNL     1       0.143  -0.056   2.355  0.00  0.00    +0.138 C 
BRANCH  30  31
ATOM     31  C   UNL     1      -0.630  -1.232   2.955  0.00  0.00    +0.178 C 
BRANCH  31  32
ATOM     32  O   UNL     1       0.246  -2.350   3.106  0.00  0.00    -0.381 OA
ATOM     33  C   UNL     1      -0.403  -3.541   3.557  0.00  0.00    +0.194 C 
ENDBRANCH  31  32
ENDBRANCH  30  31
ENDBRANCH   1  30
TORSDOF 6
