REMARK  Name = ZINC29489325
REMARK  9 active torsions:
REMARK  status: ('A' for Active; 'I' for Inactive)
REMARK    1  A    between atoms: C_1  and  O_2
REMARK    2  A    between atoms: O_2  and  C_3
REMARK    3  A    between atoms: C_3  and  C_5
REMARK    4  A    between atoms: C_6  and  C_7
REMARK    5  A    between atoms: N_9  and  C_10
REMARK    6  A    between atoms: C_14  and  O_36
REMARK    7  A    between atoms: C_21  and  O_35
REMARK    8  A    between atoms: N_30  and  C_31
REMARK    9  A    between atoms: C_31  and  C_32
REMARK                            x       y       z     vdW  Elec       q    Type
REMARK                         _______ _______ _______ _____ _____    ______ ____
ROOT
ATOM      1  C   UNL     1       2.597   0.929  -4.063  0.00  0.00    +0.115 C 
ATOM      2  C   UNL     1       1.748   2.179  -3.931  0.00  0.00    +0.029 C 
ATOM      3  C   UNL     1       1.196   2.479  -2.542  0.00  0.00    +0.036 C 
ATOM      4  C   UNL     1       1.844   1.615  -1.490  0.00  0.00    +0.068 C 
ATOM      5  C   UNL     1       1.324   1.808  -0.066  0.00  0.00    -0.031 C 
ATOM      6  C   UNL     1       2.006   0.896   0.957  0.00  0.00    +0.023 C 
ATOM      7  C   UNL     1       2.848  -0.189   0.371  0.00  0.00    -0.041 A 
ATOM      8  C   UNL     1       3.808  -0.934   1.026  0.00  0.00    +0.007 A 
ATOM      9  C   UNL     1       4.550  -1.876   0.330  0.00  0.00    +0.049 A 
ATOM     10  C   UNL     1       4.436  -2.090  -1.043  0.00  0.00    +0.159 A 
ATOM     11  C   UNL     1       3.483  -1.323  -1.728  0.00  0.00    +0.166 A 
ATOM     12  C   UNL     1       2.694  -0.486  -0.968  0.00  0.00    +0.013 A 
ATOM     13  C   UNL     1       1.657   0.144  -1.853  0.00  0.00    +0.064 C 
ATOM     14  C   UNL     1       2.117  -0.252  -3.250  0.00  0.00    +0.207 C 
ATOM     15  O   UNL     1       3.143  -1.242  -3.028  0.00  0.00    -0.482 OA
ATOM     16  C   UNL     1       0.250  -0.359  -1.611  0.00  0.00    -0.001 C 
ATOM     17  C   UNL     1      -0.300   0.049  -0.246  0.00  0.00    -0.077 C 
ATOM     18  N   UNL     1      -0.117   1.495  -0.069  0.00  0.00    +0.384 N 
ATOM     19  H   UNL     1      -0.589   2.018  -0.915  0.00  0.00    -0.081 HD
ENDROOT
BRANCH   1  22
ATOM     20  C   UNL     1       4.736   1.848  -4.776  0.00  0.00    +0.237 C 
ATOM     21  O   UNL     1       4.211   2.186  -5.818  0.00  0.00    -0.271 OA
ATOM     22  N   UNL     1       4.013   1.212  -3.832  0.00  0.00    -0.305 N 
ATOM     23  H   UNL     1       4.488   0.907  -2.888  0.00  0.00    +0.149 HD
BRANCH  20  25
ATOM     24  C   UNL     1       6.886   2.767  -5.482  0.00  0.00    +0.096 C 
ATOM     25  C   UNL     1       6.166   2.134  -4.542  0.00  0.00    +0.074 C 
BRANCH  24  26
ATOM     26  C   UNL     1       8.314   3.053  -5.250  0.00  0.00    +0.332 C 
ATOM     27  O   UNL     1       8.839   2.715  -4.207  0.00  0.00    -0.246 OA
BRANCH  26  29
ATOM     28  C   UNL     1      10.436   3.936  -5.896  0.00  0.00    +0.280 C 
ATOM     29  O   UNL     1       9.037   3.688  -6.193  0.00  0.00    -0.465 OA
ENDBRANCH  26  29
ENDBRANCH  24  26
ENDBRANCH  20  25
ENDBRANCH   1  22
BRANCH  10  30
ATOM     30  O   UNL     1       5.213  -3.001  -1.688  0.00  0.00    -0.503 OA
ATOM     31  H   UNL     1       5.102  -3.149  -2.772  0.00  0.00    +0.292 HD
ENDBRANCH  10  30
BRANCH   4  32
ATOM     32  O   UNL     1       3.243   1.918  -1.441  0.00  0.00    -0.389 OA
ATOM     33  H   UNL     1       3.896   1.389  -0.732  0.00  0.00    +0.210 HD
ENDBRANCH   4  32
BRANCH  18  34
ATOM     34  C   UNL     1      -0.815   2.007   1.110  0.00  0.00    -0.075 C 
BRANCH  34  35
ATOM     35  C   UNL     1      -0.496   3.493   1.286  0.00  0.00    -0.028 C 
ATOM     36  C   UNL     1       0.254   3.909   2.554  0.00  0.00    +0.002 C 
ATOM     37  C   UNL     1      -1.231   4.247   2.396  0.00  0.00    +0.002 C 
ENDBRANCH  34  35
ENDBRANCH  18  34
TORSDOF 8
