REMARK  Name = ZINC39653982
REMARK  13 active torsions:
REMARK  status: ('A' for Active; 'I' for Inactive)
REMARK    1  A    between atoms: C_1  and  C_2
REMARK    2  A    between atoms: C_2  and  O_3
REMARK    3  A    between atoms: O_3  and  C_4
REMARK    4  A    between atoms: C_7  and  C_10
REMARK    5  A    between atoms: C_10  and  C_11
REMARK    6  A    between atoms: C_11  and  N_12
REMARK    7  A    between atoms: C_13  and  C_15
REMARK    8  A    between atoms: C_26  and  C_28
REMARK    9  A    between atoms: C_30  and  C_37
REMARK   10  A    between atoms: N_32  and  C_33
REMARK   11  A    between atoms: C_33  and  C_34
REMARK   12  A    between atoms: C_33  and  C_35
REMARK   13  A    between atoms: C_33  and  C_36
REMARK                            x       y       z     vdW  Elec       q    Type
REMARK                         _______ _______ _______ _____ _____    ______ ____
ROOT
ATOM      1  C   UNL     1      -0.984 -10.505  -3.453  0.00  0.00    +0.100 C 
ATOM      2  C   UNL     1       0.401 -10.657  -4.122  0.00  0.00    +0.121 C 
ATOM      3  N   UNL     1       0.211 -11.715  -5.141  0.00  0.00    -0.295 N 
ATOM      4  C   UNL     1      -1.131 -11.442  -5.711  0.00  0.00    +0.115 C 
ATOM      5  C   UNL     1      -1.986 -11.021  -4.500  0.00  0.00    -0.004 C 
ATOM      6  C   UNL     1      -2.953  -9.909  -4.898  0.00  0.00    -0.010 C 
ATOM      7  C   UNL     1      -3.975 -10.462  -5.895  0.00  0.00    -0.082 C 
ATOM      8  N   UNL     1      -4.707 -11.577  -5.281  0.00  0.00    +0.379 N 
ATOM      9  C   UNL     1      -3.783 -12.679  -4.987  0.00  0.00    -0.082 C 
ATOM     10  C   UNL     1      -2.752 -12.221  -3.951  0.00  0.00    -0.010 C 
ATOM     11  C   UNL     1       1.064 -12.704  -5.475  0.00  0.00    +0.265 C 
ATOM     12  O   UNL     1       0.756 -13.509  -6.333  0.00  0.00    -0.268 OA
ATOM     13  H   UNL     1      -5.139 -11.264  -4.425  0.00  0.00    -0.086 HD
ATOM     14  H   UNL     1      -5.421 -11.899  -5.917  0.00  0.00    -0.086 HD
ENDROOT
BRANCH  11  15
ATOM     15  C   UNL     1       2.368 -12.810  -4.800  0.00  0.00    +0.124 A 
ATOM     16  C   UNL     1       2.951 -11.870  -3.968  0.00  0.00    +0.057 A 
ATOM     17  C   UNL     1       4.173 -12.426  -3.581  0.00  0.00    +0.061 A 
ATOM     18  N   UNL     1       4.278 -13.599  -4.152  0.00  0.00    -0.175 NA
ATOM     19  N   UNL     1       3.241 -13.857  -4.865  0.00  0.00    -0.254 N 
ATOM     20  C   UNL     1       5.189 -11.788  -2.670  0.00  0.00    +0.067 C 
BRANCH  19  21
ATOM     21  C   UNL     1       3.030 -15.087  -5.633  0.00  0.00    +0.056 C 
ATOM     22  C   UNL     1       2.973 -14.752  -7.125  0.00  0.00    +0.036 C 
ATOM     23  C   UNL     1       4.185 -16.056  -5.372  0.00  0.00    +0.036 C 
ATOM     24  C   UNL     1       1.713 -15.736  -5.205  0.00  0.00    +0.036 C 
ENDBRANCH  19  21
ENDBRANCH  11  15
BRANCH   1  26
ATOM     25  N   UNL     1      -2.024  -8.735  -2.074  0.00  0.00    -0.315 N 
ATOM     26  C   UNL     1      -1.256  -9.058  -3.134  0.00  0.00    +0.218 C 
ATOM     27  O   UNL     1      -0.785  -8.184  -3.830  0.00  0.00    -0.275 OA
ATOM     28  H   UNL     1      -2.460  -9.433  -1.560  0.00  0.00    +0.149 HD
BRANCH  25  29
ATOM     29  C   UNL     1      -2.200  -7.330  -1.698  0.00  0.00    +0.109 C 
BRANCH  29  30
ATOM     30  C   UNL     1      -3.110  -7.240  -0.471  0.00  0.00    +0.054 C 
BRANCH  30  34
ATOM     31  C   UNL     1      -3.622  -3.142   0.626  0.00  0.00    +0.121 A 
ATOM     32  C   UNL     1      -4.499  -3.736  -0.270  0.00  0.00    +0.046 A 
ATOM     33  C   UNL     1      -4.331  -5.061  -0.623  0.00  0.00    +0.007 A 
ATOM     34  C   UNL     1      -3.291  -5.795  -0.084  0.00  0.00    -0.046 A 
ATOM     35  C   UNL     1      -2.416  -5.205   0.809  0.00  0.00    +0.007 A 
ATOM     36  C   UNL     1      -2.576  -3.879   1.161  0.00  0.00    +0.046 A 
BRANCH  31  37
ATOM     37  O   UNL     1      -3.785  -1.839   0.975  0.00  0.00    -0.492 OA
BRANCH  37  39
ATOM     38  C   UNL     1      -4.906   0.301   0.894  0.00  0.00    +0.048 C 
ATOM     39  C   UNL     1      -4.885  -1.142   0.386  0.00  0.00    +0.225 C 
ENDBRANCH  37  39
ENDBRANCH  31  37
ENDBRANCH  30  34
ENDBRANCH  29  30
ENDBRANCH  25  29
ENDBRANCH   1  26
TORSDOF 8
