REMARK  Name = ZINC20161185
REMARK  10 active torsions:
REMARK  status: ('A' for Active; 'I' for Inactive)
REMARK    1  A    between atoms: C_2  and  C_3
REMARK    2  A    between atoms: C_3  and  C_4
REMARK    3  A    between atoms: C_8  and  C_11
REMARK    4  A    between atoms: C_9  and  O_10
REMARK    5  A    between atoms: N_12  and  N_13
REMARK    6  A    between atoms: C_14  and  C_16
REMARK    7  A    between atoms: C_16  and  S_17
REMARK    8  A    between atoms: S_17  and  C_18
REMARK    9  A    between atoms: C_21  and  C_29
REMARK   10  A    between atoms: N_22  and  C_23
REMARK                            x       y       z     vdW  Elec       q    Type
REMARK                         _______ _______ _______ _____ _____    ______ ____
ROOT
ATOM      1  C   UNL     1      -2.015  -8.607  -0.534  0.00  0.00    +0.174 C 
ENDROOT
BRANCH   1   3
ATOM      2  N   UNL     1      -0.833  -6.851   0.746  0.00  0.00    -0.206 N 
ATOM      3  C   UNL     1      -1.418  -7.229  -0.408  0.00  0.00    +0.242 C 
ATOM      4  O   UNL     1      -1.464  -6.460  -1.345  0.00  0.00    -0.273 OA
ATOM      5  H   UNL     1      -0.796  -7.466   1.496  0.00  0.00    +0.177 HD
BRANCH   2   7
ATOM      6  C   UNL     1       0.285  -5.206   1.975  0.00  0.00    +0.142 C 
ATOM      7  N   UNL     1      -0.279  -5.570   0.863  0.00  0.00    -0.188 NA
BRANCH   6  12
ATOM      8  C   UNL     1       1.369  -1.702   1.144  0.00  0.00    -0.002 A 
ATOM      9  C   UNL     1       1.967  -1.322   2.331  0.00  0.00    +0.007 A 
ATOM     10  C   UNL     1       2.019  -2.200   3.400  0.00  0.00    +0.001 A 
ATOM     11  C   UNL     1       1.475  -3.462   3.292  0.00  0.00    +0.013 A 
ATOM     12  C   UNL     1       0.868  -3.858   2.098  0.00  0.00    +0.036 A 
ATOM     13  C   UNL     1       0.812  -2.965   1.019  0.00  0.00    +0.129 A 
BRANCH  13  14
ATOM     14  O   UNL     1       0.220  -3.337  -0.145  0.00  0.00    -0.506 OA
ATOM     15  H   UNL     1       0.821  -3.756  -0.776  0.00  0.00    +0.292 HD
ENDBRANCH  13  14
BRANCH   8  16
ATOM     16  C   UNL     1       1.317  -0.740  -0.015  0.00  0.00    +0.065 C 
BRANCH  16  18
ATOM     17  C   UNL     1      -0.016   1.306   0.009  0.00  0.00    +0.004 C 
ATOM     18  C   UNL     1       0.002  -0.004   0.002  0.00  0.00    -0.030 C 
ENDBRANCH  16  18
ENDBRANCH   8  16
ENDBRANCH   6  12
ENDBRANCH   2   7
ENDBRANCH   1   3
BRANCH   1  19
ATOM     19  S   UNL     1      -2.721  -8.811  -2.192  0.00  0.00    -0.076 S 
BRANCH  19  20
ATOM     20  C   UNL     1      -3.369 -10.450  -2.181  0.00  0.00    +0.197 A 
ATOM     21  N   UNL     1      -3.334 -11.296  -1.175  0.00  0.00    -0.122 NA
ATOM     22  N   UNL     1      -3.898 -12.402  -1.507  0.00  0.00    -0.128 NA
ATOM     23  C   UNL     1      -4.328 -12.332  -2.746  0.00  0.00    +0.169 A 
ATOM     24  N   UNL     1      -4.008 -11.076  -3.215  0.00  0.00    -0.270 N 
BRANCH  24  25
ATOM     25  C   UNL     1      -4.278 -10.552  -4.486  0.00  0.00    +0.051 A 
ATOM     26  C   UNL     1      -5.591 -10.342  -4.888  0.00  0.00    +0.026 A 
ATOM     27  C   UNL     1      -5.854  -9.825  -6.141  0.00  0.00    +0.002 A 
ATOM     28  C   UNL     1      -4.812  -9.517  -6.996  0.00  0.00    +0.000 A 
ATOM     29  C   UNL     1      -3.504  -9.725  -6.599  0.00  0.00    +0.002 A 
ATOM     30  C   UNL     1      -3.234 -10.236  -5.345  0.00  0.00    +0.026 A 
ENDBRANCH  24  25
BRANCH  23  31
ATOM     31  C   UNL     1      -5.029 -13.396  -3.494  0.00  0.00    +0.022 A 
ATOM     32  C   UNL     1      -5.158 -13.332  -4.887  0.00  0.00    +0.031 A 
ATOM     33  C   UNL     1      -5.819 -14.348  -5.544  0.00  0.00    +0.111 A 
ATOM     34  N   UNL     1      -6.327 -15.368  -4.879  0.00  0.00    -0.263 NA
ATOM     35  C   UNL     1      -6.228 -15.468  -3.567  0.00  0.00    +0.111 A 
ATOM     36  C   UNL     1      -5.578 -14.501  -2.830  0.00  0.00    +0.031 A 
ENDBRANCH  23  31
ENDBRANCH  19  20
ENDBRANCH   1  19
TORSDOF 10
