REMARK  Name = ZINC00959865
REMARK  8 active torsions:
REMARK  status: ('A' for Active; 'I' for Inactive)
REMARK    1  A    between atoms: C_1  and  C_2
REMARK    2  A    between atoms: C_3  and  C_24
REMARK    3  A    between atoms: C_4  and  C_17
REMARK    4  A    between atoms: N_8  and  C_15
REMARK    5  A    between atoms: N_11  and  C_14
REMARK    6  A    between atoms: C_24  and  O_26
REMARK    7  A    between atoms: O_26  and  C_27
REMARK    8  A    between atoms: C_27  and  C_28
REMARK                            x       y       z     vdW  Elec       q    Type
REMARK                         _______ _______ _______ _____ _____    ______ ____
ROOT
ATOM      1  C   UNL     1       1.884   5.574  -0.696  0.00  0.00    +0.061 C 
ATOM      2  C   UNL     1       2.139   4.131  -0.341  0.00  0.00    +0.017 C 
ATOM      3  C   UNL     1       3.387   3.640  -0.422  0.00  0.00    +0.065 C 
ATOM      4  C   UNL     1       3.697   2.214  -0.070  0.00  0.00    +0.096 C 
ATOM      5  C   UNL     1       2.443   1.386  -0.033  0.00  0.00    +0.067 A 
ATOM      6  C   UNL     1       1.215   1.972   0.036  0.00  0.00    +0.116 A 
ATOM      7  N   UNL     1       0.090   1.185   0.077  0.00  0.00    -0.284 N 
ATOM      8  C   UNL     1       0.197  -0.157   0.046  0.00  0.00    +0.333 A 
ATOM      9  O   UNL     1      -0.809  -0.839   0.083  0.00  0.00    -0.246 OA
ATOM     10  N   UNL     1       1.401  -0.753  -0.026  0.00  0.00    -0.264 N 
ATOM     11  C   UNL     1       2.529  -0.018  -0.066  0.00  0.00    +0.262 A 
ATOM     12  O   UNL     1       3.616  -0.565  -0.130  0.00  0.00    -0.267 OA
ATOM     13  C   UNL     1       1.485  -2.215  -0.063  0.00  0.00    +0.157 C 
ATOM     14  C   UNL     1      -1.234   1.808   0.150  0.00  0.00    +0.155 C 
ATOM     15  N   UNL     1       1.097   3.341   0.060  0.00  0.00    -0.303 N 
ATOM     16  H   UNL     1       0.270   3.749   0.363  0.00  0.00    +0.153 HD
ENDROOT
BRANCH   4  17
ATOM     17  C   UNL     1       4.360   2.171   1.282  0.00  0.00    -0.035 A 
ATOM     18  C   UNL     1       3.687   2.635   2.397  0.00  0.00    +0.006 A 
ATOM     19  C   UNL     1       4.292   2.591   3.639  0.00  0.00    +0.020 A 
ATOM     20  C   UNL     1       5.576   2.092   3.765  0.00  0.00    +0.041 A 
ATOM     21  C   UNL     1       6.251   1.632   2.648  0.00  0.00    +0.020 A 
ATOM     22  C   UNL     1       5.643   1.672   1.408  0.00  0.00    +0.006 A 
ATOM     23 CL   UNL     1       6.339   2.042   5.323  0.00  0.00    -0.084 Cl
ENDBRANCH   4  17
BRANCH   3  24
ATOM     24  C   UNL     1       4.435   4.488  -0.848  0.00  0.00    +0.338 C 
ATOM     25  O   UNL     1       4.186   5.614  -1.237  0.00  0.00    -0.245 OA
BRANCH  24  26
ATOM     26  O   UNL     1       5.710   4.049  -0.824  0.00  0.00    -0.457 OA
BRANCH  26  27
ATOM     27  C   UNL     1       6.718   4.959  -1.270  0.00  0.00    +0.268 C 
BRANCH  27  28
ATOM     28  C   UNL     1       8.069   4.299  -1.172  0.00  0.00    -0.010 A 
ATOM     29  C   UNL     1       8.813   4.413  -0.013  0.00  0.00    +0.007 A 
ATOM     30  C   UNL     1      10.050   3.803   0.079  0.00  0.00    +0.000 A 
ATOM     31  C   UNL     1      10.549   3.088  -0.994  0.00  0.00    +0.000 A 
ATOM     32  C   UNL     1       9.808   2.978  -2.156  0.00  0.00    +0.000 A 
ATOM     33  C   UNL     1       8.568   3.584  -2.245  0.00  0.00    +0.007 A 
ENDBRANCH  27  28
ENDBRANCH  26  27
ENDBRANCH  24  26
ENDBRANCH   3  24
TORSDOF 5
