REMARK  Name = ZINC27015667
REMARK  9 active torsions:
REMARK  status: ('A' for Active; 'I' for Inactive)
REMARK    1  A    between atoms: C_1  and  C_2
REMARK    2  A    between atoms: C_5  and  C_8
REMARK    3  A    between atoms: C_8  and  C_10
REMARK    4  A    between atoms: C_12  and  C_24
REMARK    5  A    between atoms: C_18  and  C_19
REMARK    6  A    between atoms: C_18  and  O_23
REMARK    7  A    between atoms: C_27  and  O_32
REMARK    8  A    between atoms: C_28  and  O_30
REMARK    9  A    between atoms: O_30  and  C_31
REMARK                            x       y       z     vdW  Elec       q    Type
REMARK                         _______ _______ _______ _____ _____    ______ ____
ROOT
ATOM      1  C   UNL     1      -4.018   2.033   0.186  0.00  0.00    +0.144 C 
ATOM      2  C   UNL     1      -4.900   0.866   0.641  0.00  0.00    +0.120 C 
ATOM      3  N   UNL     1      -4.756  -0.242  -0.304  0.00  0.00    -0.292 N 
ATOM      4  C   UNL     1      -4.465  -0.024  -1.595  0.00  0.00    +0.302 C 
ATOM      5  O   UNL     1      -4.366  -0.980  -2.341  0.00  0.00    -0.253 OA
ATOM      6  N   UNL     1      -4.277   1.206  -2.097  0.00  0.00    -0.264 N 
ATOM      7  C   UNL     1      -4.395   2.397  -1.254  0.00  0.00    +0.243 C 
ATOM      8  H   UNL     1      -4.888  -1.279   0.039  0.00  0.00    +0.151 HD
ATOM      9  H   UNL     1      -4.031   1.309  -3.164  0.00  0.00    +0.153 HD
ENDROOT
BRANCH   2  10
ATOM     10  C   UNL     1      -4.472   0.416   2.014  0.00  0.00    -0.023 A 
ATOM     11  C   UNL     1      -3.508  -0.566   2.148  0.00  0.00    +0.009 A 
ATOM     12  C   UNL     1      -3.111  -0.983   3.405  0.00  0.00    +0.049 A 
ATOM     13  C   UNL     1      -3.679  -0.415   4.534  0.00  0.00    +0.158 A 
ATOM     14  C   UNL     1      -4.649   0.574   4.399  0.00  0.00    +0.162 A 
ATOM     15  C   UNL     1      -5.039   0.990   3.136  0.00  0.00    +0.055 A 
BRANCH  14  16
ATOM     16  O   UNL     1      -5.210   1.134   5.504  0.00  0.00    -0.491 OA
ATOM     17  C   UNL     1      -6.198   2.143   5.290  0.00  0.00    +0.277 C 
ENDBRANCH  14  16
BRANCH  13  18
ATOM     18  O   UNL     1      -3.290  -0.824   5.771  0.00  0.00    -0.503 OA
ATOM     19  H   UNL     1      -3.742  -0.373   6.667  0.00  0.00    +0.292 HD
ENDBRANCH  13  18
ENDBRANCH   2  10
BRANCH   7  20
ATOM     20  C   UNL     1      -5.835   2.911  -1.292  0.00  0.00    +0.436 C 
ATOM     21  F   UNL     1      -5.947   4.045  -0.480  0.00  0.00    -0.166 F 
ATOM     22  F   UNL     1      -6.178   3.243  -2.607  0.00  0.00    -0.166 F 
ATOM     23  F   UNL     1      -6.698   1.915  -0.822  0.00  0.00    -0.166 F 
ENDBRANCH   7  20
BRANCH   1  24
ATOM     24  C   UNL     1      -2.569   1.623   0.242  0.00  0.00    +0.173 C 
ATOM     25  O   UNL     1      -2.250   0.485  -0.028  0.00  0.00    -0.292 OA
BRANCH  24  30
ATOM     26  C   UNL     1       1.448   5.461   1.721  0.00  0.00    +0.044 C 
ATOM     27  C   UNL     1       0.395   4.454   1.336  0.00  0.00    -0.050 A 
ATOM     28  C   UNL     1       0.763   3.156   1.029  0.00  0.00    +0.004 A 
ATOM     29  C   UNL     1      -0.195   2.229   0.676  0.00  0.00    +0.011 A 
ATOM     30  C   UNL     1      -1.541   2.605   0.623  0.00  0.00    +0.018 A 
ATOM     31  C   UNL     1      -1.905   3.918   0.939  0.00  0.00    +0.011 A 
ATOM     32  C   UNL     1      -0.935   4.833   1.290  0.00  0.00    +0.004 A 
ENDBRANCH  24  30
ENDBRANCH   1  24
BRANCH   7  33
ATOM     33  O   UNL     1      -3.512   3.412  -1.737  0.00  0.00    -0.364 OA
ATOM     34  H   UNL     1      -3.629   3.803  -2.759  0.00  0.00    +0.212 HD
ENDBRANCH   7  33
TORSDOF 7
