REMARK  Name = ZINC23642283
REMARK  7 active torsions:
REMARK  status: ('A' for Active; 'I' for Inactive)
REMARK    1  A    between atoms: C_1  and  C_2
REMARK    2  A    between atoms: C_6  and  N_8
REMARK    3  A    between atoms: C_9  and  S_13
REMARK    4  A    between atoms: S_13  and  C_14
REMARK    5  A    between atoms: C_14  and  C_16
REMARK    6  A    between atoms: C_14  and  C_17
REMARK    7  A    between atoms: C_23  and  C_28
REMARK                            x       y       z     vdW  Elec       q    Type
REMARK                         _______ _______ _______ _____ _____    ______ ____
ROOT
ATOM      1  C   UNL     1      -2.937  -7.263   1.713  0.00  0.00    +0.124 A 
ATOM      2  N   UNL     1      -2.884  -7.213   0.357  0.00  0.00    -0.309 N 
ATOM      3  H   UNL     1      -2.244  -6.625  -0.073  0.00  0.00    +0.170 HD
ATOM      4  C   UNL     1      -3.703  -7.965  -0.403  0.00  0.00    +0.260 A 
ATOM      5  O   UNL     1      -3.643  -7.909  -1.619  0.00  0.00    -0.267 OA
ATOM      6  C   UNL     1      -4.644  -8.831   0.239  0.00  0.00    +0.080 A 
ATOM      7  C   UNL     1      -5.624  -9.732  -0.357  0.00  0.00    +0.010 A 
ATOM      8  C   UNL     1      -6.419 -10.464   0.464  0.00  0.00    +0.057 A 
ATOM      9  S   UNL     1      -5.888  -9.978   2.094  0.00  0.00    -0.076 S 
ATOM     10  C   UNL     1      -4.625  -8.816   1.643  0.00  0.00    +0.116 A 
ATOM     11  N   UNL     1      -3.781  -8.047   2.327  0.00  0.00    -0.225 NA
ENDROOT
BRANCH   7  12
ATOM     12  C   UNL     1      -5.749  -9.845  -1.825  0.00  0.00    +0.021 A 
ATOM     13  C   UNL     1      -5.776 -10.970  -2.605  0.00  0.00    +0.016 A 
ATOM     14  C   UNL     1      -5.902 -10.826  -3.971  0.00  0.00    +0.008 A 
ATOM     15  C   UNL     1      -5.995  -9.580  -4.498  0.00  0.00    +0.046 A 
ATOM     16  S   UNL     1      -5.913  -8.550  -3.043  0.00  0.00    -0.097 S 
ENDBRANCH   7  12
BRANCH   1  17
ATOM     17  C   UNL     1      -2.000  -6.404   2.522  0.00  0.00    +0.117 C 
ATOM     18  C   UNL     1      -0.758  -7.215   2.895  0.00  0.00    +0.027 C 
BRANCH  17  19
ATOM     19  S   UNL     1      -1.507  -4.958   1.543  0.00  0.00    -0.073 S 
BRANCH  19  21
ATOM     20  N   UNL     1       0.050  -2.798   2.395  0.00  0.00    -0.187 N 
ATOM     21  C   UNL     1      -0.549  -3.992   2.662  0.00  0.00    +0.215 A 
ATOM     22  N   UNL     1      -0.276  -4.286   3.916  0.00  0.00    -0.101 NA
ATOM     23  N   UNL     1       0.446  -3.367   4.447  0.00  0.00    -0.022 NA
ATOM     24  N   UNL     1       0.692  -2.435   3.592  0.00  0.00    -0.038 NA
BRANCH  20  30
ATOM     25  C   UNL     1      -0.018   1.503   0.010  0.00  0.00    +0.044 C 
ATOM     26  C   UNL     1       0.002  -0.004   0.002  0.00  0.00    -0.048 A 
ATOM     27  C   UNL     1       0.006  -0.688  -1.200  0.00  0.00    +0.003 A 
ATOM     28  C   UNL     1       0.024  -2.071  -1.212  0.00  0.00    +0.002 A 
ATOM     29  C   UNL     1       0.039  -2.773  -0.022  0.00  0.00    +0.028 A 
ATOM     30  C   UNL     1       0.035  -2.089   1.186  0.00  0.00    +0.070 A 
ATOM     31  C   UNL     1       0.023  -0.700   1.194  0.00  0.00    +0.031 A 
ENDBRANCH  20  30
ENDBRANCH  19  21
ENDBRANCH  17  19
ENDBRANCH   1  17
TORSDOF 5
