REMARK  Name = ZINC24586711
REMARK  8 active torsions:
REMARK  status: ('A' for Active; 'I' for Inactive)
REMARK    1  A    between atoms: C_1  and  C_2
REMARK    2  A    between atoms: N_4  and  C_5
REMARK    3  A    between atoms: C_8  and  N_11
REMARK    4  A    between atoms: C_12  and  C_14
REMARK    5  A    between atoms: C_14  and  C_27
REMARK    6  A    between atoms: C_15  and  C_16
REMARK    7  A    between atoms: C_19  and  S_22
REMARK    8  A    between atoms: S_22  and  C_23
REMARK                            x       y       z     vdW  Elec       q    Type
REMARK                         _______ _______ _______ _____ _____    ______ ____
ROOT
ATOM      1  N   UNL     1      -4.643   3.583   0.120  0.00  0.00    -0.281 N 
ATOM      2  C   UNL     1      -4.595   4.898  -0.172  0.00  0.00    +0.259 C 
ATOM      3  O   UNL     1      -3.558   5.396  -0.568  0.00  0.00    -0.269 OA
ATOM      4  H   UNL     1      -5.552   3.150   0.563  0.00  0.00    +0.155 HD
ENDROOT
BRANCH   1   8
ATOM      5  C   UNL     1      -1.343   1.154  -0.654  0.00  0.00    +0.033 A 
ATOM      6  C   UNL     1      -2.628   0.654  -0.820  0.00  0.00    +0.025 A 
ATOM      7  C   UNL     1      -3.721   1.456  -0.558  0.00  0.00    +0.025 A 
ATOM      8  C   UNL     1      -3.535   2.768  -0.140  0.00  0.00    +0.034 A 
ATOM      9  C   UNL     1      -2.250   3.270   0.020  0.00  0.00    +0.025 A 
ATOM     10  C   UNL     1      -1.158   2.466  -0.236  0.00  0.00    +0.025 A 
BRANCH   5  14
ATOM     11  C   UNL     1       2.028  -0.498  -0.367  0.00  0.00    +0.109 C 
ATOM     12  C   UNL     1       0.880   0.458  -0.166  0.00  0.00    +0.214 C 
ATOM     13  O   UNL     1       0.959   1.334   0.669  0.00  0.00    -0.276 OA
ATOM     14  N   UNL     1      -0.235   0.338  -0.914  0.00  0.00    -0.286 N 
ATOM     15  H   UNL     1      -0.275  -0.400  -1.728  0.00  0.00    +0.155 HD
ENDBRANCH   5  14
ENDBRANCH   1   8
BRANCH   2  16
ATOM     16  C   UNL     1      -5.796   5.731  -0.011  0.00  0.00    +0.114 C 
ATOM     17  C   UNL     1      -5.747   7.076  -0.310  0.00  0.00    +0.032 C 
BRANCH  17  18
ATOM     18  C   UNL     1      -6.974   7.872  -0.300  0.00  0.00    -0.024 A 
ATOM     19  C   UNL     1      -8.195   7.290  -0.676  0.00  0.00    +0.009 A 
ATOM     20  C   UNL     1      -9.337   8.036  -0.662  0.00  0.00    +0.015 A 
ATOM     21  C   UNL     1      -9.292   9.377  -0.284  0.00  0.00    +0.016 A 
ATOM     22  C   UNL     1      -8.081   9.962   0.086  0.00  0.00    +0.015 A 
ATOM     23  C   UNL     1      -6.934   9.223   0.079  0.00  0.00    +0.009 A 
BRANCH  21  24
ATOM     24  S   UNL     1     -10.770  10.337  -0.274  0.00  0.00    -0.016 S 
BRANCH  24  25
ATOM     25  C   UNL     1     -11.959   9.088  -0.823  0.00  0.00    +0.448 C 
ATOM     26  F   UNL     1     -11.968   8.022   0.083  0.00  0.00    -0.160 F 
ATOM     27  F   UNL     1     -13.236   9.656  -0.887  0.00  0.00    -0.160 F 
ATOM     28  F   UNL     1     -11.593   8.620  -2.090  0.00  0.00    -0.160 F 
ENDBRANCH  24  25
ENDBRANCH  21  24
ENDBRANCH  17  18
BRANCH  16  29
ATOM     29  C   UNL     1      -7.016   5.144   0.456  0.00  0.00    +0.104 C 
ATOM     30  N   UNL     1      -7.985   4.679   0.826  0.00  0.00    -0.191 NA
ENDBRANCH  16  29
ENDBRANCH   2  16
TORSDOF 7
