REMARK  Name = ZINC64697087
REMARK  7 active torsions:
REMARK  status: ('A' for Active; 'I' for Inactive)
REMARK    1  A    between atoms: C_4  and  N_7
REMARK    2  A    between atoms: C_12  and  N_16
REMARK    3  A    between atoms: N_19  and  C_22
REMARK    4  A    between atoms: C_22  and  C_23
REMARK    5  A    between atoms: N_25  and  C_26
REMARK    6  A    between atoms: C_26  and  C_27
REMARK    7  A    between atoms: C_27  and  C_28
REMARK                            x       y       z     vdW  Elec       q    Type
REMARK                         _______ _______ _______ _____ _____    ______ ____
ROOT
ATOM      1  N   UNL     1       7.296  -2.474  -0.669  0.00  0.00    -0.290 NA
ATOM      2  C   UNL     1       7.353  -3.921  -0.917  0.00  0.00    +0.100 C 
ATOM      3  C   UNL     1       8.764  -4.433  -0.618  0.00  0.00    +0.100 C 
ATOM      4  N   UNL     1       9.730  -3.718  -1.464  0.00  0.00    -0.292 NA
ATOM      5  C   UNL     1       9.674  -2.271  -1.216  0.00  0.00    +0.100 C 
ATOM      6  C   UNL     1       8.263  -1.759  -1.514  0.00  0.00    +0.100 C 
ENDROOT
BRANCH   1  11
ATOM      7  N   UNL     1       3.622  -0.651  -0.037  0.00  0.00    -0.160 N 
ATOM      8  C   UNL     1       3.641  -1.996   0.052  0.00  0.00    +0.259 C 
ATOM      9  O   UNL     1       2.603  -2.615   0.155  0.00  0.00    -0.272 OA
ATOM     10  C   UNL     1       4.961  -2.725   0.024  0.00  0.00    +0.191 C 
ATOM     11  C   UNL     1       5.936  -1.958  -0.872  0.00  0.00    +0.126 C 
ATOM     12  C   UNL     1       5.899  -0.494  -0.522  0.00  0.00    +0.124 C 
ATOM     13  N   UNL     1       4.817   0.067  -0.150  0.00  0.00    -0.183 NA
ATOM     14 CL   UNL     1       5.628  -2.829   1.695  0.00  0.00    -0.110 Cl
BRANCH   7  18
ATOM     15  C   UNL     1      -0.017   1.378   0.011  0.00  0.00    +0.000 A 
ATOM     16  C   UNL     1       0.154   0.288  -0.822  0.00  0.00    +0.002 A 
ATOM     17  C   UNL     1       1.359  -0.387  -0.841  0.00  0.00    +0.025 A 
ATOM     18  C   UNL     1       2.400   0.031  -0.021  0.00  0.00    +0.060 A 
ATOM     19  C   UNL     1       2.224   1.126   0.815  0.00  0.00    +0.025 A 
ATOM     20  C   UNL     1       1.017   1.796   0.829  0.00  0.00    +0.002 A 
ENDBRANCH   7  18
ENDBRANCH   1  11
BRANCH   4  21
ATOM     21  C   UNL     1      11.091  -4.234  -1.260  0.00  0.00    +0.180 C 
BRANCH  21  22
ATOM     22  C   UNL     1      12.008  -3.658  -2.308  0.00  0.00    +0.227 C 
ATOM     23  O   UNL     1      11.572  -2.893  -3.142  0.00  0.00    -0.274 OA
ATOM     24  N   UNL     1      13.314  -3.994  -2.318  0.00  0.00    -0.314 N 
ATOM     25  H   UNL     1      13.662  -4.606  -1.651  0.00  0.00    +0.149 HD
BRANCH  24  26
ATOM     26  C   UNL     1      14.206  -3.434  -3.336  0.00  0.00    +0.108 C 
BRANCH  26  27
ATOM     27  C   UNL     1      15.623  -3.971  -3.124  0.00  0.00    +0.052 C 
BRANCH  27  28
ATOM     28  C   UNL     1      16.540  -3.395  -4.172  0.00  0.00    -0.040 C 
ATOM     29  C   UNL     1      17.330  -2.304  -4.050  0.00  0.00    -0.001 A 
ATOM     30  C   UNL     1      17.562  -1.363  -2.948  0.00  0.00    +0.010 A 
ATOM     31  C   UNL     1      18.432  -0.343  -3.128  0.00  0.00    +0.001 A 
ATOM     32  C   UNL     1      19.116  -0.163  -4.338  0.00  0.00    +0.002 A 
ATOM     33  C   UNL     1      18.956  -0.987  -5.396  0.00  0.00    +0.026 A 
ATOM     34  C   UNL     1      18.065  -2.093  -5.317  0.00  0.00    +0.043 A 
ATOM     35  N   UNL     1      17.742  -3.017  -6.189  0.00  0.00    -0.380 N 
ATOM     36  C   UNL     1      16.769  -3.924  -5.570  0.00  0.00    +0.144 C 
ATOM     37  H   UNL     1      18.091  -3.091  -7.091  0.00  0.00    +0.160 HD
ENDBRANCH  27  28
ENDBRANCH  26  27
ENDBRANCH  24  26
ENDBRANCH  21  22
ENDBRANCH   4  21
TORSDOF 7
