REMARK  Name = ZINC12803898
REMARK  7 active torsions:
REMARK  status: ('A' for Active; 'I' for Inactive)
REMARK    1  A    between atoms: C_1  and  C_2
REMARK    2  A    between atoms: C_2  and  C_4
REMARK    3  A    between atoms: C_2  and  N_59
REMARK    4  A    between atoms: N_6  and  C_7
REMARK    5  A    between atoms: C_18  and  C_21
REMARK    6  A    between atoms: N_23  and  C_24
REMARK    7  A    between atoms: C_29  and  O_30
REMARK                            x       y       z     vdW  Elec       q    Type
REMARK                         _______ _______ _______ _____ _____    ______ ____
ROOT
ATOM      1  C   UNL     1      -5.825   0.994   0.672  0.00  0.00    -0.077 C 
ATOM      2  C   UNL     1      -4.684   1.926   1.084  0.00  0.00    -0.006 C 
ATOM      3  C   UNL     1      -3.396   1.112   1.236  0.00  0.00    +0.072 C 
ATOM      4  C   UNL     1      -3.094   0.399  -0.085  0.00  0.00    -0.006 C 
ATOM      5  C   UNL     1      -4.281  -0.490  -0.462  0.00  0.00    -0.077 C 
ATOM      6  N   UNL     1      -5.483   0.356  -0.617  0.00  0.00    +0.387 N 
ATOM      7  H   UNL     1      -5.288   1.089  -1.309  0.00  0.00    -0.081 HD
ENDROOT
BRANCH   3   8
ATOM      8  C   UNL     1      -2.255   2.035   1.582  0.00  0.00    +0.220 C 
ATOM      9  O   UNL     1      -2.452   3.226   1.697  0.00  0.00    -0.275 OA
ATOM     10  N   UNL     1      -1.017   1.536   1.765  0.00  0.00    -0.282 N 
ATOM     11  H   UNL     1      -0.844   0.595   1.601  0.00  0.00    +0.155 HD
BRANCH  10  12
ATOM     12  C   UNL     1       0.022   2.376   2.187  0.00  0.00    +0.075 A 
ATOM     13  C   UNL     1      -0.268   3.576   2.820  0.00  0.00    +0.027 A 
ATOM     14  C   UNL     1       0.758   4.403   3.236  0.00  0.00    +0.002 A 
ATOM     15  C   UNL     1       2.075   4.038   3.022  0.00  0.00    +0.004 A 
ATOM     16  C   UNL     1       2.371   2.844   2.392  0.00  0.00    +0.047 A 
ATOM     17  C   UNL     1       1.348   2.006   1.977  0.00  0.00    +0.138 A 
BRANCH  17  18
ATOM     18  O   UNL     1       1.639   0.828   1.363  0.00  0.00    -0.505 OA
ATOM     19  H   UNL     1       1.712   0.894   0.401  0.00  0.00    +0.292 HD
ENDBRANCH  17  18
ENDBRANCH  10  12
ENDBRANCH   3   8
BRANCH   6  21
ATOM     20  C   UNL     1      -6.178  -1.262  -2.319  0.00  0.00    -0.004 C 
ATOM     21  C   UNL     1      -6.618  -0.461  -1.093  0.00  0.00    +0.016 C 
BRANCH  21  22
ATOM     22  C   UNL     1      -7.752   0.456  -1.472  0.00  0.00    +0.203 C 
ATOM     23  O   UNL     1      -7.523   1.607  -1.779  0.00  0.00    -0.277 OA
ATOM     24  N   UNL     1      -9.019  -0.002  -1.471  0.00  0.00    -0.287 N 
ATOM     25  H   UNL     1      -9.210  -0.899  -1.154  0.00  0.00    +0.155 HD
BRANCH  24  26
ATOM     26  C   UNL     1     -10.059   0.816  -1.926  0.00  0.00    +0.034 A 
ATOM     27  C   UNL     1     -11.144   0.258  -2.591  0.00  0.00    +0.023 A 
ATOM     28  C   UNL     1     -12.167   1.069  -3.038  0.00  0.00    +0.006 A 
ATOM     29  C   UNL     1     -12.117   2.438  -2.827  0.00  0.00    -0.044 A 
ATOM     30  C   UNL     1     -11.038   2.996  -2.166  0.00  0.00    -0.042 A 
ATOM     31  C   UNL     1     -10.013   2.185  -1.710  0.00  0.00    +0.027 A 
ATOM     32  C   UNL     1     -11.221   4.495  -2.064  0.00  0.00    +0.036 C 
ATOM     33  C   UNL     1     -12.719   4.739  -2.341  0.00  0.00    +0.009 C 
ATOM     34  C   UNL     1     -13.097   3.524  -3.214  0.00  0.00    +0.036 C 
ENDBRANCH  24  26
ENDBRANCH  21  22
ENDBRANCH   6  21
TORSDOF 6
