REMARK  Name = ZINC15678179
REMARK  7 active torsions:
REMARK  status: ('A' for Active; 'I' for Inactive)
REMARK    1  A    between atoms: C_1  and  C_2
REMARK    2  A    between atoms: C_2  and  C_25
REMARK    3  A    between atoms: C_5  and  C_20
REMARK    4  A    between atoms: N_11  and  C_12
REMARK    5  A    between atoms: C_12  and  C_13
REMARK    6  A    between atoms: C_13  and  N_72
REMARK    7  A    between atoms: N_27  and  C_28
REMARK                            x       y       z     vdW  Elec       q    Type
REMARK                         _______ _______ _______ _____ _____    ______ ____
ROOT
ATOM      1  C   UNL     1      -4.850   3.761   2.444  0.00  0.00    +0.043 C 
ATOM      2  C   UNL     1      -5.113   3.488   0.961  0.00  0.00    +0.128 C 
ATOM      3  C   UNL     1      -3.811   3.030   0.305  0.00  0.00    +0.157 C 
ATOM      4  N   UNL     1      -2.918   4.183   0.154  0.00  0.00    -0.331 N 
ATOM      5  C   UNL     1      -1.563   4.240   0.134  0.00  0.00    +0.085 A 
ATOM      6  C   UNL     1      -1.189   5.560  -0.066  0.00  0.00    +0.032 A 
ATOM      7  C   UNL     1      -2.353   6.324  -0.155  0.00  0.00    +0.033 A 
ATOM      8  C   UNL     1      -3.413   5.473  -0.009  0.00  0.00    +0.105 A 
ATOM      9  C   UNL     1      -4.857   5.725  -0.022  0.00  0.00    +0.264 C 
ATOM     10  O   UNL     1      -5.317   6.801  -0.360  0.00  0.00    -0.268 OA
ATOM     11  N   UNL     1      -5.653   4.696   0.348  0.00  0.00    -0.282 N 
ENDROOT
BRANCH   5  12
ATOM     12  C   UNL     1      -0.650   3.100   0.289  0.00  0.00    +0.151 A 
ATOM     13  C   UNL     1       0.710   3.167   0.358  0.00  0.00    +0.051 A 
ATOM     14  C   UNL     1       1.174   1.846   0.504  0.00  0.00    +0.042 A 
ATOM     15  C   UNL     1       0.089   1.045   0.517  0.00  0.00    +0.196 A 
ATOM     16  O   UNL     1      -1.010   1.804   0.382  0.00  0.00    -0.461 OA
ENDBRANCH   5  12
BRANCH   2  17
ATOM     17  C   UNL     1      -6.133   2.385   0.842  0.00  0.00    +0.238 C 
ATOM     18  O   UNL     1      -6.424   1.721   1.814  0.00  0.00    -0.273 OA
ATOM     19  N   UNL     1      -6.722   2.138  -0.344  0.00  0.00    -0.311 N 
ATOM     20  H   UNL     1      -6.436   2.617  -1.138  0.00  0.00    +0.149 HD
BRANCH  19  21
ATOM     21  C   UNL     1      -7.795   1.145  -0.436  0.00  0.00    +0.073 C 
ATOM     22  C   UNL     1      -7.188  -0.248  -0.613  0.00  0.00    +0.022 C 
ATOM     23  C   UNL     1      -8.308  -1.286  -0.709  0.00  0.00    +0.002 C 
ATOM     24  C   UNL     1      -9.201  -0.962  -1.909  0.00  0.00    +0.000 C 
ATOM     25  C   UNL     1      -9.809   0.430  -1.732  0.00  0.00    +0.002 C 
ATOM     26  C   UNL     1      -8.688   1.468  -1.636  0.00  0.00    +0.022 C 
ENDBRANCH  19  21
ENDBRANCH   2  17
BRANCH  11  27
ATOM     27  C   UNL     1      -7.099   4.800   0.135  0.00  0.00    +0.091 C 
BRANCH  27  28
ATOM     28  C   UNL     1      -7.734   5.554   1.305  0.00  0.00    -0.060 C 
BRANCH  28  35
ATOM     29  C   UNL     1      -9.484   6.414  -0.145  0.00  0.00    -0.079 C 
ATOM     30  C   UNL     1     -10.938   6.781  -0.265  0.00  0.00    -0.019 C 
ATOM     31  C   UNL     1     -11.135   8.197   0.315  0.00  0.00    -0.002 C 
ATOM     32  C   UNL     1     -11.174   8.195   1.773  0.00  0.00    -0.002 C 
ATOM     33  C   UNL     1      -9.861   7.668   2.390  0.00  0.00    -0.019 C 
ATOM     34  C   UNL     1      -9.863   6.166   2.305  0.00  0.00    -0.079 C 
ATOM     35  N   UNL     1      -9.188   5.604   1.086  0.00  0.00    +0.381 N 
ATOM     36  H   UNL     1      -9.533   4.649   0.936  0.00  0.00    -0.082 HD
ENDBRANCH  28  35
ENDBRANCH  27  28
ENDBRANCH  11  27
TORSDOF 6
