REMARK  Name = ZINC63148488
REMARK  1 active torsions:
REMARK  status: ('A' for Active; 'I' for Inactive)
REMARK    1  A    between atoms: C_1  and  C_2
REMARK                            x       y       z     vdW  Elec       q    Type
REMARK                         _______ _______ _______ _____ _____    ______ ____
ROOT
ATOM      1  C   UNL     1       0.002  -0.004   0.002  0.00  0.00    +0.287 C 
ATOM      2  F   UNL     1       0.657  -0.455  -1.149  0.00  0.00    -0.226 F 
ATOM      3 CL   UNL     1       0.874  -0.601   1.463  0.00  0.00    -0.082 Cl
ENDROOT
BRANCH   1   4
ATOM      4  C   UNL     1      -0.019   1.526   0.010  0.00  0.00    +0.266 C 
ATOM      5  F   UNL     1       1.294   2.010   0.001  0.00  0.00    -0.245 F 
ENDBRANCH   1   4
TORSDOF 1
