REMARK  Name = ZINC60161326
REMARK  7 active torsions:
REMARK  status: ('A' for Active; 'I' for Inactive)
REMARK    1  A    between atoms: C_1  and  C_2
REMARK    2  A    between atoms: C_3  and  C_9
REMARK    3  A    between atoms: C_4  and  C_8
REMARK    4  A    between atoms: N_5  and  C_7
REMARK    5  A    between atoms: C_9  and  C_11
REMARK    6  A    between atoms: C_9  and  N_12
REMARK    7  A    between atoms: C_20  and  C_22
REMARK                            x       y       z     vdW  Elec       q    Type
REMARK                         _______ _______ _______ _____ _____    ______ ____
ROOT
ATOM      1  N   UNL     1      -1.309   0.495  -2.519  0.00  0.00    -0.293 N 
ATOM      2  C   UNL     1      -1.605   0.862  -3.781  0.00  0.00    +0.303 C 
ATOM      3  O   UNL     1      -1.268   0.158  -4.714  0.00  0.00    -0.253 OA
ATOM      4  N   UNL     1      -2.273   2.010  -4.010  0.00  0.00    -0.283 N 
ATOM      5  C   UNL     1      -2.573   2.934  -2.908  0.00  0.00    +0.109 C 
ATOM      6  C   UNL     1      -4.077   3.224  -2.903  0.00  0.00    +0.019 C 
ATOM      7  C   UNL     1      -4.499   3.734  -4.283  0.00  0.00    +0.003 C 
ATOM      8  C   UNL     1      -4.217   2.658  -5.335  0.00  0.00    +0.022 C 
ATOM      9  C   UNL     1      -2.710   2.364  -5.367  0.00  0.00    +0.074 C 
ATOM     10  C   UNL     1      -2.434   1.196  -6.316  0.00  0.00    +0.028 C 
ATOM     11  H   UNL     1      -1.512   1.090  -1.780  0.00  0.00    +0.151 HD
ENDROOT
BRANCH   1  12
ATOM     12  C   UNL     1      -0.682  -0.804  -2.262  0.00  0.00    +0.105 C 
ATOM     13  C   UNL     1       0.840  -0.659  -2.338  0.00  0.00    +0.033 C 
BRANCH  12  16
ATOM     14  C   UNL     1      -1.663  -3.726  -1.527  0.00  0.00    +0.068 C 
ATOM     15  C   UNL     1      -1.506  -2.578  -0.564  0.00  0.00    +0.065 A 
ATOM     16  C   UNL     1      -1.073  -1.288  -0.889  0.00  0.00    +0.016 A 
ATOM     17  C   UNL     1      -1.066  -0.552   0.246  0.00  0.00    +0.041 A 
ATOM     18  N   UNL     1      -1.480  -1.348   1.254  0.00  0.00    -0.271 N 
ATOM     19  N   UNL     1      -1.755  -2.613   0.720  0.00  0.00    -0.176 NA
ATOM     20  C   UNL     1      -1.622  -0.956   2.659  0.00  0.00    +0.172 C 
ATOM     21  C   UNL     1      -0.667   0.896   0.364  0.00  0.00    +0.065 C 
ENDBRANCH  12  16
ENDBRANCH   1  12
TORSDOF 2
