REMARK  Name = ZINC67459998
REMARK  7 active torsions:
REMARK  status: ('A' for Active; 'I' for Inactive)
REMARK    1  A    between atoms: C_1  and  C_2
REMARK    2  A    between atoms: N_5  and  C_8
REMARK    3  A    between atoms: C_8  and  C_9
REMARK    4  A    between atoms: C_9  and  N_10
REMARK    5  A    between atoms: C_16  and  C_19
REMARK    6  A    between atoms: C_19  and  C_21
REMARK    7  A    between atoms: C_19  and  O_28
REMARK                            x       y       z     vdW  Elec       q    Type
REMARK                         _______ _______ _______ _____ _____    ______ ____
ROOT
ATOM      1  N   UNL     1       2.729  -5.799   1.139  0.00  0.00    -0.301 N 
ATOM      2  C   UNL     1       3.466  -6.407   2.089  0.00  0.00    +0.302 C 
ATOM      3  O   UNL     1       4.083  -5.742   2.899  0.00  0.00    -0.253 OA
ATOM      4  N   UNL     1       3.520  -7.753   2.141  0.00  0.00    -0.286 N 
ATOM      5  C   UNL     1       2.877  -8.569   1.102  0.00  0.00    +0.109 C 
ATOM      6  C   UNL     1       1.938  -9.574   1.776  0.00  0.00    +0.025 C 
ATOM      7  C   UNL     1       2.721 -10.381   2.814  0.00  0.00    +0.025 C 
ATOM      8  C   UNL     1       3.270  -9.438   3.888  0.00  0.00    +0.025 C 
ATOM      9  C   UNL     1       4.229  -8.432   3.235  0.00  0.00    +0.109 C 
ATOM     10  H   UNL     1       2.297  -6.326   0.449  0.00  0.00    +0.150 HD
ENDROOT
BRANCH   1  11
ATOM     11  C   UNL     1       2.580  -4.341   1.149  0.00  0.00    +0.087 C 
BRANCH  11  12
ATOM     12  C   UNL     1       1.701  -3.911  -0.028  0.00  0.00    -0.060 C 
BRANCH  12  17
ATOM     13  C   UNL     1      -0.026   1.524   0.016  0.00  0.00    +0.007 C 
ATOM     14  C   UNL     1      -0.004  -0.006   0.007  0.00  0.00    -0.018 C 
ATOM     15  C   UNL     1       0.722  -0.500  -1.248  0.00  0.00    -0.016 C 
ATOM     16  C   UNL     1       0.810  -2.027  -1.212  0.00  0.00    -0.079 C 
ATOM     17  N   UNL     1       1.552  -2.449  -0.018  0.00  0.00    +0.381 N 
ATOM     18  C   UNL     1       0.825  -2.041   1.191  0.00  0.00    -0.079 C 
ATOM     19  C   UNL     1       0.737  -0.515   1.247  0.00  0.00    -0.016 C 
ATOM     20  H   UNL     1       2.465  -2.020  -0.021  0.00  0.00    -0.082 HD
ENDBRANCH  12  17
ENDBRANCH  11  12
ENDBRANCH   1  11
BRANCH   7  21
ATOM     21  C   UNL     1       1.794 -11.410   3.465  0.00  0.00    +0.148 C 
BRANCH  21  22
ATOM     22  C   UNL     1       2.565 -12.205   4.487  0.00  0.00    -0.019 A 
ATOM     23  C   UNL     1       2.706 -11.722   5.775  0.00  0.00    +0.007 A 
ATOM     24  C   UNL     1       3.413 -12.450   6.713  0.00  0.00    +0.020 A 
ATOM     25  C   UNL     1       3.979 -13.663   6.363  0.00  0.00    +0.041 A 
ATOM     26  C   UNL     1       3.837 -14.146   5.074  0.00  0.00    +0.020 A 
ATOM     27  C   UNL     1       3.125 -13.419   4.139  0.00  0.00    +0.007 A 
ATOM     28 CL   UNL     1       4.867 -14.579   7.541  0.00  0.00    -0.084 Cl
ENDBRANCH  21  22
BRANCH  21  29
ATOM     29  O   UNL     1       0.709 -10.736   4.105  0.00  0.00    -0.387 OA
ATOM     30  H   UNL     1       0.983 -10.119   4.798  0.00  0.00    +0.210 HD
ENDBRANCH  21  29
ENDBRANCH   7  21
TORSDOF 6
