REMARK  Name = ZINC15076784
REMARK  6 active torsions:
REMARK  status: ('A' for Active; 'I' for Inactive)
REMARK    1  A    between atoms: C_1  and  C_2
REMARK    2  A    between atoms: C_5  and  C_28
REMARK    3  A    between atoms: C_6  and  C_8
REMARK    4  A    between atoms: C_9  and  C_14
REMARK    5  A    between atoms: C_14  and  N_52
REMARK    6  A    between atoms: C_15  and  N_52
REMARK                            x       y       z     vdW  Elec       q    Type
REMARK                         _______ _______ _______ _____ _____    ______ ____
ROOT
ATOM      1  C   UNL     1       3.491   3.607   1.780  0.00  0.00    -0.043 C 
ENDROOT
BRANCH   1   3
ATOM      2  C   UNL     1       5.288   5.474   1.992  0.00  0.00    +0.094 A 
ATOM      3  C   UNL     1       4.857   4.205   1.559  0.00  0.00    -0.019 A 
ATOM      4  C   UNL     1       5.884   3.620   0.904  0.00  0.00    +0.107 A 
ATOM      5  N   UNL     1       6.930   4.474   0.922  0.00  0.00    -0.284 N 
ATOM      6  H   UNL     1       7.828   4.311   0.513  0.00  0.00    +0.188 HD
ATOM      7  N   UNL     1       6.538   5.629   1.611  0.00  0.00    -0.174 NA
BRANCH   2  13
ATOM      8  C   UNL     1       1.077   6.670   4.394  0.00  0.00    +0.044 C 
ATOM      9  C   UNL     1       2.453   7.039   3.903  0.00  0.00    -0.050 A 
ATOM     10  C   UNL     1       2.962   8.300   4.157  0.00  0.00    +0.003 A 
ATOM     11  C   UNL     1       4.224   8.645   3.709  0.00  0.00    +0.004 A 
ATOM     12  C   UNL     1       4.985   7.730   3.010  0.00  0.00    -0.041 A 
ATOM     13  C   UNL     1       4.476   6.460   2.747  0.00  0.00    +0.005 A 
ATOM     14  C   UNL     1       3.203   6.118   3.201  0.00  0.00    +0.013 A 
ATOM     15  C   UNL     1       6.363   8.105   2.528  0.00  0.00    +0.044 C 
ENDBRANCH   2  13
ENDBRANCH   1   3
BRANCH   1  16
ATOM     16  N   UNL     1       3.406   2.318   1.069  0.00  0.00    +0.385 N 
ATOM     17  H   UNL     1       4.067   1.655   1.490  0.00  0.00    -0.085 HD
ATOM     18  H   UNL     1       3.647   2.460   0.081  0.00  0.00    -0.085 HD
BRANCH  16  19
ATOM     19  C   UNL     1       2.040   1.770   1.163  0.00  0.00    -0.054 C 
ATOM     20  C   UNL     1       2.104   0.242   1.089  0.00  0.00    -0.013 C 
ATOM     21  C   UNL     1       0.681  -0.323   1.123  0.00  0.00    +0.017 C 
ATOM     22  C   UNL     1      -0.124   0.265  -0.038  0.00  0.00    +0.108 C 
ATOM     23  N   UNL     1      -0.156   1.729   0.079  0.00  0.00    -0.301 N 
ATOM     24  C   UNL     1       1.195   2.298   0.001  0.00  0.00    +0.092 C 
ATOM     25  C   UNL     1      -0.985   2.285  -0.880  0.00  0.00    +0.218 A 
ATOM     26  N   UNL     1      -0.522   3.263  -1.645  0.00  0.00    -0.223 NA
ATOM     27  C   UNL     1      -1.286   3.813  -2.575  0.00  0.00    +0.116 A 
ATOM     28  C   UNL     1      -2.587   3.361  -2.736  0.00  0.00    +0.039 A 
ATOM     29  C   UNL     1      -3.039   2.340  -1.915  0.00  0.00    +0.116 A 
ATOM     30  N   UNL     1      -2.222   1.830  -1.008  0.00  0.00    -0.223 NA
ENDBRANCH  16  19
ENDBRANCH   1  16
TORSDOF 4
