REMARK  Name = ZINC11544588
REMARK  7 active torsions:
REMARK  status: ('A' for Active; 'I' for Inactive)
REMARK    1  A    between atoms: C_1  and  C_2
REMARK    2  A    between atoms: C_4  and  C_14
REMARK    3  A    between atoms: N_8  and  C_11
REMARK    4  A    between atoms: C_11  and  C_12
REMARK    5  A    between atoms: C_11  and  C_13
REMARK    6  A    between atoms: N_16  and  N_17
REMARK    7  A    between atoms: C_18  and  C_20
REMARK                            x       y       z     vdW  Elec       q    Type
REMARK                         _______ _______ _______ _____ _____    ______ ____
ROOT
ATOM      1  C   UNL     1       0.122   2.506   4.797  0.00  0.00    +0.261 C 
ATOM      2  O   UNL     1      -0.464   2.899   5.787  0.00  0.00    -0.269 OA
ATOM      3  N   UNL     1       1.454   2.305   4.837  0.00  0.00    -0.230 N 
ATOM      4  H   UNL     1       1.921   1.992   4.046  0.00  0.00    +0.173 HD
ENDROOT
BRANCH   1   8
ATOM      5  C   UNL     1      -0.013   1.086   0.008  0.00  0.00    +0.065 C 
ATOM      6  C   UNL     1      -0.718   1.572   1.248  0.00  0.00    +0.041 A 
ATOM      7  C   UNL     1       0.020   1.801   2.400  0.00  0.00    +0.037 A 
ATOM      8  C   UNL     1      -0.628   2.251   3.548  0.00  0.00    +0.052 A 
ATOM      9  C   UNL     1      -2.024   2.454   3.481  0.00  0.00    +0.051 A 
ATOM     10  C   UNL     1      -2.996   2.888   4.407  0.00  0.00    +0.145 A 
ATOM     11  N   UNL     1      -4.157   2.895   3.818  0.00  0.00    -0.177 NA
ATOM     12  N   UNL     1      -4.017   2.473   2.490  0.00  0.00    -0.244 N 
ATOM     13  C   UNL     1      -2.693   2.195   2.268  0.00  0.00    +0.159 A 
ATOM     14  N   UNL     1      -2.017   1.773   1.209  0.00  0.00    -0.233 NA
BRANCH  12  15
ATOM     15  C   UNL     1      -5.098   2.350   1.509  0.00  0.00    +0.103 C 
ATOM     16  C   UNL     1      -6.138   1.350   2.018  0.00  0.00    +0.032 C 
ATOM     17  C   UNL     1      -5.760   3.715   1.306  0.00  0.00    +0.032 C 
ENDBRANCH  12  15
ENDBRANCH   1   8
BRANCH   3  18
ATOM     18  N   UNL     1       2.164   2.547   6.020  0.00  0.00    -0.234 N 
ATOM     19  C   UNL     1       3.496   2.346   6.060  0.00  0.00    +0.235 C 
ATOM     20  O   UNL     1       4.080   1.954   5.071  0.00  0.00    -0.274 OA
ATOM     21  H   UNL     1       1.697   2.860   6.810  0.00  0.00    +0.173 HD
BRANCH  19  22
ATOM     22  C   UNL     1       4.260   2.607   7.332  0.00  0.00    +0.049 C 
ATOM     23  C   UNL     1       4.096   4.074   7.734  0.00  0.00    +0.019 C 
ATOM     24  C   UNL     1       4.871   4.339   9.026  0.00  0.00    -0.009 C 
ATOM     25  C   UNL     1       6.354   4.034   8.803  0.00  0.00    +0.007 C 
ATOM     26  C   UNL     1       6.518   2.567   8.401  0.00  0.00    -0.009 C 
ATOM     27  C   UNL     1       5.742   2.302   7.109  0.00  0.00    +0.019 C 
ATOM     28  C   UNL     1       5.974   1.669   9.515  0.00  0.00    +0.007 C 
ATOM     29  C   UNL     1       4.492   1.974   9.738  0.00  0.00    -0.009 C 
ATOM     30  C   UNL     1       4.328   3.441  10.140  0.00  0.00    +0.007 C 
ATOM     31  C   UNL     1       3.716   1.709   8.446  0.00  0.00    +0.019 C 
ENDBRANCH  19  22
ENDBRANCH   3  18
TORSDOF 4
