REMARK  Name = ZINC09378564
REMARK  10 active torsions:
REMARK  status: ('A' for Active; 'I' for Inactive)
REMARK    1  A    between atoms: C_1  and  C_2
REMARK    2  A    between atoms: C_2  and  C_3
REMARK    3  A    between atoms: C_2  and  C_4
REMARK    4  A    between atoms: C_2  and  C_5
REMARK    5  A    between atoms: C_8  and  C_24
REMARK    6  A    between atoms: C_11  and  C_13
REMARK    7  A    between atoms: C_18  and  N_19
REMARK    8  A    between atoms: N_19  and  S_20
REMARK    9  A    between atoms: S_20  and  C_23
REMARK   10  A    between atoms: C_29  and  O_30
REMARK                            x       y       z     vdW  Elec       q    Type
REMARK                         _______ _______ _______ _____ _____    ______ ____
ROOT
ATOM      1  C   UNL     1      -5.043   1.861  -0.144  0.00  0.00    +0.241 C 
ATOM      2  O   UNL     1      -5.950   2.666  -0.163  0.00  0.00    -0.273 OA
ATOM      3  N   UNL     1      -3.772   2.281   0.011  0.00  0.00    -0.185 N 
ATOM      4  C   UNL     1      -3.346   3.681   0.169  0.00  0.00    +0.140 C 
ATOM      5  C   UNL     1      -1.814   3.580   0.305  0.00  0.00    +0.087 C 
ATOM      6  C   UNL     1      -1.536   2.097   0.207  0.00  0.00    +0.071 C 
ATOM      7  N   UNL     1      -2.645   1.461   0.043  0.00  0.00    -0.181 NA
ENDROOT
BRANCH   6   8
ATOM      8  C   UNL     1      -0.203   1.475   0.282  0.00  0.00    +0.020 A 
ATOM      9  C   UNL     1       0.934   2.269   0.450  0.00  0.00    +0.011 A 
ATOM     10  C   UNL     1       2.180   1.681   0.512  0.00  0.00    +0.001 A 
ATOM     11  C   UNL     1       2.311   0.306   0.410  0.00  0.00    +0.002 A 
ATOM     12  C   UNL     1       1.195  -0.491   0.243  0.00  0.00    +0.025 A 
ATOM     13  C   UNL     1      -0.067   0.082   0.178  0.00  0.00    +0.057 A 
BRANCH  13  14
ATOM     14  N   UNL     1      -1.193  -0.720   0.010  0.00  0.00    -0.220 N 
ATOM     15  H   UNL     1      -1.939  -0.404  -0.523  0.00  0.00    +0.173 HD
BRANCH  14  16
ATOM     16  S   UNL     1      -1.258  -2.215   0.720  0.00  0.00    +0.040 S 
ATOM     17  O   UNL     1      -2.558  -2.703   0.421  0.00  0.00    -0.155 OA
ATOM     18  O   UNL     1      -0.103  -2.893   0.245  0.00  0.00    -0.155 OA
ATOM     19  C   UNL     1      -1.105  -1.893   2.499  0.00  0.00    +0.218 C 
ENDBRANCH  14  16
ENDBRANCH  13  14
ENDBRANCH   6   8
BRANCH   4  20
ATOM     20  C   UNL     1      -3.951   4.282   1.411  0.00  0.00    +0.017 A 
ATOM     21  C   UNL     1      -4.437   3.461   2.410  0.00  0.00    +0.009 A 
ATOM     22  C   UNL     1      -4.991   4.012   3.551  0.00  0.00    +0.001 A 
ATOM     23  C   UNL     1      -5.061   5.386   3.694  0.00  0.00    +0.004 A 
ATOM     24  C   UNL     1      -4.577   6.211   2.698  0.00  0.00    +0.046 A 
ATOM     25  C   UNL     1      -4.015   5.660   1.555  0.00  0.00    +0.122 A 
BRANCH  25  26
ATOM     26  O   UNL     1      -3.533   6.470   0.576  0.00  0.00    -0.506 OA
ATOM     27  H   UNL     1      -4.186   6.708  -0.096  0.00  0.00    +0.292 HD
ENDBRANCH  25  26
ENDBRANCH   4  20
BRANCH   1  29
ATOM     28  C   UNL     1      -6.845   0.186  -0.456  0.00  0.00    +0.020 C 
ATOM     29  C   UNL     1      -5.337   0.390  -0.296  0.00  0.00    +0.040 C 
ATOM     30  C   UNL     1      -4.615  -0.150  -1.532  0.00  0.00    +0.020 C 
ATOM     31  C   UNL     1      -4.850  -0.358   0.947  0.00  0.00    +0.020 C 
ENDBRANCH   1  29
TORSDOF 6
