REMARK  Name = ZINC11990301
REMARK  7 active torsions:
REMARK  status: ('A' for Active; 'I' for Inactive)
REMARK    1  A    between atoms: C_1  and  C_2
REMARK    2  A    between atoms: C_3  and  N_10
REMARK    3  A    between atoms: N_10  and  N_11
REMARK    4  A    between atoms: C_12  and  C_13
REMARK    5  A    between atoms: C_16  and  O_19
REMARK    6  A    between atoms: O_19  and  C_20
REMARK    7  A    between atoms: C_20  and  C_21
REMARK                            x       y       z     vdW  Elec       q    Type
REMARK                         _______ _______ _______ _____ _____    ______ ____
ROOT
ATOM      1  C   UNL     1      -3.632   3.414   0.040  0.00  0.00    -0.005 A 
ATOM      2  C   UNL     1      -2.446   4.152   0.032  0.00  0.00    +0.013 A 
ATOM      3  C   UNL     1      -2.494   5.529   0.040  0.00  0.00    +0.046 A 
ATOM      4  C   UNL     1      -3.719   6.184   0.056  0.00  0.00    +0.121 A 
ATOM      5  C   UNL     1      -4.901   5.454   0.064  0.00  0.00    +0.046 A 
ATOM      6  C   UNL     1      -4.862   4.076   0.049  0.00  0.00    +0.013 A 
ENDROOT
BRANCH   1   8
ATOM      7  N   UNL     1      -2.442   1.327   0.022  0.00  0.00    -0.189 NA
ATOM      8  C   UNL     1      -3.586   1.940   0.031  0.00  0.00    +0.138 C 
BRANCH   7   9
ATOM      9  N   UNL     1      -2.398  -0.073   0.013  0.00  0.00    -0.221 N 
ATOM     10  H   UNL     1      -3.222  -0.585   0.015  0.00  0.00    +0.176 HD
BRANCH   9  13
ATOM     11  C   UNL     1      -0.018   1.503   0.010  0.00  0.00    +0.071 C 
ATOM     12  C   UNL     1       0.002  -0.004   0.002  0.00  0.00    +0.100 A 
ATOM     13  C   UNL     1      -1.191  -0.721   0.004  0.00  0.00    +0.143 A 
ATOM     14  N   UNL     1      -1.129  -2.087  -0.004  0.00  0.00    -0.291 N 
ATOM     15  H   UNL     1      -1.940  -2.619  -0.003  0.00  0.00    +0.172 HD
ATOM     16  C   UNL     1       0.084  -2.679  -0.013  0.00  0.00    +0.366 A 
ATOM     17  O   UNL     1       0.165  -3.896  -0.020  0.00  0.00    -0.243 OA
ATOM     18  N   UNL     1       1.196  -1.938  -0.014  0.00  0.00    -0.090 NA
ATOM     19  N   UNL     1       1.153  -0.653  -0.013  0.00  0.00    -0.146 NA
ENDBRANCH   9  13
ENDBRANCH   7   9
ENDBRANCH   1   8
BRANCH   4  20
ATOM     20  O   UNL     1      -3.762   7.541   0.065  0.00  0.00    -0.487 OA
BRANCH  20  21
ATOM     21  C   UNL     1      -5.054   8.150   0.081  0.00  0.00    +0.264 C 
BRANCH  21  22
ATOM     22  C   UNL     1      -4.904   9.649   0.089  0.00  0.00    -0.010 A 
ATOM     23  C   UNL     1      -4.817  10.329   1.289  0.00  0.00    +0.008 A 
ATOM     24  C   UNL     1      -4.679  11.704   1.297  0.00  0.00    +0.015 A 
ATOM     25  C   UNL     1      -4.627  12.400   0.102  0.00  0.00    +0.018 A 
ATOM     26  C   UNL     1      -4.714  11.720  -1.099  0.00  0.00    +0.015 A 
ATOM     27  C   UNL     1      -4.847  10.344  -1.105  0.00  0.00    +0.008 A 
ATOM     28 BR   UNL     1      -4.438  14.282   0.112  0.00  0.00    -0.050 Br
ENDBRANCH  21  22
ENDBRANCH  20  21
ENDBRANCH   4  20
TORSDOF 6
