REMARK  Name = ZINC08227404
REMARK  2 active torsions:
REMARK  status: ('A' for Active; 'I' for Inactive)
REMARK    1  A    between atoms: C_1  and  C_2
REMARK    2  A    between atoms: C_2  and  N_3
REMARK                            x       y       z     vdW  Elec       q    Type
REMARK                         _______ _______ _______ _____ _____    ______ ____
ROOT
ATOM      1  N   UNL     1       0.688  -0.476  -1.203  0.00  0.00    -0.324 N 
ATOM      2  C   UNL     1       0.830  -1.829  -1.430  0.00  0.00    +0.161 A 
ATOM      3  N   UNL     1       0.411  -2.826  -0.681  0.00  0.00    -0.207 NA
ATOM      4  C   UNL     1       0.613  -4.098  -1.015  0.00  0.00    +0.154 A 
ATOM      5  C   UNL     1       1.304  -4.266  -2.220  0.00  0.00    +0.106 A 
ATOM      6  S   UNL     1       1.575  -2.590  -2.734  0.00  0.00    -0.047 S 
ATOM      7  C   UNL     1       1.609  -5.520  -2.733  0.00  0.00    +0.215 A 
ATOM      8  C   UNL     1       1.212  -6.646  -2.021  0.00  0.00    +0.130 A 
ATOM      9  C   UNL     1       0.522  -6.471  -0.819  0.00  0.00    +0.268 A 
ATOM     10  O   UNL     1       0.171  -7.456  -0.188  0.00  0.00    -0.267 OA
ATOM     11  N   UNL     1       0.237  -5.253  -0.339  0.00  0.00    -0.305 N 
ATOM     12  H   UNL     1      -0.244  -5.175   0.500  0.00  0.00    +0.170 HD
ATOM     13 BR   UNL     1       1.597  -8.380  -2.668  0.00  0.00    -0.041 Br
ATOM     14  O   UNL     1       2.280  -5.644  -3.904  0.00  0.00    -0.285 OA
ATOM     15  H   UNL     1       1.042   0.162  -1.842  0.00  0.00    +0.148 HD
ENDROOT
BRANCH   1  17
ATOM     16  C   UNL     1      -0.019   1.526   0.010  0.00  0.00    +0.024 C 
ATOM     17  C   UNL     1       0.002  -0.004   0.002  0.00  0.00    +0.100 C 
ENDBRANCH   1  17
TORSDOF 1
