REMARK  Name = ZINC20690866
REMARK  8 active torsions:
REMARK  status: ('A' for Active; 'I' for Inactive)
REMARK    1  A    between atoms: C_1  and  C_2
REMARK    2  A    between atoms: C_2  and  C_3
REMARK    3  A    between atoms: C_2  and  C_4
REMARK    4  A    between atoms: N_6  and  C_7
REMARK    5  A    between atoms: C_20  and  C_23
REMARK    6  A    between atoms: C_26  and  O_30
REMARK    7  A    between atoms: C_27  and  O_29
REMARK    8  A    between atoms: O_30  and  C_31
REMARK                            x       y       z     vdW  Elec       q    Type
REMARK                         _______ _______ _______ _____ _____    ______ ____
ROOT
ATOM      1  C   UNL     1       2.535   1.735  -0.058  0.00  0.00    +0.034 A 
ATOM      2  C   UNL     1       2.477   0.348  -0.042  0.00  0.00    +0.025 A 
ATOM      3  C   UNL     1       3.636  -0.391   0.066  0.00  0.00    +0.025 A 
ATOM      4  C   UNL     1       4.869   0.243   0.160  0.00  0.00    +0.031 A 
ATOM      5  C   UNL     1       4.922   1.641   0.155  0.00  0.00    -0.018 A 
ATOM      6  C   UNL     1       3.763   2.376   0.035  0.00  0.00    +0.029 A 
ATOM      7  C   UNL     1       6.253   2.275   0.282  0.00  0.00    +0.049 C 
ATOM      8  C   UNL     1       6.530   3.632  -0.255  0.00  0.00    -0.023 C 
ATOM      9  C   UNL     1       7.803   3.689  -0.627  0.00  0.00    -0.030 C 
ATOM     10  C   UNL     1       8.477   2.336  -0.393  0.00  0.00    +0.033 C 
ATOM     11  C   UNL     1       7.282   1.377  -0.469  0.00  0.00    +0.029 C 
ATOM     12  C   UNL     1       7.369   0.096   0.341  0.00  0.00    +0.105 C 
ATOM     13  N   UNL     1       6.035  -0.533   0.235  0.00  0.00    -0.336 N 
ATOM     14  H   UNL     1       5.944  -1.629   0.213  0.00  0.00    +0.147 HD
ENDROOT
BRANCH  12  15
ATOM     15  C   UNL     1       7.683   0.411   1.781  0.00  0.00    -0.023 A 
ATOM     16  C   UNL     1       6.655   0.610   2.684  0.00  0.00    +0.009 A 
ATOM     17  C   UNL     1       6.938   0.898   4.006  0.00  0.00    +0.050 A 
ATOM     18  C   UNL     1       8.254   0.988   4.429  0.00  0.00    +0.161 A 
ATOM     19  C   UNL     1       9.289   0.789   3.520  0.00  0.00    +0.159 A 
ATOM     20  C   UNL     1       8.998   0.495   2.198  0.00  0.00    +0.054 A 
BRANCH  19  21
ATOM     21  O   UNL     1      10.582   0.877   3.931  0.00  0.00    -0.503 OA
ATOM     22  H   UNL     1      11.399   0.719   3.211  0.00  0.00    +0.292 HD
ENDBRANCH  19  21
BRANCH  18  23
ATOM     23  O   UNL     1       8.534   1.272   5.729  0.00  0.00    -0.491 OA
ATOM     24  C   UNL     1       7.421   1.465   6.605  0.00  0.00    +0.277 C 
ENDBRANCH  18  23
ENDBRANCH  12  15
BRANCH   1  27
ATOM     25  C   UNL     1       0.222   2.054   0.410  0.00  0.00    +0.220 C 
ATOM     26  O   UNL     1       0.197   0.974   0.962  0.00  0.00    -0.275 OA
ATOM     27  N   UNL     1       1.357   2.486  -0.174  0.00  0.00    -0.285 N 
ATOM     28  H   UNL     1       1.359   3.429  -0.741  0.00  0.00    +0.155 HD
BRANCH  25  30
ATOM     29  C   UNL     1      -1.418   3.161  -1.085  0.00  0.00    +0.017 C 
ATOM     30  C   UNL     1      -1.019   2.908   0.370  0.00  0.00    +0.069 C 
ATOM     31  C   UNL     1      -2.158   2.188   1.094  0.00  0.00    +0.017 C 
ENDBRANCH  25  30
ENDBRANCH   1  27
TORSDOF 5
