REMARK  Name = ZINC13651316
REMARK  17 active torsions:
REMARK  status: ('A' for Active; 'I' for Inactive)
REMARK    1  A    between atoms: C_1  and  C_2
REMARK    2  A    between atoms: C_2  and  N_3
REMARK    3  A    between atoms: N_3  and  C_4
REMARK    4  A    between atoms: N_3  and  C_6
REMARK    5  A    between atoms: C_4  and  C_5
REMARK    6  A    between atoms: C_11  and  N_12
REMARK    7  A    between atoms: N_12  and  C_13
REMARK    8  A    between atoms: N_12  and  C_15
REMARK    9  A    between atoms: C_13  and  C_14
REMARK   10  A    between atoms: C_15  and  C_16
REMARK   11  A    between atoms: N_20  and  C_23
REMARK   12  A    between atoms: C_23  and  C_24
REMARK   13  A    between atoms: C_24  and  C_38
REMARK   14  A    between atoms: C_28  and  C_37
REMARK   15  A    between atoms: C_29  and  O_36
REMARK   16  A    between atoms: C_30  and  C_35
REMARK   17  A    between atoms: C_31  and  C_34
REMARK                            x       y       z     vdW  Elec       q    Type
REMARK                         _______ _______ _______ _____ _____    ______ ____
ROOT
ATOM      1  C   UNL     1       0.242  -2.292  -2.276  0.00  0.00    +0.052 A 
ATOM      2  C   UNL     1       0.720  -2.523  -0.996  0.00  0.00    +0.028 A 
ATOM      3  C   UNL     1       0.886  -3.833  -0.577  0.00  0.00    +0.043 A 
ATOM      4  C   UNL     1       0.570  -4.870  -1.447  0.00  0.00    +0.100 A 
ATOM      5  N   UNL     1       0.115  -4.615  -2.665  0.00  0.00    -0.330 N 
ATOM      6  C   UNL     1      -0.060  -3.374  -3.094  0.00  0.00    +0.120 A 
ATOM      7  N   UNL     1       0.733  -6.187  -1.035  0.00  0.00    -0.314 N 
ATOM      8  C   UNL     1       0.287  -7.304  -1.882  0.00  0.00    +0.122 C 
ATOM      9  C   UNL     1      -0.588  -8.236  -1.038  0.00  0.00    +0.103 C 
ATOM     10  N   UNL     1       0.146  -8.629   0.172  0.00  0.00    -0.296 NA
ATOM     11  C   UNL     1       0.438  -7.466   1.020  0.00  0.00    +0.103 C 
ATOM     12  C   UNL     1       1.361  -6.502   0.257  0.00  0.00    +0.122 C 
ATOM     13  H   UNL     1      -0.098  -5.355  -3.256  0.00  0.00    +0.168 HD
ENDROOT
BRANCH   1  14
ATOM     14  N   UNL     1       0.061  -0.985  -2.738  0.00  0.00    -0.391 NA
ATOM     15  H   UNL     1      -0.246  -1.007  -3.698  0.00  0.00    +0.126 HD
BRANCH  14  17
ATOM     16  C   UNL     1      -1.241   1.075  -2.495  0.00  0.00    +0.022 C 
ATOM     17  C   UNL     1      -0.952  -0.311  -1.915  0.00  0.00    +0.081 C 
ENDBRANCH  14  17
BRANCH  14  18
ATOM     18  C   UNL     1       1.331  -0.253  -2.647  0.00  0.00    +0.081 C 
ATOM     19  C   UNL     1       2.345  -0.870  -3.613  0.00  0.00    +0.022 C 
ENDBRANCH  14  18
ENDBRANCH   1  14
BRANCH   6  20
ATOM     20  N   UNL     1      -0.546  -3.152  -4.377  0.00  0.00    -0.316 N 
BRANCH  20  21
ATOM     21  C   UNL     1       0.387  -2.929  -5.485  0.00  0.00    +0.103 C 
ATOM     22  C   UNL     1       0.744  -4.271  -6.129  0.00  0.00    +0.024 C 
ENDBRANCH  20  21
BRANCH  20  23
ATOM     23  C   UNL     1      -1.990  -3.140  -4.622  0.00  0.00    +0.103 C 
ATOM     24  C   UNL     1      -2.499  -1.698  -4.602  0.00  0.00    +0.024 C 
ENDBRANCH  20  23
ENDBRANCH   6  20
BRANCH  10  25
ATOM     25  C   UNL     1      -0.588  -9.657   0.923  0.00  0.00    +0.132 C 
BRANCH  25  26
ATOM     26  C   UNL     1       0.365 -10.358   1.893  0.00  0.00    +0.121 C 
ATOM     27  C   UNL     1       1.619 -10.822   1.140  0.00  0.00    +0.054 C 
ATOM     28  C   UNL     1       2.498 -11.614   2.111  0.00  0.00    +0.043 C 
ATOM     29  C   UNL     1       2.652 -10.845   3.399  0.00  0.00    +0.001 A 
ATOM     30  C   UNL     1       3.686 -11.184   4.256  0.00  0.00    -0.002 A 
ATOM     31  C   UNL     1       3.856 -10.502   5.450  0.00  0.00    +0.123 A 
ATOM     32  C   UNL     1       2.986  -9.475   5.788  0.00  0.00    -0.002 A 
ATOM     33  C   UNL     1       1.957  -9.136   4.935  0.00  0.00    -0.002 A 
ATOM     34  C   UNL     1       1.786  -9.819   3.735  0.00  0.00    +0.128 A 
ATOM     35  O   UNL     1       0.766  -9.447   2.917  0.00  0.00    -0.484 OA
ATOM     36  C   UNL     1       1.012  -8.021   5.304  0.00  0.00    +0.048 C 
ATOM     37  C   UNL     1       3.164  -8.732   7.087  0.00  0.00    +0.048 C 
ATOM     38  C   UNL     1       4.631 -12.299   3.888  0.00  0.00    +0.048 C 
ATOM     39  C   UNL     1      -0.335 -11.565   2.521  0.00  0.00    +0.057 C 
BRANCH  31  40
ATOM     40  O   UNL     1       4.872 -10.838   6.288  0.00  0.00    -0.506 OA
ATOM     41  H   UNL     1       5.693 -10.354   6.124  0.00  0.00    +0.292 HD
ENDBRANCH  31  40
ENDBRANCH  25  26
ENDBRANCH  10  25
TORSDOF 9
