REMARK  Name = ZINC09869123
REMARK  10 active torsions:
REMARK  status: ('A' for Active; 'I' for Inactive)
REMARK    1  A    between atoms: C_1  and  C_2
REMARK    2  A    between atoms: C_2  and  C_3
REMARK    3  A    between atoms: C_3  and  C_4
REMARK    4  A    between atoms: C_4  and  N_5
REMARK    5  A    between atoms: C_6  and  N_36
REMARK    6  A    between atoms: C_7  and  N_14
REMARK    7  A    between atoms: N_14  and  C_15
REMARK    8  A    between atoms: C_15  and  C_16
REMARK    9  A    between atoms: C_22  and  C_24
REMARK   10  A    between atoms: C_24  and  N_71
REMARK                            x       y       z     vdW  Elec       q    Type
REMARK                         _______ _______ _______ _____ _____    ______ ____
ROOT
ATOM      1  N   UNL     1      -3.064   7.740  -2.053  0.00  0.00    -0.261 N 
ATOM      2  C   UNL     1      -2.886   6.887  -1.022  0.00  0.00    +0.204 C 
ATOM      3  O   UNL     1      -2.804   7.313   0.111  0.00  0.00    -0.277 OA
ENDROOT
BRANCH   1   6
ATOM      4  N   UNL     1      -4.168  11.233  -1.768  0.00  0.00    -0.280 N 
ATOM      5  C   UNL     1      -4.205   9.877  -1.999  0.00  0.00    +0.127 A 
ATOM      6  C   UNL     1      -3.057   9.133  -1.825  0.00  0.00    +0.140 A 
ATOM      7  C   UNL     1      -1.881   9.785  -1.410  0.00  0.00    +0.277 A 
ATOM      8  O   UNL     1      -0.853   9.150  -1.244  0.00  0.00    -0.266 OA
ATOM      9  N   UNL     1      -1.896  11.116  -1.203  0.00  0.00    -0.273 N 
ATOM     10  H   UNL     1      -1.059  11.581  -0.916  0.00  0.00    +0.173 HD
ATOM     11  C   UNL     1      -3.025  11.826  -1.378  0.00  0.00    +0.331 A 
ATOM     12  O   UNL     1      -3.012  13.025  -1.180  0.00  0.00    -0.246 OA
BRANCH   5  13
ATOM     13  N   UNL     1      -5.373   9.272  -2.397  0.00  0.00    -0.343 N 
ATOM     14  H   UNL     1      -5.419   8.306  -2.468  0.00  0.00    +0.144 HD
ATOM     15  H   UNL     1      -6.152   9.811  -2.608  0.00  0.00    +0.144 HD
ENDBRANCH   5  13
BRANCH   4  16
ATOM     16  C   UNL     1      -5.380  12.036  -1.949  0.00  0.00    +0.128 C 
BRANCH  16  17
ATOM     17  C   UNL     1      -6.156  12.091  -0.631  0.00  0.00    +0.021 C 
BRANCH  17  19
ATOM     18  C   UNL     1      -8.198  12.984   0.497  0.00  0.00    +0.004 C 
ATOM     19  C   UNL     1      -7.422  12.930  -0.820  0.00  0.00    -0.002 C 
ENDBRANCH  17  19
ENDBRANCH  16  17
ENDBRANCH   4  16
ENDBRANCH   1   6
BRANCH   1  20
ATOM     20  C   UNL     1      -3.263   7.221  -3.408  0.00  0.00    +0.149 C 
BRANCH  20  21
ATOM     21  C   UNL     1      -1.945   7.206  -4.139  0.00  0.00    -0.030 A 
ATOM     22  C   UNL     1      -1.495   8.348  -4.776  0.00  0.00    +0.005 A 
ATOM     23  C   UNL     1      -0.284   8.336  -5.442  0.00  0.00    +0.000 A 
ATOM     24  C   UNL     1       0.472   7.179  -5.481  0.00  0.00    +0.000 A 
ATOM     25  C   UNL     1       0.020   6.036  -4.848  0.00  0.00    +0.000 A 
ATOM     26  C   UNL     1      -1.188   6.050  -4.178  0.00  0.00    +0.005 A 
ENDBRANCH  20  21
ENDBRANCH   1  20
BRANCH   2  27
ATOM     27  C   UNL     1      -2.790   5.405  -1.279  0.00  0.00    +0.020 C 
BRANCH  27  37
ATOM     28  C   UNL     1      -1.487   5.105   0.739  0.00  0.00    -0.078 C 
ATOM     29  C   UNL     1      -1.336   4.244   1.996  0.00  0.00    -0.018 C 
ATOM     30  C   UNL     1      -2.580   4.406   2.874  0.00  0.00    +0.000 C 
ATOM     31  C   UNL     1      -3.819   4.013   2.064  0.00  0.00    -0.025 C 
ATOM     32  C   UNL     1      -3.899   4.885   0.809  0.00  0.00    -0.065 C 
ATOM     33  C   UNL     1      -5.131   4.490  -0.006  0.00  0.00    -0.015 C 
ATOM     34  C   UNL     1      -6.389   4.700   0.839  0.00  0.00    -0.002 C 
ATOM     35  C   UNL     1      -6.309   3.834   2.098  0.00  0.00    +0.000 C 
ATOM     36  C   UNL     1      -5.074   4.227   2.912  0.00  0.00    +0.002 C 
ATOM     37  N   UNL     1      -2.686   4.663  -0.006  0.00  0.00    +0.387 N 
ATOM     38  H   UNL     1      -2.600   3.661  -0.210  0.00  0.00    -0.081 HD
ENDBRANCH  27  37
ENDBRANCH   2  27
TORSDOF 9
