REMARK  Name = ZINC39636231
REMARK  8 active torsions:
REMARK  status: ('A' for Active; 'I' for Inactive)
REMARK    1  A    between atoms: C_1  and  O_2
REMARK    2  A    between atoms: O_2  and  C_3
REMARK    3  A    between atoms: C_8  and  C_9
REMARK    4  A    between atoms: C_9  and  C_10
REMARK    5  A    between atoms: C_10  and  N_11
REMARK    6  A    between atoms: C_12  and  C_14
REMARK    7  A    between atoms: C_25  and  C_27
REMARK    8  A    between atoms: C_33  and  C_35
REMARK                            x       y       z     vdW  Elec       q    Type
REMARK                         _______ _______ _______ _____ _____    ______ ____
ROOT
ATOM      1  C   UNL     1       3.676  -4.871   2.543  0.00  0.00    +0.100 C 
ATOM      2  C   UNL     1       3.387  -6.327   2.113  0.00  0.00    +0.121 C 
ATOM      3  N   UNL     1       4.294  -7.151   2.946  0.00  0.00    -0.299 N 
ATOM      4  C   UNL     1       4.270  -6.496   4.276  0.00  0.00    +0.115 C 
ATOM      5  C   UNL     1       4.255  -4.986   3.963  0.00  0.00    -0.004 C 
ATOM      6  C   UNL     1       3.363  -4.251   4.958  0.00  0.00    -0.010 C 
ATOM      7  C   UNL     1       3.989  -4.329   6.353  0.00  0.00    -0.082 C 
ATOM      8  N   UNL     1       5.327  -3.726   6.326  0.00  0.00    +0.379 N 
ATOM      9  C   UNL     1       6.205  -4.496   5.436  0.00  0.00    -0.082 C 
ATOM     10  C   UNL     1       5.673  -4.424   4.003  0.00  0.00    -0.010 C 
ATOM     11  C   UNL     1       4.986  -8.247   2.578  0.00  0.00    +0.236 C 
ATOM     12  O   UNL     1       5.693  -8.817   3.382  0.00  0.00    -0.274 OA
ATOM     13  H   UNL     1       5.260  -2.777   5.990  0.00  0.00    -0.086 HD
ATOM     14  H   UNL     1       5.713  -3.724   7.258  0.00  0.00    -0.086 HD
ENDROOT
BRANCH  11  15
ATOM     15  C   UNL     1       4.881  -8.766   1.167  0.00  0.00    +0.162 C 
ATOM     16  C   UNL     1       3.587  -9.591   1.005  0.00  0.00    +0.033 C 
ATOM     17  C   UNL     1       4.031 -10.758   0.085  0.00  0.00    +0.021 C 
ATOM     18  C   UNL     1       5.480 -11.005   0.573  0.00  0.00    +0.109 C 
ATOM     19  N   UNL     1       6.012  -9.660   0.877  0.00  0.00    -0.283 N 
ATOM     20  C   UNL     1       7.313  -9.310   0.888  0.00  0.00    +0.320 C 
ATOM     21  O   UNL     1       7.632  -8.170   1.154  0.00  0.00    -0.266 OA
BRANCH  20  22
ATOM     22  C   UNL     1       8.372 -10.334   0.570  0.00  0.00    +0.470 C 
ATOM     23  F   UNL     1       9.635  -9.738   0.645  0.00  0.00    -0.162 F 
ATOM     24  F   UNL     1       8.296 -11.384   1.492  0.00  0.00    -0.162 F 
ATOM     25  F   UNL     1       8.166 -10.832  -0.721  0.00  0.00    -0.162 F 
ENDBRANCH  20  22
ENDBRANCH  11  15
BRANCH   1  27
ATOM     26  N   UNL     1       2.442  -2.738   2.333  0.00  0.00    -0.315 N 
ATOM     27  C   UNL     1       2.402  -4.066   2.559  0.00  0.00    +0.218 C 
ATOM     28  O   UNL     1       1.342  -4.613   2.774  0.00  0.00    -0.275 OA
ATOM     29  H   UNL     1       3.290  -2.300   2.161  0.00  0.00    +0.149 HD
BRANCH  26  30
ATOM     30  C   UNL     1       1.204  -1.955   2.349  0.00  0.00    +0.109 C 
BRANCH  30  31
ATOM     31  C   UNL     1       1.526  -0.486   2.067  0.00  0.00    +0.057 C 
BRANCH  31  37
ATOM     32  C   UNL     1      -0.251   0.798   3.283  0.00  0.00    +0.123 A 
ATOM     33  C   UNL     1      -1.421   1.544   3.294  0.00  0.00    +0.046 A 
ATOM     34  C   UNL     1      -2.085   1.803   2.111  0.00  0.00    +0.004 A 
ATOM     35  C   UNL     1      -1.584   1.320   0.916  0.00  0.00    +0.000 A 
ATOM     36  C   UNL     1      -0.418   0.576   0.902  0.00  0.00    +0.007 A 
ATOM     37  C   UNL     1       0.252   0.319   2.083  0.00  0.00    -0.004 A 
BRANCH  32  39
ATOM     38  C   UNL     1      -0.173   1.067   5.644  0.00  0.00    +0.277 C 
ATOM     39  O   UNL     1       0.403   0.542   4.446  0.00  0.00    -0.495 OA
ENDBRANCH  32  39
ENDBRANCH  31  37
ENDBRANCH  30  31
ENDBRANCH  26  30
ENDBRANCH   1  27
TORSDOF 7
