REMARK  Name = ZINC00631036
REMARK  2 active torsions:
REMARK  status: ('A' for Active; 'I' for Inactive)
REMARK    1  A    between atoms: C_4  and  C_7
REMARK    2  A    between atoms: C_12  and  C_22
REMARK                            x       y       z     vdW  Elec       q    Type
REMARK                         _______ _______ _______ _____ _____    ______ ____
ROOT
ATOM      1  C   UNL     1       5.734  -1.397  -2.484  0.00  0.00    +0.032 C 
ATOM      2  C   UNL     1       5.423  -1.127  -1.013  0.00  0.00    +0.059 C 
ATOM      3  C   UNL     1       3.953  -1.394  -0.735  0.00  0.00    +0.017 C 
ATOM      4  C   UNL     1       3.291  -2.343  -1.419  0.00  0.00    +0.036 C 
ATOM      5  C   UNL     1       1.839  -2.715  -1.236  0.00  0.00    +0.136 C 
ATOM      6  N   UNL     1       1.216  -2.147  -0.060  0.00  0.00    -0.331 N 
ATOM      7  C   UNL     1       1.052  -0.769   0.069  0.00  0.00    +0.049 A 
ATOM      8  C   UNL     1      -0.205  -0.187   0.063  0.00  0.00    +0.025 A 
ATOM      9  C   UNL     1      -0.317   1.191   0.127  0.00  0.00    +0.002 A 
ATOM     10  C   UNL     1       0.815   1.984   0.180  0.00  0.00    +0.002 A 
ATOM     11  C   UNL     1       2.073   1.405   0.191  0.00  0.00    +0.025 A 
ATOM     12  C   UNL     1       2.185   0.026   0.155  0.00  0.00    +0.052 A 
ATOM     13  N   UNL     1       3.411  -0.623   0.242  0.00  0.00    -0.316 N 
ATOM     14  C   UNL     1       3.954  -3.096  -2.416  0.00  0.00    +0.163 C 
ATOM     15  O   UNL     1       3.337  -3.962  -3.005  0.00  0.00    -0.292 OA
ATOM     16  C   UNL     1       5.393  -2.864  -2.771  0.00  0.00    +0.088 C 
ATOM     17  H   UNL     1       0.907  -2.734   0.648  0.00  0.00    +0.147 HD
ATOM     18  H   UNL     1       3.917  -0.516   1.062  0.00  0.00    +0.152 HD
ENDROOT
BRANCH   5  19
ATOM     19  C   UNL     1       1.075  -2.254  -2.451  0.00  0.00    -0.021 A 
ATOM     20  C   UNL     1       0.490  -3.182  -3.293  0.00  0.00    +0.006 A 
ATOM     21  C   UNL     1      -0.215  -2.759  -4.404  0.00  0.00    +0.002 A 
ATOM     22  C   UNL     1      -0.326  -1.409  -4.681  0.00  0.00    +0.020 A 
ATOM     23  C   UNL     1       0.264  -0.481  -3.842  0.00  0.00    +0.041 A 
ATOM     24  C   UNL     1       0.965  -0.904  -2.726  0.00  0.00    +0.025 A 
ATOM     25 CL   UNL     1       0.125   1.214  -4.189  0.00  0.00    -0.084 Cl
ENDBRANCH   5  19
BRANCH   1  29
ATOM     26  C   UNL     1       9.880  -0.697  -3.239  0.00  0.00    +0.000 A 
ATOM     27  C   UNL     1       8.921   0.032  -3.917  0.00  0.00    +0.000 A 
ATOM     28  C   UNL     1       7.580  -0.194  -3.673  0.00  0.00    +0.004 A 
ATOM     29  C   UNL     1       7.197  -1.150  -2.750  0.00  0.00    -0.044 A 
ATOM     30  C   UNL     1       8.155  -1.875  -2.068  0.00  0.00    +0.004 A 
ATOM     31  C   UNL     1       9.497  -1.652  -2.316  0.00  0.00    +0.000 A 
ENDBRANCH   1  29
TORSDOF 2
