REMARK  Name = ZINC46808198
REMARK  6 active torsions:
REMARK  status: ('A' for Active; 'I' for Inactive)
REMARK    1  A    between atoms: C_4  and  C_7
REMARK    2  A    between atoms: C_7  and  C_9
REMARK    3  A    between atoms: C_7  and  N_18
REMARK    4  A    between atoms: C_9  and  N_10
REMARK    5  A    between atoms: N_21  and  N_22
REMARK    6  A    between atoms: N_22  and  C_23
REMARK                            x       y       z     vdW  Elec       q    Type
REMARK                         _______ _______ _______ _____ _____    ______ ____
ROOT
ATOM      1  C   UNL     1       3.711  -0.707  -0.038  0.00  0.00    +0.122 C 
ENDROOT
BRANCH   1   5
ATOM      2  C   UNL     1      -0.017   1.378   0.010  0.00  0.00    +0.000 A 
ATOM      3  C   UNL     1       1.171   2.086   0.002  0.00  0.00    +0.000 A 
ATOM      4  C   UNL     1       2.377   1.411  -0.013  0.00  0.00    +0.005 A 
ATOM      5  C   UNL     1       2.396   0.029  -0.020  0.00  0.00    -0.026 A 
ATOM      6  C   UNL     1       1.208  -0.679  -0.012  0.00  0.00    +0.005 A 
ATOM      7  C   UNL     1       0.002  -0.004   0.002  0.00  0.00    +0.000 A 
ENDBRANCH   1   5
BRANCH   1   8
ATOM      8  N   UNL     1       3.630  -1.873   0.845  0.00  0.00    -0.290 N 
ATOM      9  C   UNL     1       3.871  -1.738   2.164  0.00  0.00    +0.316 C 
ATOM     10  O   UNL     1       4.155  -0.648   2.622  0.00  0.00    -0.251 OA
ATOM     11  N   UNL     1       3.796  -2.811   2.977  0.00  0.00    -0.220 N 
ATOM     12  H   UNL     1       3.403  -2.743   0.480  0.00  0.00    +0.151 HD
ATOM     13  H   UNL     1       3.970  -2.713   3.926  0.00  0.00    +0.174 HD
BRANCH  11  14
ATOM     14  N   UNL     1       3.469  -4.067   2.450  0.00  0.00    -0.263 N 
ATOM     15  H   UNL     1       3.295  -4.164   1.500  0.00  0.00    +0.170 HD
BRANCH  14  16
ATOM     16  C   UNL     1       3.391  -5.180   3.292  0.00  0.00    +0.045 A 
ATOM     17  C   UNL     1       3.634  -5.040   4.653  0.00  0.00    +0.027 A 
ATOM     18  C   UNL     1       3.557  -6.141   5.483  0.00  0.00    +0.040 A 
ATOM     19  C   UNL     1       3.238  -7.383   4.961  0.00  0.00    +0.124 A 
ATOM     20  C   UNL     1       2.996  -7.525   3.605  0.00  0.00    +0.040 A 
ATOM     21  C   UNL     1       3.066  -6.426   2.771  0.00  0.00    +0.027 A 
ATOM     22  F   UNL     1       3.164  -8.459   5.775  0.00  0.00    -0.205 F 
ENDBRANCH  14  16
ENDBRANCH  11  14
ENDBRANCH   1   8
BRANCH   1  23
ATOM     23  C   UNL     1       4.019  -1.168  -1.464  0.00  0.00    +0.134 C 
BRANCH  23  24
ATOM     24  N   UNL     1       5.235  -1.984  -1.461  0.00  0.00    -0.299 N 
ATOM     25  C   UNL     1       6.548  -1.342  -1.641  0.00  0.00    +0.108 C 
ATOM     26  C   UNL     1       7.291  -1.365  -0.304  0.00  0.00    +0.019 C 
ATOM     27  C   UNL     1       8.053  -2.667  -0.132  0.00  0.00    +0.002 C 
ATOM     28  C   UNL     1       7.159  -3.885   0.014  0.00  0.00    +0.009 C 
ATOM     29  C   UNL     1       6.398  -4.157  -1.286  0.00  0.00    +0.096 C 
ATOM     30  C   UNL     1       5.147  -3.304  -1.291  0.00  0.00    +0.216 C 
ATOM     31  O   UNL     1       4.061  -3.823  -1.145  0.00  0.00    -0.276 OA
ENDBRANCH  23  24
ENDBRANCH   1  23
TORSDOF 6
