REMARK  Name = ZINC46439017
REMARK  6 active torsions:
REMARK  status: ('A' for Active; 'I' for Inactive)
REMARK    1  A    between atoms: C_3  and  O_9
REMARK    2  A    between atoms: C_6  and  C_7
REMARK    3  A    between atoms: O_9  and  C_10
REMARK    4  A    between atoms: C_10  and  C_11
REMARK    5  A    between atoms: N_13  and  N_14
REMARK    6  A    between atoms: N_17  and  C_18
REMARK                            x       y       z     vdW  Elec       q    Type
REMARK                         _______ _______ _______ _____ _____    ______ ____
ROOT
ATOM      1  N   UNL     1       8.287   2.665  -0.067  0.00  0.00    -0.218 N 
ATOM      2  C   UNL     1       9.540   2.169  -0.082  0.00  0.00    +0.316 C 
ATOM      3  O   UNL     1      10.493   2.924  -0.088  0.00  0.00    -0.251 OA
ATOM      4  N   UNL     1       9.737   0.836  -0.091  0.00  0.00    -0.293 N 
ATOM      5  H   UNL     1       8.146   3.624  -0.061  0.00  0.00    +0.174 HD
ATOM      6  H   UNL     1       8.977   0.233  -0.086  0.00  0.00    +0.151 HD
ENDROOT
BRANCH   4   7
ATOM      7  C   UNL     1      11.100   0.296  -0.107  0.00  0.00    +0.037 C 
ATOM      8  C   UNL     1      11.826   0.785  -1.362  0.00  0.00    +0.029 C 
ATOM      9  C   UNL     1      13.249   0.222  -1.379  0.00  0.00    -0.008 C 
ATOM     10  C   UNL     1      13.192  -1.307  -1.386  0.00  0.00    +0.007 C 
ATOM     11  C   UNL     1      12.465  -1.796  -0.132  0.00  0.00    -0.008 C 
ATOM     12  C   UNL     1      11.043  -1.233  -0.115  0.00  0.00    +0.029 C 
ATOM     13  C   UNL     1      13.217  -1.319   1.112  0.00  0.00    +0.007 C 
ATOM     14  C   UNL     1      13.274   0.210   1.119  0.00  0.00    -0.008 C 
ATOM     15  C   UNL     1      14.001   0.699  -0.135  0.00  0.00    +0.007 C 
ATOM     16  C   UNL     1      11.852   0.773   1.137  0.00  0.00    +0.029 C 
ENDBRANCH   4   7
BRANCH   1  19
ATOM     17  C   UNL     1       5.936   2.291  -0.045  0.00  0.00    +0.267 C 
ATOM     18  O   UNL     1       5.759   3.490  -0.037  0.00  0.00    -0.271 OA
ATOM     19  N   UNL     1       7.190   1.795  -0.060  0.00  0.00    -0.230 N 
ATOM     20  H   UNL     1       7.331   0.835  -0.067  0.00  0.00    +0.173 HD
BRANCH  17  21
ATOM     21  C   UNL     1       4.756   1.355  -0.038  0.00  0.00    +0.326 C 
BRANCH  21  22
ATOM     22  O   UNL     1       3.546   2.114  -0.022  0.00  0.00    -0.483 OA
BRANCH  22  25
ATOM     23  C   UNL     1      -0.017   1.393   0.010  0.00  0.00    +0.022 A 
ATOM     24  C   UNL     1       1.168   2.096   0.002  0.00  0.00    +0.047 A 
ATOM     25  C   UNL     1       2.380   1.418  -0.013  0.00  0.00    +0.121 A 
ATOM     26  C   UNL     1       2.404   0.028  -0.021  0.00  0.00    +0.047 A 
ATOM     27  C   UNL     1       1.224  -0.682  -0.013  0.00  0.00    +0.022 A 
ATOM     28  C   UNL     1       0.002  -0.004   0.002  0.00  0.00    +0.052 A 
BRANCH  28  29
ATOM     29  C   UNL     1      -1.227  -0.739   0.010  0.00  0.00    +0.099 C 
ATOM     30  N   UNL     1      -2.202  -1.322   0.017  0.00  0.00    -0.191 NA
ENDBRANCH  28  29
ENDBRANCH  22  25
ENDBRANCH  21  22
ENDBRANCH  17  21
ENDBRANCH   1  19
TORSDOF 6
