REMARK  Name = ZINC05275449
REMARK  4 active torsions:
REMARK  status: ('A' for Active; 'I' for Inactive)
REMARK    1  A    between atoms: C_1  and  C_2
REMARK    2  A    between atoms: C_4  and  C_19
REMARK    3  A    between atoms: C_13  and  O_15
REMARK    4  A    between atoms: C_24  and  O_25
REMARK                            x       y       z     vdW  Elec       q    Type
REMARK                         _______ _______ _______ _____ _____    ______ ____
ROOT
ATOM      1  C   UNL     1       0.347  -0.619  -1.273  0.00  0.00    +0.015 C 
ATOM      2  C   UNL     1      -0.069  -0.031   0.077  0.00  0.00    +0.066 C 
ATOM      3  C   UNL     1       0.273   1.461   0.117  0.00  0.00    +0.065 C 
ATOM      4  C   UNL     1       1.767   1.638   0.215  0.00  0.00    +0.006 A 
ATOM      5  C   UNL     1       2.313   2.872  -0.103  0.00  0.00    +0.057 A 
ATOM      6  C   UNL     1       3.679   3.075  -0.022  0.00  0.00    +0.167 A 
ATOM      7  C   UNL     1       4.511   2.033   0.383  0.00  0.00    +0.170 A 
ATOM      8  C   UNL     1       3.965   0.802   0.700  0.00  0.00    +0.095 A 
ATOM      9  C   UNL     1       2.591   0.601   0.615  0.00  0.00    +0.131 A 
ATOM     10  O   UNL     1       2.096  -0.625   0.932  0.00  0.00    -0.463 OA
ATOM     11  C   UNL     1       0.699  -0.731   1.206  0.00  0.00    +0.308 C 
ATOM     12  O   UNL     1       5.801   2.479   0.384  0.00  0.00    -0.452 OA
ATOM     13  C   UNL     1       5.711   3.916   0.370  0.00  0.00    +0.466 C 
ATOM     14  O   UNL     1       4.450   4.174  -0.276  0.00  0.00    -0.453 OA
ENDROOT
BRANCH   3  15
ATOM     15  C   UNL     1      -0.229   2.124  -1.140  0.00  0.00    +0.002 A 
ATOM     16  C   UNL     1       0.359   1.834  -2.357  0.00  0.00    +0.008 A 
ATOM     17  C   UNL     1      -0.101   2.442  -3.510  0.00  0.00    +0.001 A 
ATOM     18  C   UNL     1      -1.151   3.340  -3.450  0.00  0.00    +0.004 A 
ATOM     19  C   UNL     1      -1.741   3.634  -2.236  0.00  0.00    +0.046 A 
ATOM     20  C   UNL     1      -1.285   3.021  -1.078  0.00  0.00    +0.121 A 
BRANCH  20  21
ATOM     21  O   UNL     1      -1.868   3.303   0.117  0.00  0.00    -0.506 OA
ATOM     22  H   UNL     1      -1.466   4.048   0.585  0.00  0.00    +0.292 HD
ENDBRANCH  20  21
ENDBRANCH   3  15
BRANCH  11  23
ATOM     23  O   UNL     1       0.322  -2.108   1.262  0.00  0.00    -0.358 OA
ATOM     24  H   UNL     1       0.771  -2.611   1.955  0.00  0.00    +0.214 HD
ENDBRANCH  11  23
TORSDOF 3
