REMARK  Name = ZINC59720986
REMARK  7 active torsions:
REMARK  status: ('A' for Active; 'I' for Inactive)
REMARK    1  A    between atoms: C_6  and  N_7
REMARK    2  A    between atoms: N_7  and  C_8
REMARK    3  A    between atoms: C_8  and  C_9
REMARK    4  A    between atoms: N_11  and  N_12
REMARK    5  A    between atoms: C_13  and  C_14
REMARK    6  A    between atoms: C_17  and  C_19
REMARK    7  A    between atoms: C_21  and  N_26
REMARK                            x       y       z     vdW  Elec       q    Type
REMARK                         _______ _______ _______ _____ _____    ______ ____
ROOT
ATOM      1  N   UNL     1      -4.026  -4.485   0.018  0.00  0.00    -0.185 NA
ATOM      2  C   UNL     1      -4.249  -5.793   0.013  0.00  0.00    +0.176 C 
ENDROOT
BRANCH   2   3
ATOM      3  C   UNL     1      -5.551  -6.275   0.024  0.00  0.00    +0.148 A 
ATOM      4  C   UNL     1      -5.946  -7.691   0.026  0.00  0.00    +0.051 A 
ATOM      5  C   UNL     1      -7.303  -7.716   0.037  0.00  0.00    +0.050 A 
ATOM      6  C   UNL     1      -7.753  -6.325   0.042  0.00  0.00    +0.137 A 
ATOM      7  O   UNL     1      -6.672  -5.524   0.039  0.00  0.00    -0.454 OA
BRANCH   6   8
ATOM      8  C   UNL     1      -9.101  -5.893   0.052  0.00  0.00    +0.038 A 
ATOM      9  C   UNL     1      -9.530  -4.928   0.985  0.00  0.00    +0.045 A 
ATOM     10  C   UNL     1     -10.831  -4.517   0.988  0.00  0.00    +0.127 A 
ATOM     11  C   UNL     1     -11.737  -5.044   0.077  0.00  0.00    +0.034 A 
ATOM     12  C   UNL     1     -11.334  -5.994  -0.848  0.00  0.00    +0.023 A 
ATOM     13  C   UNL     1     -10.024  -6.421  -0.875  0.00  0.00    +0.052 A 
ATOM     14 CL   UNL     1      -9.514  -7.606  -2.037  0.00  0.00    -0.083 Cl
BRANCH  10  15
ATOM     15  N   UNL     1     -11.279  -3.503   1.968  0.00  0.00    +0.056 N 
ATOM     16  O   UNL     1     -10.424  -3.001   2.834  0.00  0.00    -0.126 OA
ATOM     17  O   UNL     1     -12.534  -3.103   1.975  0.00  0.00    -0.126 OA
ENDBRANCH  10  15
ENDBRANCH   6   8
ENDBRANCH   2   3
BRANCH   1  20
ATOM     18  C   UNL     1      -2.589  -2.708   0.013  0.00  0.00    +0.249 C 
ATOM     19  O   UNL     1      -3.519  -1.937   0.027  0.00  0.00    -0.272 OA
ATOM     20  N   UNL     1      -2.816  -4.037   0.008  0.00  0.00    -0.206 N 
ATOM     21  H   UNL     1      -2.070  -4.656  -0.002  0.00  0.00    +0.177 HD
BRANCH  18  22
ATOM     22  C   UNL     1      -1.176  -2.185   0.002  0.00  0.00    +0.199 C 
BRANCH  22  23
ATOM     23  N   UNL     1      -1.198  -0.720   0.010  0.00  0.00    -0.335 N 
ATOM     24  H   UNL     1      -2.045  -0.248   0.021  0.00  0.00    +0.147 HD
BRANCH  23  30
ATOM     25  C   UNL     1      -0.017   1.385   0.010  0.00  0.00    +0.024 A 
ATOM     26  C   UNL     1       1.171   2.090   0.002  0.00  0.00    +0.017 A 
ATOM     27  C   UNL     1       2.378   1.415  -0.013  0.00  0.00    +0.018 A 
ATOM     28  C   UNL     1       2.400   0.031  -0.021  0.00  0.00    +0.017 A 
ATOM     29  C   UNL     1       1.216  -0.679  -0.014  0.00  0.00    +0.024 A 
ATOM     30  C   UNL     1       0.002  -0.004   0.002  0.00  0.00    +0.028 A 
ATOM     31 BR   UNL     1       4.002   2.384  -0.025  0.00  0.00    -0.050 Br
ENDBRANCH  23  30
ENDBRANCH  22  23
ENDBRANCH  18  22
ENDBRANCH   1  20
TORSDOF 7
