REMARK  Name = ZINC22037629
REMARK  4 active torsions:
REMARK  status: ('A' for Active; 'I' for Inactive)
REMARK    1  A    between atoms: C_4  and  C_7
REMARK    2  A    between atoms: C_4  and  N_10
REMARK    3  A    between atoms: N_13  and  C_16
REMARK    4  A    between atoms: C_16  and  C_22
REMARK                            x       y       z     vdW  Elec       q    Type
REMARK                         _______ _______ _______ _____ _____    ______ ____
ROOT
ATOM      1  N   UNL     1       0.218   1.757   0.096  0.00  0.00    +0.391 N 
ATOM      2  C   UNL     1      -0.659   2.000  -1.058  0.00  0.00    -0.062 C 
ATOM      3  C   UNL     1      -0.970   3.496  -1.152  0.00  0.00    +0.067 C 
ATOM      4  N   UNL     1       0.286   4.248  -1.282  0.00  0.00    -0.293 NA
ATOM      5  C   UNL     1       1.163   4.005  -0.128  0.00  0.00    +0.067 C 
ATOM      6  C   UNL     1       1.474   2.509  -0.033  0.00  0.00    -0.062 C 
ATOM      7  H   UNL     1      -0.300   2.115   0.998  0.00  0.00    -0.080 HD
ENDROOT
BRANCH   1  11
ATOM      8  C   UNL     1       0.118  -2.455  -0.595  0.00  0.00    -0.000 C 
ATOM      9  C   UNL     1      -0.572  -1.911   0.657  0.00  0.00    -0.001 C 
ATOM     10  C   UNL     1      -0.844  -0.415   0.480  0.00  0.00    -0.003 C 
ATOM     11  C   UNL     1       0.479   0.322   0.266  0.00  0.00    +0.013 C 
ATOM     12  C   UNL     1       1.170  -0.223  -0.986  0.00  0.00    -0.003 C 
ATOM     13  C   UNL     1       1.442  -1.718  -0.809  0.00  0.00    -0.001 C 
BRANCH  11  14
ATOM     14  C   UNL     1       1.371   0.111   1.463  0.00  0.00    +0.200 C 
ATOM     15  O   UNL     1       2.267  -0.704   1.415  0.00  0.00    -0.278 OA
ATOM     16  N   UNL     1       1.172   0.830   2.586  0.00  0.00    -0.330 N 
ATOM     17  H   UNL     1       1.822   0.676   3.459  0.00  0.00    +0.145 HD
ATOM     18  H   UNL     1       0.359   1.569   2.629  0.00  0.00    +0.145 HD
ENDBRANCH  11  14
ENDBRANCH   1  11
BRANCH   4  19
ATOM     19  C   UNL     1       0.025   5.683  -1.452  0.00  0.00    +0.098 C 
ATOM     20  C   UNL     1      -0.729   6.213  -0.230  0.00  0.00    +0.032 C 
ATOM     21  C   UNL     1      -1.001   7.708  -0.407  0.00  0.00    +0.002 C 
ATOM     22  C   UNL     1      -1.847   7.927  -1.662  0.00  0.00    +0.000 C 
ATOM     23  C   UNL     1      -1.093   7.398  -2.884  0.00  0.00    +0.002 C 
ATOM     24  C   UNL     1      -0.821   5.903  -2.707  0.00  0.00    +0.032 C 
BRANCH  19  25
ATOM     25  C   UNL     1       1.333   6.419  -1.592  0.00  0.00    +0.231 C 
ATOM     26  O   UNL     1       1.491   7.486  -1.038  0.00  0.00    -0.274 OA
ATOM     27  N   UNL     1       2.326   5.890  -2.334  0.00  0.00    -0.328 N 
ATOM     28  H   UNL     1       3.281   6.427  -2.437  0.00  0.00    +0.145 HD
ATOM     29  H   UNL     1       2.183   4.922  -2.836  0.00  0.00    +0.145 HD
ENDBRANCH  19  25
ENDBRANCH   4  19
TORSDOF 4
