REMARK  Name = ZINC60812278
REMARK  7 active torsions:
REMARK  status: ('A' for Active; 'I' for Inactive)
REMARK    1  A    between atoms: C_1  and  C_2
REMARK    2  A    between atoms: C_2  and  C_3
REMARK    3  A    between atoms: C_3  and  C_4
REMARK    4  A    between atoms: C_4  and  C_28
REMARK    5  A    between atoms: N_7  and  C_11
REMARK    6  A    between atoms: C_11  and  C_12
REMARK    7  A    between atoms: N_14  and  C_15
REMARK                            x       y       z     vdW  Elec       q    Type
REMARK                         _______ _______ _______ _____ _____    ______ ____
ROOT
ATOM      1  C   UNL     1      -0.119  -3.085   5.461  0.00  0.00    +0.235 C 
ATOM      2  O   UNL     1      -0.467  -1.952   5.201  0.00  0.00    -0.274 OA
ATOM      3  N   UNL     1      -0.142  -3.521   6.736  0.00  0.00    -0.284 N 
ATOM      4  H   UNL     1       0.071  -4.446   6.936  0.00  0.00    +0.155 HD
ENDROOT
BRANCH   3   5
ATOM      5  C   UNL     1      -0.474  -2.638   7.772  0.00  0.00    +0.037 A 
ATOM      6  C   UNL     1       0.148  -2.754   9.008  0.00  0.00    +0.027 A 
ATOM      7  C   UNL     1      -0.177  -1.884  10.032  0.00  0.00    +0.051 A 
ATOM      8  C   UNL     1      -1.123  -0.896   9.827  0.00  0.00    +0.167 A 
ATOM      9  C   UNL     1      -1.749  -0.776   8.586  0.00  0.00    +0.169 A 
ATOM     10  C   UNL     1      -1.420  -1.644   7.561  0.00  0.00    +0.072 A 
ATOM     11  O   UNL     1      -2.631   0.272   8.648  0.00  0.00    -0.447 OA
ATOM     12  C   UNL     1      -2.872   0.436  10.052  0.00  0.00    +0.254 C 
ATOM     13  O   UNL     1      -1.621   0.078  10.655  0.00  0.00    -0.448 OA
ATOM     14  C   UNL     1      -4.005  -0.477  10.533  0.00  0.00    +0.093 C 
ATOM     15  C   UNL     1      -4.719   0.357  11.629  0.00  0.00    +0.008 C 
ATOM     16  C   UNL     1      -4.650   1.800  11.065  0.00  0.00    +0.008 C 
ATOM     17  C   UNL     1      -3.263   1.876  10.387  0.00  0.00    +0.093 C 
ENDBRANCH   3   5
BRANCH   1  18
ATOM     18  C   UNL     1       0.338  -4.005   4.358  0.00  0.00    +0.214 C 
BRANCH  18  22
ATOM     19  C   UNL     1       0.767  -2.045   1.233  0.00  0.00    +0.110 C 
ATOM     20  C   UNL     1       1.285  -2.583   2.552  0.00  0.00    +0.247 C 
ATOM     21  O   UNL     1       2.382  -2.404   3.036  0.00  0.00    -0.273 OA
ATOM     22  N   UNL     1       0.271  -3.300   3.075  0.00  0.00    -0.215 N 
ATOM     23  C   UNL     1      -0.803  -3.291   2.279  0.00  0.00    +0.310 C 
ATOM     24  O   UNL     1      -1.841  -3.868   2.537  0.00  0.00    -0.252 OA
ATOM     25  N   UNL     1      -0.606  -2.571   1.159  0.00  0.00    -0.285 N 
ATOM     26  C   UNL     1       1.608  -2.569   0.067  0.00  0.00    +0.041 C 
ATOM     27  H   UNL     1      -1.245  -2.427   0.443  0.00  0.00    +0.151 HD
BRANCH  19  28
ATOM     28  C   UNL     1       0.758  -0.515   1.242  0.00  0.00    +0.035 C 
BRANCH  28  30
ATOM     29  C   UNL     1       0.011   1.528   0.013  0.00  0.00    +0.004 C 
ATOM     30  C   UNL     1       0.021  -0.002   0.004  0.00  0.00    -0.001 C 
ENDBRANCH  28  30
ENDBRANCH  19  28
ENDBRANCH  18  22
ENDBRANCH   1  18
TORSDOF 5
