REMARK  Name = ZINC06195811
REMARK  12 active torsions:
REMARK  status: ('A' for Active; 'I' for Inactive)
REMARK    1  A    between atoms: C_1  and  C_2
REMARK    2  A    between atoms: C_5  and  C_38
REMARK    3  A    between atoms: C_6  and  N_8
REMARK    4  A    between atoms: C_13  and  C_15
REMARK    5  A    between atoms: C_13  and  C_29
REMARK    6  A    between atoms: C_13  and  N_74
REMARK    7  A    between atoms: C_19  and  C_28
REMARK    8  A    between atoms: C_20  and  C_27
REMARK    9  A    between atoms: N_33  and  C_34
REMARK   10  A    between atoms: C_34  and  C_35
REMARK   11  A    between atoms: C_34  and  C_36
REMARK   12  A    between atoms: C_34  and  C_37
REMARK                            x       y       z     vdW  Elec       q    Type
REMARK                         _______ _______ _______ _____ _____    ______ ____
ROOT
ATOM      1  C   UNL     1       5.183   6.935  -0.036  0.00  0.00    +0.039 C 
ENDROOT
BRANCH   1   2
ATOM      2  C   UNL     1       5.149   7.477   1.370  0.00  0.00    +0.011 A 
ATOM      3  C   UNL     1       6.222   7.315   2.182  0.00  0.00    +0.017 A 
ATOM      4  C   UNL     1       6.159   7.857   3.541  0.00  0.00    -0.001 A 
ATOM      5  C   UNL     1       7.237   7.725   4.423  0.00  0.00    +0.013 A 
ATOM      6  C   UNL     1       7.145   8.239   5.686  0.00  0.00    -0.047 A 
ATOM      7  C   UNL     1       5.991   8.890   6.101  0.00  0.00    -0.046 A 
ATOM      8  C   UNL     1       4.917   9.031   5.249  0.00  0.00    +0.030 A 
ATOM      9  C   UNL     1       4.988   8.516   3.959  0.00  0.00    +0.049 A 
ATOM     10  N   UNL     1       3.929   8.643   3.086  0.00  0.00    -0.322 N 
ATOM     11  H   UNL     1       3.122   9.097   3.375  0.00  0.00    +0.169 HD
ATOM     12  C   UNL     1       3.998   8.146   1.838  0.00  0.00    +0.251 A 
ATOM     13  O   UNL     1       3.042   8.277   1.093  0.00  0.00    -0.268 OA
ATOM     14  C   UNL     1       5.912   9.448   7.499  0.00  0.00    +0.044 C 
ATOM     15  C   UNL     1       8.306   8.097   6.636  0.00  0.00    +0.044 C 
ENDBRANCH   1   2
BRANCH   1  21
ATOM     16  N   UNL     1       2.752   3.528  -0.606  0.00  0.00    -0.333 N 
ATOM     17  C   UNL     1       2.628   4.258   0.663  0.00  0.00    +0.086 C 
ATOM     18  C   UNL     1       3.878   5.113   0.881  0.00  0.00    -0.058 C 
ATOM     19  C   UNL     1       4.158   5.314  -1.515  0.00  0.00    -0.058 C 
ATOM     20  C   UNL     1       2.908   4.458  -1.732  0.00  0.00    +0.086 C 
ATOM     21  N   UNL     1       4.011   6.059  -0.246  0.00  0.00    +0.391 N 
ATOM     22  H   UNL     1       3.165   6.639  -0.297  0.00  0.00    -0.080 HD
BRANCH  16  28
ATOM     23  C   UNL     1      -2.078   2.944  -1.302  0.00  0.00    +0.044 C 
ATOM     24  C   UNL     1      -0.694   2.369  -1.145  0.00  0.00    -0.049 A 
ATOM     25  C   UNL     1      -0.503   1.001  -1.204  0.00  0.00    +0.004 A 
ATOM     26  C   UNL     1       0.764   0.469  -1.055  0.00  0.00    +0.005 A 
ATOM     27  C   UNL     1       1.847   1.305  -0.858  0.00  0.00    -0.029 A 
ATOM     28  C   UNL     1       1.660   2.680  -0.805  0.00  0.00    +0.033 A 
ATOM     29  C   UNL     1       0.384   3.210  -0.950  0.00  0.00    +0.026 A 
ATOM     30  C   UNL     1       3.229   0.725  -0.703  0.00  0.00    +0.045 C 
ENDBRANCH  16  28
ENDBRANCH   1  21
BRANCH   1  31
ATOM     31  C   UNL     1       5.117   8.078  -1.016  0.00  0.00    +0.143 A 
ATOM     32  N   UNL     1       4.082   8.847  -1.253  0.00  0.00    -0.115 NA
ATOM     33  N   UNL     1       4.422   9.705  -2.152  0.00  0.00    -0.023 NA
ATOM     34  N   UNL     1       5.644   9.498  -2.501  0.00  0.00    -0.043 NA
ATOM     35  N   UNL     1       6.107   8.503  -1.823  0.00  0.00    -0.225 N 
BRANCH  35  36
ATOM     36  C   UNL     1       7.457   7.942  -1.913  0.00  0.00    +0.059 C 
ATOM     37  C   UNL     1       7.376   6.493  -2.397  0.00  0.00    +0.036 C 
ATOM     38  C   UNL     1       8.286   8.765  -2.901  0.00  0.00    +0.036 C 
ATOM     39  C   UNL     1       8.120   7.983  -0.534  0.00  0.00    +0.036 C 
ENDBRANCH  35  36
ENDBRANCH   1  31
TORSDOF 5
