REMARK  Name = ZINC12376245
REMARK  4 active torsions:
REMARK  status: ('A' for Active; 'I' for Inactive)
REMARK    1  A    between atoms: C_4  and  C_7
REMARK    2  A    between atoms: C_7  and  C_8
REMARK    3  A    between atoms: C_14  and  C_17
REMARK    4  A    between atoms: N_27  and  C_30
REMARK                            x       y       z     vdW  Elec       q    Type
REMARK                         _______ _______ _______ _____ _____    ______ ____
ROOT
ATOM      1  C   UNL     1       4.220  -0.928   1.363  0.00  0.00    +0.071 C 
ATOM      2  C   UNL     1       5.588  -1.640   1.409  0.00  0.00    +0.107 C 
ATOM      3  C   UNL     1       5.471  -2.650   2.583  0.00  0.00    +0.111 C 
ATOM      4  C   UNL     1       4.050  -2.441   3.144  0.00  0.00    +0.098 C 
ATOM      5  N   UNL     1       3.275  -1.880   1.999  0.00  0.00    -0.305 NA
ATOM      6  C   UNL     1       5.559  -3.994   1.896  0.00  0.00    +0.232 C 
ATOM      7  O   UNL     1       5.509  -5.070   2.453  0.00  0.00    -0.274 OA
ATOM      8  N   UNL     1       5.699  -3.811   0.578  0.00  0.00    -0.210 N 
ATOM      9  C   UNL     1       5.734  -2.517   0.186  0.00  0.00    +0.232 C 
ATOM     10  O   UNL     1       5.860  -2.117  -0.951  0.00  0.00    -0.274 OA
ATOM     11  H   UNL     1       2.446  -1.404   2.324  0.00  0.00    +0.123 HD
ENDROOT
BRANCH   4  12
ATOM     12  C   UNL     1       3.455  -3.759   3.569  0.00  0.00    -0.011 A 
ATOM     13  C   UNL     1       2.646  -4.465   2.699  0.00  0.00    +0.008 A 
ATOM     14  C   UNL     1       2.100  -5.674   3.088  0.00  0.00    +0.020 A 
ATOM     15  C   UNL     1       2.364  -6.178   4.349  0.00  0.00    +0.042 A 
ATOM     16  C   UNL     1       3.173  -5.472   5.221  0.00  0.00    +0.040 A 
ATOM     17  C   UNL     1       3.723  -4.265   4.829  0.00  0.00    +0.047 A 
ATOM     18 CL   UNL     1       4.745  -3.381   5.920  0.00  0.00    -0.083 Cl
ATOM     19 CL   UNL     1       1.677  -7.696   4.838  0.00  0.00    -0.083 Cl
ENDBRANCH   4  12
BRANCH   8  20
ATOM     20  C   UNL     1       5.807  -4.876  -0.328  0.00  0.00    +0.044 A 
ATOM     21  C   UNL     1       4.797  -5.110  -1.251  0.00  0.00    +0.024 A 
ATOM     22  C   UNL     1       4.907  -6.159  -2.142  0.00  0.00    +0.002 A 
ATOM     23  C   UNL     1       6.021  -6.977  -2.115  0.00  0.00    +0.000 A 
ATOM     24  C   UNL     1       7.029  -6.747  -1.197  0.00  0.00    +0.002 A 
ATOM     25  C   UNL     1       6.928  -5.695  -0.308  0.00  0.00    +0.024 A 
ENDBRANCH   8  20
BRANCH   1  26
ATOM     26  C   UNL     1       3.810  -0.656  -0.086  0.00  0.00    +0.054 C 
BRANCH  26  30
ATOM     27  C   UNL     1       0.136   1.523  -0.143  0.00  0.00    +0.000 A 
ATOM     28  C   UNL     1       1.341   2.200  -0.112  0.00  0.00    +0.000 A 
ATOM     29  C   UNL     1       2.530   1.495  -0.094  0.00  0.00    +0.004 A 
ATOM     30  C   UNL     1       2.514   0.113  -0.105  0.00  0.00    -0.046 A 
ATOM     31  C   UNL     1       1.309  -0.564  -0.134  0.00  0.00    +0.004 A 
ATOM     32  C   UNL     1       0.120   0.141  -0.154  0.00  0.00    +0.000 A 
ENDBRANCH  26  30
ENDBRANCH   1  26
TORSDOF 4
