REMARK  Name = ZINC18199075
REMARK  8 active torsions:
REMARK  status: ('A' for Active; 'I' for Inactive)
REMARK    1  A    between atoms: C_1  and  O_2
REMARK    2  A    between atoms: O_2  and  C_3
REMARK    3  A    between atoms: C_6  and  C_11
REMARK    4  A    between atoms: C_8  and  O_9
REMARK    5  A    between atoms: O_9  and  C_10
REMARK    6  A    between atoms: C_16  and  C_25
REMARK    7  A    between atoms: C_28  and  S_31
REMARK    8  A    between atoms: S_31  and  C_32
REMARK                            x       y       z     vdW  Elec       q    Type
REMARK                         _______ _______ _______ _____ _____    ______ ____
ROOT
ATOM      1  C   UNL     1       4.197   2.548   3.629  0.00  0.00    +0.032 C 
ATOM      2  C   UNL     1       5.139   2.548   2.423  0.00  0.00    +0.060 C 
ATOM      3  C   UNL     1       4.363   2.212   1.172  0.00  0.00    +0.020 C 
ATOM      4  C   UNL     1       3.283   1.403   1.221  0.00  0.00    +0.041 C 
ATOM      5  C   UNL     1       2.490   1.044  -0.017  0.00  0.00    +0.175 C 
ATOM      6  N   UNL     1       3.236   1.413  -1.212  0.00  0.00    -0.219 N 
ATOM      7  C   UNL     1       4.321   2.226  -1.194  0.00  0.00    +0.220 A 
ATOM      8  N   UNL     1       4.748   2.362  -2.419  0.00  0.00    -0.180 NA
ATOM      9  C   UNL     1       3.969   1.651  -3.246  0.00  0.00    +0.233 A 
ATOM     10  N   UNL     1       3.031   1.054  -2.544  0.00  0.00    -0.132 NA
ATOM     11  N   UNL     1       4.128   1.558  -4.630  0.00  0.00    -0.326 N 
ATOM     12  N   UNL     1       4.805   2.758  -0.009  0.00  0.00    -0.287 N 
ATOM     13  C   UNL     1       2.847   0.854   2.441  0.00  0.00    +0.164 C 
ATOM     14  O   UNL     1       1.883   0.114   2.449  0.00  0.00    -0.292 OA
ATOM     15  C   UNL     1       3.548   1.164   3.734  0.00  0.00    +0.088 C 
ATOM     16  H   UNL     1       4.851   2.033  -5.068  0.00  0.00    +0.145 HD
ATOM     17  H   UNL     1       3.515   1.019  -5.153  0.00  0.00    +0.145 HD
ATOM     18  H   UNL     1       5.437   3.494  -0.014  0.00  0.00    +0.155 HD
ENDROOT
BRANCH   1  22
ATOM     19  C   UNL     1       6.417   3.370   7.190  0.00  0.00    +0.161 A 
ATOM     20  C   UNL     1       6.741   2.275   6.406  0.00  0.00    +0.049 A 
ATOM     21  C   UNL     1       6.018   2.008   5.258  0.00  0.00    +0.008 A 
ATOM     22  C   UNL     1       4.978   2.839   4.884  0.00  0.00    -0.040 A 
ATOM     23  C   UNL     1       4.650   3.934   5.662  0.00  0.00    +0.053 A 
ATOM     24  C   UNL     1       5.367   4.203   6.817  0.00  0.00    +0.162 A 
BRANCH  19  26
ATOM     25  C   UNL     1       8.188   2.732   8.644  0.00  0.00    +0.277 C 
ATOM     26  O   UNL     1       7.124   3.630   8.323  0.00  0.00    -0.491 OA
ENDBRANCH  19  26
BRANCH  24  27
ATOM     27  O   UNL     1       5.046   5.280   7.583  0.00  0.00    -0.491 OA
ATOM     28  C   UNL     1       3.957   6.091   7.138  0.00  0.00    +0.277 C 
ENDBRANCH  24  27
ENDBRANCH   1  22
BRANCH   5  29
ATOM     29  C   UNL     1       1.176   1.783   0.000  0.00  0.00    -0.018 A 
ATOM     30  C   UNL     1      -0.013   1.076   0.008  0.00  0.00    +0.007 A 
ATOM     31  C   UNL     1      -1.218   1.749   0.017  0.00  0.00    +0.015 A 
ATOM     32  C   UNL     1      -1.236   3.139   0.031  0.00  0.00    +0.008 A 
ATOM     33  C   UNL     1      -0.040   3.846   0.023  0.00  0.00    +0.015 A 
ATOM     34  C   UNL     1       1.162   3.166   0.008  0.00  0.00    +0.007 A 
BRANCH  32  35
ATOM     35  S   UNL     1      -2.772   4.002   0.049  0.00  0.00    -0.129 S 
ATOM     36  C   UNL     1      -4.017   2.683   0.054  0.00  0.00    +0.090 C 
ENDBRANCH  32  35
ENDBRANCH   5  29
TORSDOF 5
