REMARK  Name = ZINC39957698
REMARK  10 active torsions:
REMARK  status: ('A' for Active; 'I' for Inactive)
REMARK    1  A    between atoms: C_1  and  C_2
REMARK    2  A    between atoms: C_2  and  C_3
REMARK    3  A    between atoms: C_3  and  C_4
REMARK    4  A    between atoms: C_4  and  N_5
REMARK    5  A    between atoms: N_5  and  C_6
REMARK    6  A    between atoms: C_14  and  C_16
REMARK    7  A    between atoms: C_16  and  S_17
REMARK    8  A    between atoms: S_17  and  C_18
REMARK    9  A    between atoms: C_22  and  C_27
REMARK   10  A    between atoms: N_23  and  C_24
REMARK                            x       y       z     vdW  Elec       q    Type
REMARK                         _______ _______ _______ _____ _____    ______ ____
ROOT
ATOM      1  C   UNL     1       0.797  -3.477  -7.686  0.00  0.00    +0.237 C 
ATOM      2  N   UNL     1       1.458  -4.779  -7.503  0.00  0.00    -0.237 N 
ATOM      3  N   UNL     1       2.833  -4.550  -7.636  0.00  0.00    -0.169 NA
ATOM      4  C   UNL     1       3.083  -3.290  -7.873  0.00  0.00    +0.147 C 
ATOM      5  N   UNL     1       1.904  -2.536  -7.927  0.00  0.00    -0.282 N 
ATOM      6  H   UNL     1       1.026  -5.630  -7.324  0.00  0.00    +0.171 HD
ENDROOT
BRANCH   4   7
ATOM      7  C   UNL     1       4.369  -2.759  -8.053  0.00  0.00    +0.022 C 
ATOM      8  C   UNL     1       5.572  -3.463  -8.107  0.00  0.00    +0.006 A 
ATOM      9  C   UNL     1       5.878  -4.837  -8.008  0.00  0.00    +0.010 A 
ATOM     10  C   UNL     1       7.169  -5.248  -8.100  0.00  0.00    +0.001 A 
ATOM     11  C   UNL     1       8.214  -4.341  -8.290  0.00  0.00    +0.002 A 
ATOM     12  C   UNL     1       7.993  -3.007  -8.394  0.00  0.00    +0.026 A 
ATOM     13  C   UNL     1       6.670  -2.503  -8.308  0.00  0.00    +0.043 A 
ATOM     14  N   UNL     1       6.199  -1.273  -8.378  0.00  0.00    -0.380 N 
ATOM     15  C   UNL     1       4.741  -1.304  -8.235  0.00  0.00    +0.152 C 
ATOM     16  H   UNL     1       6.734  -0.474  -8.507  0.00  0.00    +0.160 HD
ENDBRANCH   4   7
BRANCH   5  17
ATOM     17  C   UNL     1       1.791  -1.097  -8.173  0.00  0.00    +0.078 C 
ATOM     18  C   UNL     1       0.384  -0.502  -8.256  0.00  0.00    +0.024 C 
ATOM     19  C   UNL     1       1.261  -0.224  -7.033  0.00  0.00    +0.024 C 
ENDBRANCH   5  17
BRANCH   1  20
ATOM     20  S   UNL     1      -0.115  -3.013  -6.188  0.00  0.00    -0.109 S 
BRANCH  20  21
ATOM     21  C   UNL     1       1.143  -3.038  -4.882  0.00  0.00    +0.168 C 
BRANCH  21  23
ATOM     22  N   UNL     1       1.275  -2.519  -2.467  0.00  0.00    -0.296 N 
ATOM     23  C   UNL     1       0.510  -2.665  -3.566  0.00  0.00    +0.226 C 
ATOM     24  O   UNL     1      -0.689  -2.496  -3.497  0.00  0.00    -0.275 OA
BRANCH  22  25
ATOM     25  C   UNL     1       2.705  -2.832  -2.523  0.00  0.00    +0.098 C 
ATOM     26  C   UNL     1       3.514  -1.611  -2.055  0.00  0.00    +0.046 C 
ATOM     27  C   UNL     1       4.984  -2.063  -1.825  0.00  0.00    +0.168 C 
ATOM     28  S   UNL     1       4.712  -3.700  -1.024  0.00  0.00    -0.029 S 
ATOM     29  O   UNL     1       4.694  -3.528   0.386  0.00  0.00    -0.174 OA
ATOM     30  O   UNL     1       5.598  -4.650  -1.601  0.00  0.00    -0.174 OA
ATOM     31  C   UNL     1       3.003  -4.044  -1.607  0.00  0.00    +0.188 C 
ENDBRANCH  22  25
BRANCH  22  32
ATOM     32  C   UNL     1       0.677  -2.048  -1.215  0.00  0.00    +0.108 C 
BRANCH  32  33
ATOM     33  C   UNL     1       0.616  -0.519  -1.223  0.00  0.00    +0.019 C 
BRANCH  33  35
ATOM     34  C   UNL     1      -0.183   1.497   0.018  0.00  0.00    +0.004 C 
ATOM     35  C   UNL     1      -0.121  -0.032   0.026  0.00  0.00    -0.002 C 
ENDBRANCH  33  35
ENDBRANCH  32  33
ENDBRANCH  22  32
ENDBRANCH  21  23
ENDBRANCH  20  21
ENDBRANCH   1  20
TORSDOF 9
