REMARK  Name = ZINC09057404
REMARK  6 active torsions:
REMARK  status: ('A' for Active; 'I' for Inactive)
REMARK    1  A    between atoms: C_6  and  C_7
REMARK    2  A    between atoms: C_10  and  C_12
REMARK    3  A    between atoms: C_13  and  C_14
REMARK    4  A    between atoms: C_13  and  C_16
REMARK    5  A    between atoms: N_18  and  C_19
REMARK    6  A    between atoms: C_22  and  N_26
REMARK                            x       y       z     vdW  Elec       q    Type
REMARK                         _______ _______ _______ _____ _____    ______ ____
ROOT
ATOM      1  C   UNL     1       2.458   1.285   0.009  0.00  0.00    +0.070 C 
ATOM      2  C   UNL     1       1.246   1.963   0.018  0.00  0.00    +0.117 C 
ENDROOT
BRANCH   1   6
ATOM      3  C   UNL     1       5.089   3.678   0.023  0.00  0.00    +0.136 A 
ATOM      4  C   UNL     1       5.837   2.519   0.011  0.00  0.00    +0.050 A 
ATOM      5  C   UNL     1       4.939   1.453   0.010  0.00  0.00    +0.050 A 
ATOM      6  C   UNL     1       3.664   2.003   0.012  0.00  0.00    +0.130 A 
ATOM      7  O   UNL     1       3.786   3.348   0.024  0.00  0.00    -0.455 OA
BRANCH   3  13
ATOM      8  C   UNL     1       7.010   5.262   0.039  0.00  0.00    +0.012 A 
ATOM      9  C   UNL     1       7.508   6.548   0.044  0.00  0.00    +0.016 A 
ATOM     10  C   UNL     1       6.642   7.629   0.056  0.00  0.00    +0.018 A 
ATOM     11  C   UNL     1       5.272   7.427   0.057  0.00  0.00    +0.016 A 
ATOM     12  C   UNL     1       4.761   6.146   0.047  0.00  0.00    +0.012 A 
ATOM     13  C   UNL     1       5.629   5.051   0.034  0.00  0.00    +0.017 A 
ATOM     14 BR   UNL     1       7.334   9.389   0.072  0.00  0.00    -0.050 Br
ENDBRANCH   3  13
ENDBRANCH   1   6
BRANCH   2  15
ATOM     15  C   UNL     1      -0.015   1.212   0.015  0.00  0.00    +0.259 C 
ATOM     16  O   UNL     1       0.001  -0.004   0.004  0.00  0.00    -0.269 OA
ATOM     17  N   UNL     1      -1.191   1.871   0.018  0.00  0.00    -0.280 N 
ATOM     18  H   UNL     1      -1.205   2.838   0.092  0.00  0.00    +0.155 HD
BRANCH  17  19
ATOM     19  C   UNL     1      -2.391   1.160  -0.086  0.00  0.00    +0.052 A 
ATOM     20  C   UNL     1      -2.510  -0.094   0.499  0.00  0.00    +0.027 A 
ATOM     21  C   UNL     1      -3.696  -0.794   0.395  0.00  0.00    +0.034 A 
ATOM     22  C   UNL     1      -4.765  -0.247  -0.290  0.00  0.00    +0.128 A 
ATOM     23  C   UNL     1      -4.652   1.001  -0.874  0.00  0.00    +0.054 A 
ATOM     24  C   UNL     1      -3.469   1.709  -0.770  0.00  0.00    +0.064 A 
ATOM     25 CL   UNL     1      -3.329   3.279  -1.497  0.00  0.00    -0.082 Cl
BRANCH  22  26
ATOM     26  N   UNL     1      -6.035  -1.000  -0.399  0.00  0.00    +0.056 N 
ATOM     27  O   UNL     1      -6.137  -2.100   0.116  0.00  0.00    -0.126 OA
ATOM     28  O   UNL     1      -6.978  -0.520  -1.002  0.00  0.00    -0.126 OA
ENDBRANCH  22  26
ENDBRANCH  17  19
ENDBRANCH   2  15
BRANCH   2  29
ATOM     29  C   UNL     1       1.228   3.395   0.030  0.00  0.00    +0.104 C 
ATOM     30  N   UNL     1       1.212   4.531   0.040  0.00  0.00    -0.191 NA
ENDBRANCH   2  29
TORSDOF 6
