REMARK  Name = ZINC13501100
REMARK  9 active torsions:
REMARK  status: ('A' for Active; 'I' for Inactive)
REMARK    1  A    between atoms: C_1  and  C_2
REMARK    2  A    between atoms: C_2  and  C_3
REMARK    3  A    between atoms: C_3  and  C_5
REMARK    4  A    between atoms: C_3  and  N_66
REMARK    5  A    between atoms: N_9  and  C_10
REMARK    6  A    between atoms: C_15  and  C_16
REMARK    7  A    between atoms: C_15  and  N_66
REMARK    8  A    between atoms: C_22  and  C_28
REMARK    9  A    between atoms: C_29  and  N_66
REMARK                            x       y       z     vdW  Elec       q    Type
REMARK                         _______ _______ _______ _____ _____    ______ ____
ROOT
ATOM      1  N   UNL     1       1.475  -3.159   5.010  0.00  0.00    +0.391 N 
ATOM      2  H   UNL     1       2.139  -3.262   4.233  0.00  0.00    -0.080 HD
ENDROOT
BRANCH   1   3
ATOM      3  C   UNL     1       1.598  -1.795   5.567  0.00  0.00    -0.067 C 
ATOM      4  C   UNL     1       3.026  -1.587   6.112  0.00  0.00    -0.015 C 
ATOM      5  C   UNL     1       2.827  -0.706   7.371  0.00  0.00    -0.002 C 
ATOM      6  C   UNL     1       1.519  -1.270   7.980  0.00  0.00    -0.002 C 
ATOM      7  C   UNL     1       0.640  -1.593   6.754  0.00  0.00    -0.015 C 
ENDBRANCH   1   3
BRANCH   1   8
ATOM      8  C   UNL     1       1.794  -4.159   6.050  0.00  0.00    +0.003 C 
BRANCH   8   9
ATOM      9  C   UNL     1       0.596  -4.402   6.931  0.00  0.00    +0.138 A 
ATOM     10  N   UNL     1      -0.662  -4.397   6.562  0.00  0.00    -0.115 NA
ATOM     11  N   UNL     1      -1.383  -4.648   7.599  0.00  0.00    -0.023 NA
ATOM     12  N   UNL     1      -0.619  -4.805   8.623  0.00  0.00    -0.044 NA
ATOM     13  N   UNL     1       0.609  -4.662   8.252  0.00  0.00    -0.228 N 
BRANCH  13  14
ATOM     14  C   UNL     1       1.794  -4.762   9.107  0.00  0.00    +0.111 C 
ATOM     15  C   UNL     1       1.839  -6.146   9.787  0.00  0.00    +0.027 C 
ATOM     16  C   UNL     1       2.393  -5.855  11.205  0.00  0.00    +0.002 C 
ATOM     17  C   UNL     1       1.721  -4.506  11.564  0.00  0.00    +0.002 C 
ATOM     18  C   UNL     1       1.719  -3.719  10.237  0.00  0.00    +0.027 C 
ENDBRANCH  13  14
ENDBRANCH   8   9
BRANCH   8  20
ATOM     19  C   UNL     1       3.431  -5.227   4.494  0.00  0.00    +0.002 C 
ATOM     20  C   UNL     1       2.196  -5.466   5.364  0.00  0.00    -0.011 C 
ENDBRANCH   8  20
ENDBRANCH   1   8
BRANCH   1  21
ATOM     21  C   UNL     1       0.104  -3.376   4.503  0.00  0.00    -0.036 C 
BRANCH  21  22
ATOM     22  C   UNL     1      -0.026  -2.704   3.160  0.00  0.00    +0.001 A 
ATOM     23  C   UNL     1       0.195  -3.413   2.026  0.00  0.00    +0.017 A 
ATOM     24  C   UNL     1       0.061  -2.730   0.737  0.00  0.00    -0.001 A 
ATOM     25  C   UNL     1       0.277  -3.409  -0.467  0.00  0.00    +0.010 A 
ATOM     26  C   UNL     1       0.143  -2.744  -1.652  0.00  0.00    +0.001 A 
ATOM     27  C   UNL     1      -0.210  -1.401  -1.673  0.00  0.00    +0.005 A 
ATOM     28  C   UNL     1      -0.422  -0.711  -0.499  0.00  0.00    -0.026 A 
ATOM     29  C   UNL     1      -0.291  -1.368   0.721  0.00  0.00    +0.052 A 
ATOM     30  N   UNL     1      -0.503  -0.704   1.910  0.00  0.00    -0.322 N 
ATOM     31  H   UNL     1      -0.746   0.235   1.896  0.00  0.00    +0.169 HD
ATOM     32  C   UNL     1      -0.377  -1.339   3.088  0.00  0.00    +0.251 A 
ATOM     33  O   UNL     1      -0.572  -0.720   4.120  0.00  0.00    -0.268 OA
ATOM     34  C   UNL     1      -0.798   0.748  -0.536  0.00  0.00    +0.046 C 
ENDBRANCH  21  22
ENDBRANCH   1  21
TORSDOF 7
