REMARK  Name = ZINC51691336
REMARK  4 active torsions:
REMARK  status: ('A' for Active; 'I' for Inactive)
REMARK    1  A    between atoms: C_5  and  C_7
REMARK    2  A    between atoms: C_7  and  C_8
REMARK    3  A    between atoms: C_8  and  C_10
REMARK    4  A    between atoms: C_8  and  S_13
REMARK                            x       y       z     vdW  Elec       q    Type
REMARK                         _______ _______ _______ _____ _____    ______ ____
ROOT
ATOM      1  C   UNL     1      -0.690  -0.543  -1.252  0.00  0.00    +0.031 C 
ENDROOT
BRANCH   1   6
ATOM      2  C   UNL     1      -0.019   1.541   0.011  0.00  0.00    +0.034 C 
ATOM      3  C   UNL     1       1.474   1.937  -0.002  0.00  0.00    +0.160 C 
ATOM      4  O   UNL     1       2.163   0.795   0.553  0.00  0.00    -0.379 OA
ATOM      5  C   UNL     1       1.506  -0.359  -0.014  0.00  0.00    +0.163 C 
ATOM      6  C   UNL     1       0.002  -0.004   0.002  0.00  0.00    +0.018 C 
ENDBRANCH   1   6
BRANCH   1   7
ATOM      7  C   UNL     1      -0.766  -2.069  -1.177  0.00  0.00    +0.156 C 
BRANCH   7   8
ATOM      8  C   UNL     1      -1.554  -2.591  -2.350  0.00  0.00    +0.368 C 
ATOM      9  O   UNL     1      -0.976  -2.961  -3.357  0.00  0.00    -0.245 OA
ATOM     10  O   UNL     1      -2.771  -2.644  -2.292  0.00  0.00    -0.245 OA
ENDBRANCH   7   8
BRANCH   7  11
ATOM     11  S   UNL     1       0.910  -2.761  -1.218  0.00  0.00    -0.164 S 
ATOM     12  H   UNL     1       1.409  -2.336  -2.393  0.00  0.00    +0.102 HD
ENDBRANCH   7  11
ENDBRANCH   1   7
TORSDOF 4
