REMARK  Name = ZINC03263788
REMARK  6 active torsions:
REMARK  status: ('A' for Active; 'I' for Inactive)
REMARK    1  A    between atoms: C_1  and  C_2
REMARK    2  A    between atoms: C_5  and  N_9
REMARK    3  A    between atoms: C_6  and  C_8
REMARK    4  A    between atoms: N_9  and  C_10
REMARK    5  A    between atoms: C_11  and  C_12
REMARK    6  A    between atoms: C_11  and  C_14
REMARK                            x       y       z     vdW  Elec       q    Type
REMARK                         _______ _______ _______ _____ _____    ______ ____
ROOT
ATOM      1  N   UNL     1       2.405   1.124   0.004  0.00  0.00    -0.307 N 
ATOM      2  H   UNL     1       3.297   1.633  -0.390  0.00  0.00    +0.153 HD
ENDROOT
BRANCH   1   7
ATOM      3  C   UNL     1      -2.724   3.441  -0.698  0.00  0.00    +0.044 C 
ATOM      4  C   UNL     1      -1.362   2.825  -0.511  0.00  0.00    -0.050 A 
ATOM      5  C   UNL     1      -1.176   1.475  -0.749  0.00  0.00    +0.005 A 
ATOM      6  C   UNL     1       0.071   0.907  -0.574  0.00  0.00    +0.024 A 
ATOM      7  C   UNL     1       1.141   1.695  -0.169  0.00  0.00    +0.035 A 
ATOM      8  C   UNL     1       0.952   3.051   0.064  0.00  0.00    -0.029 A 
ATOM      9  C   UNL     1      -0.299   3.612  -0.108  0.00  0.00    +0.008 A 
ATOM     10  C   UNL     1       2.110   3.909   0.503  0.00  0.00    +0.045 C 
ENDBRANCH   1   7
BRANCH   1  11
ATOM     11  C   UNL     1       2.533  -0.067   0.662  0.00  0.00    +0.099 C 
ATOM     12  C   UNL     1       3.778  -0.700   0.728  0.00  0.00    +0.141 C 
ATOM     13  S   UNL     1       1.128  -0.806   1.428  0.00  0.00    -0.034 SA
BRANCH  12  14
ATOM     14  C   UNL     1       3.943  -1.906   1.536  0.00  0.00    +0.254 C 
ATOM     15  O   UNL     1       2.976  -2.417   2.072  0.00  0.00    -0.270 OA
ATOM     16  N   UNL     1       5.165  -2.453   1.688  0.00  0.00    -0.325 N 
ATOM     17  H   UNL     1       5.289  -3.361   2.297  0.00  0.00    +0.145 HD
ATOM     18  H   UNL     1       6.039  -1.992   1.204  0.00  0.00    +0.145 HD
ENDBRANCH  12  14
BRANCH  12  19
ATOM     19  C   UNL     1       4.892  -0.165   0.004  0.00  0.00    +0.107 C 
ATOM     20  N   UNL     1       5.776   0.259  -0.570  0.00  0.00    -0.191 NA
ENDBRANCH  12  19
ENDBRANCH   1  11
TORSDOF 4
