REMARK  Name = ZINC08590452
REMARK  9 active torsions:
REMARK  status: ('A' for Active; 'I' for Inactive)
REMARK    1  A    between atoms: C_1  and  C_2
REMARK    2  A    between atoms: C_13  and  S_15
REMARK    3  A    between atoms: S_15  and  C_16
REMARK    4  A    between atoms: C_16  and  C_17
REMARK    5  A    between atoms: C_22  and  C_25
REMARK    6  A    between atoms: C_28  and  C_31
REMARK    7  A    between atoms: C_31  and  C_32
REMARK    8  A    between atoms: C_31  and  C_33
REMARK    9  A    between atoms: C_31  and  C_34
REMARK                            x       y       z     vdW  Elec       q    Type
REMARK                         _______ _______ _______ _____ _____    ______ ____
ROOT
ATOM      1  C   UNL     1       0.059  -2.025   5.372  0.00  0.00    +0.230 C 
ATOM      2  O   UNL     1       0.075  -3.227   5.533  0.00  0.00    -0.274 OA
ATOM      3  N   UNL     1       0.053  -1.202   6.440  0.00  0.00    -0.253 N 
ATOM      4  C   UNL     1       0.067  -1.734   7.732  0.00  0.00    +0.230 A 
ATOM      5  N   UNL     1       0.057  -0.949   8.787  0.00  0.00    -0.205 NA
ATOM      6  C   UNL     1       0.071  -1.524   9.981  0.00  0.00    +0.130 A 
ATOM      7  S   UNL     1       0.098  -3.160   9.600  0.00  0.00    +0.035 S 
ATOM      8  N   UNL     1       0.085  -3.036   7.928  0.00  0.00    -0.174 NA
ATOM      9  H   UNL     1       0.040  -0.241   6.311  0.00  0.00    +0.158 HD
ENDROOT
BRANCH   6  10
ATOM     10  C   UNL     1       0.065  -0.885  11.315  0.00  0.00    +0.009 A 
ATOM     11  C   UNL     1       0.036   0.505  11.426  0.00  0.00    +0.011 A 
ATOM     12  C   UNL     1       0.030   1.095  12.673  0.00  0.00    +0.005 A 
ATOM     13  C   UNL     1       0.053   0.311  13.812  0.00  0.00    -0.042 A 
ATOM     14  C   UNL     1       0.083  -1.069  13.709  0.00  0.00    +0.005 A 
ATOM     15  C   UNL     1       0.083  -1.671  12.468  0.00  0.00    +0.011 A 
BRANCH  13  16
ATOM     16  C   UNL     1       0.047   0.962  15.172  0.00  0.00    -0.013 C 
ATOM     17  C   UNL     1      -1.220   1.805  15.327  0.00  0.00    +0.015 C 
ATOM     18  C   UNL     1       0.076  -0.119  16.255  0.00  0.00    +0.015 C 
ATOM     19  C   UNL     1       1.278   1.859  15.313  0.00  0.00    +0.015 C 
ENDBRANCH  13  16
ENDBRANCH   6  10
BRANCH   1  20
ATOM     20  C   UNL     1       0.044  -1.451   3.979  0.00  0.00    +0.172 C 
BRANCH  20  21
ATOM     21  S   UNL     1       0.055  -2.802   2.768  0.00  0.00    -0.096 S 
BRANCH  21  34
ATOM     22  C   UNL     1      -0.018   1.503   0.010  0.00  0.00    +0.088 C 
ATOM     23  C   UNL     1       0.002  -0.004   0.002  0.00  0.00    +0.128 A 
ATOM     24  N   UNL     1       0.005  -0.643  -1.153  0.00  0.00    -0.225 NA
ATOM     25  C   UNL     1       0.023  -1.961  -1.184  0.00  0.00    +0.113 A 
ATOM     26  C   UNL     1       0.039  -2.726  -0.001  0.00  0.00    +0.043 A 
ATOM     27  C   UNL     1       0.057  -4.179  -0.180  0.00  0.00    -0.025 A 
ATOM     28  C   UNL     1       0.056  -4.638  -1.448  0.00  0.00    -0.004 A 
ATOM     29  S   UNL     1       0.032  -3.187  -2.466  0.00  0.00    -0.073 S 
ATOM     30  C   UNL     1       0.072  -6.068  -1.895  0.00  0.00    +0.043 C 
ATOM     31  C   UNL     1       0.464  -6.946  -0.698  0.00  0.00    +0.005 C 
ATOM     32  C   UNL     1      -0.372  -6.525   0.514  0.00  0.00    +0.005 C 
ATOM     33  C   UNL     1       0.075  -5.146   1.000  0.00  0.00    +0.037 C 
ATOM     34  C   UNL     1       0.036  -1.979   1.210  0.00  0.00    +0.109 A 
ATOM     35  N   UNL     1       0.022  -0.656   1.150  0.00  0.00    -0.225 NA
ENDBRANCH  21  34
ENDBRANCH  20  21
ENDBRANCH   1  20
TORSDOF 5
