REMARK  Name = ZINC12349204
REMARK  4 active torsions:
REMARK  status: ('A' for Active; 'I' for Inactive)
REMARK    1  A    between atoms: C_2  and  C_3
REMARK    2  A    between atoms: C_3  and  O_4
REMARK    3  A    between atoms: O_4  and  C_5
REMARK    4  A    between atoms: C_8  and  C_11
REMARK                            x       y       z     vdW  Elec       q    Type
REMARK                         _______ _______ _______ _____ _____    ______ ____
ROOT
ATOM      1  C   UNL     1      -2.525   6.660   0.076  0.00  0.00    +0.178 C 
ATOM      2  C   UNL     1      -1.720   5.379   0.051  0.00  0.00    +0.050 C 
ATOM      3  C   UNL     1      -2.282   4.127   0.045  0.00  0.00    +0.051 C 
ATOM      4  C   UNL     1      -1.212   3.123   0.030  0.00  0.00    +0.007 A 
ATOM      5  C   UNL     1      -1.243   1.737   0.018  0.00  0.00    +0.010 A 
ATOM      6  C   UNL     1      -0.013   1.076   0.008  0.00  0.00    +0.001 A 
ATOM      7  C   UNL     1       1.181   1.759   0.000  0.00  0.00    +0.001 A 
ATOM      8  C   UNL     1       1.230   3.157   0.007  0.00  0.00    +0.012 A 
ATOM      9  C   UNL     1       0.020   3.825   0.023  0.00  0.00    +0.031 A 
ATOM     10  C   UNL     1      -0.312   5.266   0.035  0.00  0.00    +0.194 C 
ATOM     11  O   UNL     1       0.483   6.186   0.032  0.00  0.00    -0.287 OA
ATOM     12  N   UNL     1      -3.649   3.919   0.052  0.00  0.00    -0.282 N 
ATOM     13  C   UNL     1      -4.428   5.052  -0.155  0.00  0.00    +0.240 A 
ATOM     14  N   UNL     1      -3.927   6.313  -0.152  0.00  0.00    -0.201 N 
ATOM     15  N   UNL     1      -5.017   7.149  -0.400  0.00  0.00    -0.042 NA
ATOM     16  N   UNL     1      -6.050   6.380  -0.525  0.00  0.00    -0.021 NA
ATOM     17  N   UNL     1      -5.711   5.146  -0.381  0.00  0.00    -0.092 NA
ATOM     18  H   UNL     1      -4.038   3.042   0.192  0.00  0.00    +0.155 HD
ENDROOT
BRANCH   1  22
ATOM     19  C   UNL     1      -2.104   8.559   3.881  0.00  0.00    +0.121 A 
ATOM     20  C   UNL     1      -1.708   9.220   2.727  0.00  0.00    +0.046 A 
ATOM     21  C   UNL     1      -1.845   8.604   1.498  0.00  0.00    +0.009 A 
ATOM     22  C   UNL     1      -2.376   7.330   1.418  0.00  0.00    -0.018 A 
ATOM     23  C   UNL     1      -2.777   6.672   2.566  0.00  0.00    +0.009 A 
ATOM     24  C   UNL     1      -2.637   7.281   3.798  0.00  0.00    +0.046 A 
BRANCH  19  25
ATOM     25  O   UNL     1      -1.971   9.164   5.091  0.00  0.00    -0.488 OA
BRANCH  25  26
ATOM     26  C   UNL     1      -2.400   8.424   6.236  0.00  0.00    +0.256 C 
BRANCH  26  28
ATOM     27  C   UNL     1      -3.113   9.322   8.392  0.00  0.00    +0.007 C 
ATOM     28  C   UNL     1      -2.177   9.248   7.478  0.00  0.00    +0.006 C 
ENDBRANCH  26  28
ENDBRANCH  25  26
ENDBRANCH  19  25
ENDBRANCH   1  22
TORSDOF 4
