REMARK  Name = ZINC09419060
REMARK  7 active torsions:
REMARK  status: ('A' for Active; 'I' for Inactive)
REMARK    1  A    between atoms: C_1  and  S_2
REMARK    2  A    between atoms: S_2  and  N_5
REMARK    3  A    between atoms: C_6  and  C_18
REMARK    4  A    between atoms: C_9  and  C_11
REMARK    5  A    between atoms: C_16  and  O_17
REMARK    6  A    between atoms: N_20  and  C_29
REMARK    7  A    between atoms: C_22  and  C_23
REMARK                            x       y       z     vdW  Elec       q    Type
REMARK                         _______ _______ _______ _____ _____    ______ ____
ROOT
ATOM      1  N   UNL     1       2.071  -4.253  -0.043  0.00  0.00    -0.120 N 
ATOM      2  C   UNL     1       0.617  -4.478  -0.030  0.00  0.00    +0.157 C 
ATOM      3  C   UNL     1       0.031  -3.053  -0.016  0.00  0.00    +0.088 C 
ATOM      4  C   UNL     1       1.249  -2.158  -0.022  0.00  0.00    +0.074 C 
ATOM      5  N   UNL     1       2.315  -2.881  -0.042  0.00  0.00    -0.167 NA
ENDROOT
BRANCH   4   6
ATOM      6  C   UNL     1       1.222  -0.683  -0.013  0.00  0.00    +0.039 A 
ATOM      7  C   UNL     1       0.002  -0.004   0.002  0.00  0.00    +0.013 A 
ATOM      8  C   UNL     1      -0.017   1.375   0.010  0.00  0.00    +0.001 A 
ATOM      9  C   UNL     1       1.169   2.089   0.002  0.00  0.00    +0.004 A 
ATOM     10  C   UNL     1       2.383   1.428  -0.013  0.00  0.00    +0.046 A 
ATOM     11  C   UNL     1       2.420   0.043  -0.021  0.00  0.00    +0.126 A 
BRANCH  11  12
ATOM     12  O   UNL     1       3.612  -0.607  -0.036  0.00  0.00    -0.506 OA
ATOM     13  H   UNL     1       3.949  -0.790  -0.924  0.00  0.00    +0.292 HD
ENDBRANCH  11  12
ENDBRANCH   4   6
BRANCH   2  14
ATOM     14  C   UNL     1       0.208  -5.233   1.209  0.00  0.00    +0.022 A 
ATOM     15  C   UNL     1       0.930  -5.345   2.345  0.00  0.00    +0.120 A 
ATOM     16  N   UNL     1       0.215  -6.102   3.219  0.00  0.00    -0.239 N 
ATOM     17  N   UNL     1      -0.986  -6.465   2.596  0.00  0.00    -0.166 NA
ATOM     18  C   UNL     1      -0.997  -5.940   1.389  0.00  0.00    +0.098 A 
BRANCH  18  19
ATOM     19  C   UNL     1      -2.087  -6.072   0.391  0.00  0.00    +0.002 A 
ATOM     20  C   UNL     1      -2.385  -5.012  -0.463  0.00  0.00    +0.010 A 
ATOM     21  C   UNL     1      -3.398  -5.142  -1.392  0.00  0.00    +0.001 A 
ATOM     22  C   UNL     1      -4.122  -6.318  -1.470  0.00  0.00    +0.000 A 
ATOM     23  C   UNL     1      -3.833  -7.372  -0.621  0.00  0.00    +0.001 A 
ATOM     24  C   UNL     1      -2.820  -7.254   0.309  0.00  0.00    +0.010 A 
ENDBRANCH  18  19
BRANCH  16  25
ATOM     25  C   UNL     1       0.611  -6.456   4.516  0.00  0.00    +0.065 A 
ATOM     26  C   UNL     1       1.836  -6.031   5.010  0.00  0.00    +0.028 A 
ATOM     27  C   UNL     1       2.220  -6.377   6.291  0.00  0.00    +0.002 A 
ATOM     28  C   UNL     1       1.391  -7.156   7.076  0.00  0.00    +0.000 A 
ATOM     29  C   UNL     1       0.172  -7.586   6.585  0.00  0.00    +0.002 A 
ATOM     30  C   UNL     1      -0.220  -7.239   5.307  0.00  0.00    +0.028 A 
ENDBRANCH  16  25
ENDBRANCH   2  14
BRANCH   1  32
ATOM     31  C   UNL     1       3.648  -5.652  -1.813  0.00  0.00    +0.220 C 
ATOM     32  S   UNL     1       3.230  -5.437  -0.061  0.00  0.00    +0.057 S 
ATOM     33  O   UNL     1       4.332  -4.877   0.640  0.00  0.00    -0.154 OA
ATOM     34  O   UNL     1       2.571  -6.596   0.431  0.00  0.00    -0.154 OA
ENDBRANCH   1  32
TORSDOF 6
