REMARK  Name = ZINC21225576
REMARK  8 active torsions:
REMARK  status: ('A' for Active; 'I' for Inactive)
REMARK    1  A    between atoms: C_1  and  C_2
REMARK    2  A    between atoms: C_2  and  C_3
REMARK    3  A    between atoms: C_2  and  O_4
REMARK    4  A    between atoms: O_4  and  C_5
REMARK    5  A    between atoms: C_8  and  C_13
REMARK    6  A    between atoms: C_10  and  O_11
REMARK    7  A    between atoms: O_11  and  C_12
REMARK    8  A    between atoms: C_18  and  C_23
REMARK                            x       y       z     vdW  Elec       q    Type
REMARK                         _______ _______ _______ _____ _____    ______ ____
ROOT
ATOM      1  C   UNL     1      -0.956   0.180   0.171  0.00  0.00    +0.136 C 
ATOM      2  C   UNL     1       0.164   1.193   0.191  0.00  0.00    +0.036 C 
ATOM      3  C   UNL     1       1.479   0.913   0.203  0.00  0.00    +0.017 C 
ATOM      4  C   UNL     1       2.504   2.035   0.217  0.00  0.00    +0.059 C 
ATOM      5  C   UNL     1       1.952   3.235   0.985  0.00  0.00    +0.033 C 
ATOM      6  C   UNL     1       0.672   3.693   0.276  0.00  0.00    +0.088 C 
ATOM      7  C   UNL     1      -0.279   2.537   0.211  0.00  0.00    +0.163 C 
ATOM      8  O   UNL     1      -1.472   2.761   0.168  0.00  0.00    -0.292 OA
ATOM      9  N   UNL     1       2.004  -0.338   0.189  0.00  0.00    -0.316 N 
ATOM     10  C   UNL     1       1.578  -1.388   0.994  0.00  0.00    +0.052 A 
ATOM     11  C   UNL     1       2.390  -1.958   1.959  0.00  0.00    +0.025 A 
ATOM     12  C   UNL     1       1.919  -3.033   2.693  0.00  0.00    +0.002 A 
ATOM     13  C   UNL     1       0.651  -3.534   2.462  0.00  0.00    +0.002 A 
ATOM     14  C   UNL     1      -0.169  -2.954   1.509  0.00  0.00    +0.025 A 
ATOM     15  C   UNL     1       0.292  -1.864   0.788  0.00  0.00    +0.049 A 
ATOM     16  N   UNL     1      -0.535  -1.177  -0.100  0.00  0.00    -0.331 N 
ATOM     17  H   UNL     1       2.829  -0.580  -0.496  0.00  0.00    +0.152 HD
ATOM     18  H   UNL     1      -0.867  -1.684  -1.018  0.00  0.00    +0.147 HD
ENDROOT
BRANCH   5  19
ATOM     19  C   UNL     1       2.965   4.351   0.985  0.00  0.00    -0.025 A 
ATOM     20  C   UNL     1       3.393   4.895  -0.212  0.00  0.00    +0.005 A 
ATOM     21  C   UNL     1       4.322   5.919  -0.212  0.00  0.00    +0.000 A 
ATOM     22  C   UNL     1       4.822   6.400   0.983  0.00  0.00    +0.001 A 
ATOM     23  C   UNL     1       4.395   5.856   2.180  0.00  0.00    +0.020 A 
ATOM     24  C   UNL     1       3.462   4.835   2.181  0.00  0.00    +0.044 A 
ATOM     25 CL   UNL     1       2.918   4.157   3.684  0.00  0.00    -0.083 Cl
ENDBRANCH   5  19
BRANCH   1  29
ATOM     26  C   UNL     1      -2.914   0.257   3.972  0.00  0.00    +0.162 A 
ATOM     27  C   UNL     1      -1.593  -0.150   3.878  0.00  0.00    +0.050 A 
ATOM     28  C   UNL     1      -0.963  -0.174   2.648  0.00  0.00    +0.009 A 
ATOM     29  C   UNL     1      -1.648   0.208   1.509  0.00  0.00    -0.019 A 
ATOM     30  C   UNL     1      -2.965   0.621   1.597  0.00  0.00    +0.055 A 
ATOM     31  C   UNL     1      -3.604   0.642   2.826  0.00  0.00    +0.162 A 
BRANCH  31  32
ATOM     32  O   UNL     1      -4.901   1.042   2.913  0.00  0.00    -0.491 OA
ATOM     33  C   UNL     1      -5.545   1.423   1.695  0.00  0.00    +0.277 C 
ENDBRANCH  31  32
BRANCH  26  34
ATOM     34  O   UNL     1      -3.536   0.282   5.181  0.00  0.00    -0.486 OA
BRANCH  34  36
ATOM     35  C   UNL     1      -1.896   0.850   6.863  0.00  0.00    +0.051 C 
ATOM     36  C   UNL     1      -2.808  -0.239   6.295  0.00  0.00    +0.167 C 
ATOM     37  C   UNL     1      -3.789  -0.698   7.376  0.00  0.00    +0.051 C 
ENDBRANCH  34  36
ENDBRANCH  26  34
ENDBRANCH   1  29
TORSDOF 5
