REMARK  Name = ZINC39593082
REMARK  8 active torsions:
REMARK  status: ('A' for Active; 'I' for Inactive)
REMARK    1  A    between atoms: C_4  and  C_7
REMARK    2  A    between atoms: C_12  and  N_13
REMARK    3  A    between atoms: C_14  and  C_16
REMARK    4  A    between atoms: C_16  and  S_17
REMARK    5  A    between atoms: S_17  and  C_18
REMARK    6  A    between atoms: C_22  and  C_26
REMARK    7  A    between atoms: N_24  and  N_25
REMARK    8  A    between atoms: C_29  and  C_32
REMARK                            x       y       z     vdW  Elec       q    Type
REMARK                         _______ _______ _______ _____ _____    ______ ____
ROOT
ATOM      1  C   UNL     1       1.223  -5.404   5.587  0.00  0.00    +0.272 C 
ATOM      2  N   UNL     1       0.841  -4.243   6.402  0.00  0.00    -0.159 NA
ATOM      3  N   UNL     1      -0.383  -4.080   6.402  0.00  0.00    -0.167 NA
ATOM      4  C   UNL     1      -1.055  -5.100   5.587  0.00  0.00    +0.244 C 
ATOM      5  N   UNL     1       0.026  -5.697   4.759  0.00  0.00    -0.183 NA
ENDROOT
BRANCH   4   6
ATOM      6  C   UNL     1      -2.118  -4.455   4.696  0.00  0.00    +0.195 C 
ATOM      7  C   UNL     1      -3.149  -3.722   5.537  0.00  0.00    +0.035 C 
ATOM      8  C   UNL     1      -4.303  -4.358   5.258  0.00  0.00    +0.091 C 
ATOM      9  N   UNL     1      -4.088  -5.363   4.369  0.00  0.00    -0.154 NA
ATOM     10  N   UNL     1      -2.913  -5.484   4.006  0.00  0.00    -0.176 NA
BRANCH   8  11
ATOM     11  C   UNL     1      -5.623  -4.011   5.840  0.00  0.00    +0.002 A 
ATOM     12  C   UNL     1      -5.733  -2.954   6.743  0.00  0.00    +0.011 A 
ATOM     13  C   UNL     1      -6.963  -2.635   7.281  0.00  0.00    +0.020 A 
ATOM     14  C   UNL     1      -8.086  -3.363   6.927  0.00  0.00    +0.041 A 
ATOM     15  C   UNL     1      -7.982  -4.413   6.031  0.00  0.00    +0.020 A 
ATOM     16  C   UNL     1      -6.758  -4.736   5.482  0.00  0.00    +0.011 A 
ATOM     17 CL   UNL     1      -9.630  -2.957   7.609  0.00  0.00    -0.084 Cl
ENDBRANCH   8  11
ENDBRANCH   4   6
BRANCH   5  18
ATOM     18  N   UNL     1      -0.164  -7.131   4.606  0.00  0.00    -0.263 NA
ATOM     19  H   UNL     1       0.635  -7.556   4.161  0.00  0.00    +0.137 HD
ATOM     20  H   UNL     1      -0.356  -7.567   5.496  0.00  0.00    +0.137 HD
ENDBRANCH   5  18
BRANCH   1  21
ATOM     21  S   UNL     1       2.638  -4.995   4.529  0.00  0.00    -0.107 S 
BRANCH  21  22
ATOM     22  C   UNL     1       2.070  -3.565   3.569  0.00  0.00    +0.168 C 
BRANCH  22  24
ATOM     23  N   UNL     1       2.968  -2.064   1.819  0.00  0.00    -0.284 N 
ATOM     24  C   UNL     1       3.166  -3.118   2.636  0.00  0.00    +0.227 C 
ATOM     25  O   UNL     1       4.226  -3.707   2.621  0.00  0.00    -0.275 OA
ATOM     26  H   UNL     1       2.146  -1.553   1.877  0.00  0.00    +0.155 HD
BRANCH  23  32
ATOM     27  C   UNL     1       3.577  -1.201  -0.362  0.00  0.00    +0.003 A 
ATOM     28  C   UNL     1       4.562  -0.844  -1.280  0.00  0.00    +0.010 A 
ATOM     29  C   UNL     1       5.894  -0.997  -0.956  0.00  0.00    +0.001 A 
ATOM     30  C   UNL     1       6.258  -1.505   0.279  0.00  0.00    +0.002 A 
ATOM     31  C   UNL     1       5.291  -1.863   1.198  0.00  0.00    +0.024 A 
ATOM     32  C   UNL     1       3.948  -1.708   0.889  0.00  0.00    +0.041 A 
BRANCH  27  36
ATOM     33  C   UNL     1      -0.532  -0.735  -1.346  0.00  0.00    +0.000 A 
ATOM     34  C   UNL     1       0.345   0.317  -1.538  0.00  0.00    +0.001 A 
ATOM     35  C   UNL     1       1.681   0.171  -1.220  0.00  0.00    +0.008 A 
ATOM     36  C   UNL     1       2.144  -1.038  -0.705  0.00  0.00    -0.016 A 
ATOM     37  C   UNL     1       1.255  -2.095  -0.514  0.00  0.00    +0.008 A 
ATOM     38  C   UNL     1      -0.078  -1.938  -0.836  0.00  0.00    +0.001 A 
ENDBRANCH  27  36
ENDBRANCH  23  32
ENDBRANCH  22  24
ENDBRANCH  21  22
ENDBRANCH   1  21
TORSDOF 8
