REMARK  Name = ZINC00623039
REMARK  9 active torsions:
REMARK  status: ('A' for Active; 'I' for Inactive)
REMARK    1  A    between atoms: C_1  and  O_2
REMARK    2  A    between atoms: O_2  and  C_3
REMARK    3  A    between atoms: C_5  and  C_17
REMARK    4  A    between atoms: C_8  and  O_9
REMARK    5  A    between atoms: O_9  and  C_10
REMARK    6  A    between atoms: C_10  and  C_11
REMARK    7  A    between atoms: C_20  and  C_31
REMARK    8  A    between atoms: C_26  and  N_30
REMARK    9  A    between atoms: C_27  and  C_28
REMARK                            x       y       z     vdW  Elec       q    Type
REMARK                         _______ _______ _______ _____ _____    ______ ____
ROOT
ATOM      1  C   UNL     1      -4.871   0.257   0.037  0.00  0.00    +0.102 C 
ATOM      2  C   UNL     1      -5.695  -0.081  -1.178  0.00  0.00    +0.054 A 
ATOM      3  C   UNL     1      -5.479   0.261  -2.516  0.00  0.00    +0.100 A 
ATOM      4  N   UNL     1      -6.460  -0.256  -3.231  0.00  0.00    -0.171 NA
ATOM      5  N   UNL     1      -7.327  -0.940  -2.364  0.00  0.00    -0.246 N 
ATOM      6  H   UNL     1      -8.132  -1.415  -2.620  0.00  0.00    +0.192 HD
ATOM      7  C   UNL     1      -6.841  -0.820  -1.111  0.00  0.00    +0.223 A 
ATOM      8  O   UNL     1      -7.330  -1.306   0.057  0.00  0.00    -0.423 OA
ATOM      9  C   UNL     1      -6.813  -0.819   1.203  0.00  0.00    +0.200 C 
ATOM     10  C   UNL     1      -5.679  -0.085   1.265  0.00  0.00    +0.098 C 
ENDROOT
BRANCH   3  11
ATOM     11  C   UNL     1      -4.346   1.063  -3.041  0.00  0.00    +0.003 A 
ATOM     12  C   UNL     1      -3.818   2.105  -2.282  0.00  0.00    +0.011 A 
ATOM     13  C   UNL     1      -2.764   2.848  -2.773  0.00  0.00    +0.020 A 
ATOM     14  C   UNL     1      -2.232   2.560  -4.018  0.00  0.00    +0.041 A 
ATOM     15  C   UNL     1      -2.753   1.525  -4.776  0.00  0.00    +0.020 A 
ATOM     16  C   UNL     1      -3.803   0.773  -4.291  0.00  0.00    +0.011 A 
ATOM     17 CL   UNL     1      -0.907   3.499  -4.632  0.00  0.00    -0.084 Cl
ENDBRANCH   3  11
BRANCH   1  20
ATOM     18  C   UNL     1      -1.201  -0.638   0.010  0.00  0.00    +0.162 A 
ATOM     19  C   UNL     1      -2.374   0.099   0.019  0.00  0.00    +0.054 A 
ATOM     20  C   UNL     1      -3.596  -0.546   0.027  0.00  0.00    -0.031 A 
ATOM     21  C   UNL     1      -3.652  -1.928   0.026  0.00  0.00    +0.008 A 
ATOM     22  C   UNL     1      -2.485  -2.669   0.017  0.00  0.00    +0.050 A 
ATOM     23  C   UNL     1      -1.257  -2.028   0.003  0.00  0.00    +0.162 A 
BRANCH  18  25
ATOM     24  C   UNL     1      -0.017   1.425   0.010  0.00  0.00    +0.277 C 
ATOM     25  O   UNL     1       0.002  -0.004   0.002  0.00  0.00    -0.491 OA
ENDBRANCH  18  25
BRANCH  23  26
ATOM     26  O   UNL     1      -0.108  -2.756  -0.012  0.00  0.00    -0.484 OA
BRANCH  26  27
ATOM     27  C   UNL     1      -0.242  -4.179  -0.018  0.00  0.00    +0.264 C 
BRANCH  27  28
ATOM     28  C   UNL     1       1.125  -4.812  -0.034  0.00  0.00    -0.010 A 
ATOM     29  C   UNL     1       1.744  -5.091  -1.239  0.00  0.00    +0.007 A 
ATOM     30  C   UNL     1       2.998  -5.671  -1.254  0.00  0.00    +0.000 A 
ATOM     31  C   UNL     1       3.635  -5.973  -0.064  0.00  0.00    +0.000 A 
ATOM     32  C   UNL     1       3.017  -5.693   1.140  0.00  0.00    +0.000 A 
ATOM     33  C   UNL     1       1.764  -5.109   1.155  0.00  0.00    +0.007 A 
ENDBRANCH  27  28
ENDBRANCH  26  27
ENDBRANCH  23  26
ENDBRANCH   1  20
BRANCH   9  34
ATOM     34  N   UNL     1      -7.477  -1.082   2.376  0.00  0.00    -0.328 N 
ATOM     35  H   UNL     1      -8.293  -1.606   2.364  0.00  0.00    +0.145 HD
ATOM     36  H   UNL     1      -7.129  -0.745   3.216  0.00  0.00    +0.145 HD
ENDBRANCH   9  34
BRANCH  10  37
ATOM     37  C   UNL     1      -5.227   0.384   2.540  0.00  0.00    +0.101 C 
ATOM     38  N   UNL     1      -4.869   0.756   3.552  0.00  0.00    -0.191 NA
ENDBRANCH  10  37
TORSDOF 8
