REMARK  Name = ZINC06824335
REMARK  3 active torsions:
REMARK  status: ('A' for Active; 'I' for Inactive)
REMARK    1  A    between atoms: C_1  and  C_2
REMARK    2  A    between atoms: C_4  and  C_13
REMARK    3  A    between atoms: C_23  and  C_26
REMARK                            x       y       z     vdW  Elec       q    Type
REMARK                         _______ _______ _______ _____ _____    ______ ____
ROOT
ATOM      1  C   UNL     1       4.794   3.877  -0.360  0.00  0.00    +0.027 C 
ATOM      2  C   UNL     1       5.929   3.161  -0.611  0.00  0.00    +0.079 C 
ATOM      3  C   UNL     1       6.089   1.740  -0.988  0.00  0.00    +0.276 C 
ATOM      4  O   UNL     1       5.128   0.998  -1.124  0.00  0.00    -0.267 OA
ATOM      5  N   UNL     1       7.321   1.319  -1.173  0.00  0.00    -0.154 NA
ATOM      6  C   UNL     1       8.371   2.110  -1.021  0.00  0.00    +0.154 C 
ATOM      7  S   UNL     1       7.641   3.676  -0.568  0.00  0.00    -0.052 S 
ATOM      8  N   UNL     1       9.698   1.802  -1.174  0.00  0.00    -0.311 N 
ATOM      9  C   UNL     1      10.733   2.825  -0.966  0.00  0.00    +0.107 C 
ATOM     10  C   UNL     1      11.751   2.290   0.053  0.00  0.00    +0.032 C 
ATOM     11  C   UNL     1      12.289   0.941  -0.432  0.00  0.00    +0.078 C 
ATOM     12  C   UNL     1      11.137  -0.062  -0.535  0.00  0.00    +0.032 C 
ATOM     13  C   UNL     1      10.113   0.445  -1.554  0.00  0.00    +0.107 C 
ENDROOT
BRANCH   1  16
ATOM     14  C   UNL     1       2.688   1.902   1.284  0.00  0.00    +0.057 C 
ATOM     15  C   UNL     1       2.523   3.226   0.534  0.00  0.00    +0.201 C 
ATOM     16  C   UNL     1       3.532   3.295  -0.582  0.00  0.00    -0.006 C 
ATOM     17  C   UNL     1       3.216   2.792  -1.808  0.00  0.00    +0.018 C 
ATOM     18  C   UNL     1       1.876   2.215  -1.988  0.00  0.00    +0.017 A 
ATOM     19  C   UNL     1       1.577   1.393  -3.075  0.00  0.00    +0.011 A 
ATOM     20  C   UNL     1       0.307   0.871  -3.203  0.00  0.00    +0.001 A 
ATOM     21  C   UNL     1      -0.666   1.157  -2.258  0.00  0.00    +0.004 A 
ATOM     22  C   UNL     1      -0.383   1.976  -1.180  0.00  0.00    +0.046 A 
ATOM     23  C   UNL     1       0.885   2.508  -1.034  0.00  0.00    +0.128 A 
ATOM     24  O   UNL     1       1.196   3.311   0.014  0.00  0.00    -0.484 OA
ENDBRANCH   1  16
BRANCH  11  25
ATOM     25  C   UNL     1      13.315   0.429   0.545  0.00  0.00    +0.214 C 
ATOM     26  O   UNL     1      13.143  -0.633   1.104  0.00  0.00    -0.276 OA
ATOM     27  N   UNL     1      14.424   1.152   0.797  0.00  0.00    -0.329 N 
ATOM     28  H   UNL     1      14.562   2.002   0.350  0.00  0.00    +0.145 HD
ATOM     29  H   UNL     1      15.085   0.823   1.426  0.00  0.00    +0.145 HD
ENDBRANCH  11  25
TORSDOF 2
