REMARK  Name = ZINC15954310
REMARK  14 active torsions:
REMARK  status: ('A' for Active; 'I' for Inactive)
REMARK    1  A    between atoms: CD1_1  and  CG1_2
REMARK    2  A    between atoms: CG1_2  and  CB_3
REMARK    3  A    between atoms: CB_3  and  CG2_5
REMARK    4  A    between atoms: CB_3  and  CA_6
REMARK    5  A    between atoms: CA_6  and  C_8
REMARK    6  A    between atoms: CA_6  and  N_10
REMARK    7  A    between atoms: C_11  and  C_13
REMARK    8  A    between atoms: C_13  and  N_14
REMARK    9  A    between atoms: C_15  and  C_17
REMARK   10  A    between atoms: C_17  and  C_18
REMARK   11  A    between atoms: C_18  and  C_19
REMARK   12  A    between atoms: C_20  and  C_35
REMARK   13  A    between atoms: C_24  and  C_34
REMARK   14  A    between atoms: C_25  and  C_33
REMARK                            x       y       z     vdW  Elec       q    Type
REMARK                         _______ _______ _______ _____ _____    ______ ____
ROOT
ATOM      1  C   UNK A   0      -1.993   7.776   8.419  0.00  0.00    +0.100 C 
ENDROOT
BRANCH   1   3
ATOM      2  N   UNK A   0      -1.861   6.582   6.256  0.00  0.00    -0.307 N 
ATOM      3  C   UNK A   0      -1.967   7.755   6.912  0.00  0.00    +0.214 C 
ATOM      4  O   UNK A   0      -2.041   8.793   6.290  0.00  0.00    -0.276 OA
ATOM      5  H   UNK A   0      -1.801   5.752   6.754  0.00  0.00    +0.149 HD
BRANCH   2   6
ATOM      6  C   UNK A   0      -1.835   6.562   4.792  0.00  0.00    +0.200 C 
BRANCH   6   8
ATOM      7  N   ILE A   1      -1.668   4.875   2.990  0.00  0.00    -0.301 N 
ATOM      8  C   UNK A   0      -1.711   5.139   4.311  0.00  0.00    +0.231 C 
ATOM      9  O   UNK A   0      -1.651   4.231   5.114  0.00  0.00    -0.274 OA
ATOM     10  H   ILE A   1      -1.716   5.601   2.349  0.00  0.00    +0.150 HD
BRANCH   7  11
ATOM     11  CA  ILE A   1      -1.547   3.491   2.523  0.00  0.00    +0.189 C 
BRANCH  11  12
ATOM     12  C   ILE A   1      -2.916   2.863   2.457  0.00  0.00    +0.376 C 
ATOM     13  O   ILE A   1      -3.898   3.562   2.373  0.00  0.00    -0.244 OA
ATOM     14  OXT ILE A   1      -3.043   1.527   2.492  0.00  0.00    -0.244 OA
ENDBRANCH  11  12
BRANCH  11  15
ATOM     15  CB  ILE A   1      -0.911   3.476   1.132  0.00  0.00    +0.017 C 
ATOM     16  CG2 ILE A   1      -1.777   4.289   0.167  0.00  0.00    +0.010 C 
BRANCH  15  18
ATOM     17  CD1 ILE A   1       1.179   3.947  -0.153  0.00  0.00    +0.004 C 
ATOM     18  CG1 ILE A   1       0.487   4.092   1.204  0.00  0.00    +0.002 C 
ENDBRANCH  15  18
ENDBRANCH  11  15
ENDBRANCH   7  11
ENDBRANCH   6   8
ENDBRANCH   2   6
ENDBRANCH   1   3
BRANCH   1  19
ATOM     19  C   UNK A   0      -2.119   9.221   8.906  0.00  0.00    +0.052 C 
BRANCH  19  20
ATOM     20  C   UNK A   0      -2.146   9.242  10.413  0.00  0.00    +0.041 A 
ATOM     21  C   UNK A   0      -0.987   9.347  11.113  0.00  0.00    -0.030 A 
ATOM     22  C   UNK A   0      -1.061   9.363  12.577  0.00  0.00    +0.022 A 
ATOM     23  C   UNK A   0       0.096   9.468  13.349  0.00  0.00    +0.023 A 
ATOM     24  C   UNK A   0      -0.009   9.480  14.732  0.00  0.00    +0.024 A 
ATOM     25  C   UNK A   0       0.964   9.574  15.831  0.00  0.00    -0.002 A 
ATOM     26  C   UNK A   0       0.252   9.533  16.963  0.00  0.00    +0.106 A 
ATOM     27  O   UNK A   0      -1.060   9.424  16.686  0.00  0.00    -0.460 OA
ATOM     28  C   UNK A   0      -1.270   9.387  15.354  0.00  0.00    +0.139 A 
ATOM     29  C   UNK A   0      -2.417   9.284  14.580  0.00  0.00    +0.093 A 
ATOM     30  C   UNK A   0      -2.323   9.270  13.199  0.00  0.00    +0.143 A 
ATOM     31  O   UNK A   0      -3.438   9.168  12.440  0.00  0.00    -0.422 OA
ATOM     32  C   UNK A   0      -3.375   9.159  11.100  0.00  0.00    +0.341 A 
ATOM     33  O   UNK A   0      -4.407   9.071  10.460  0.00  0.00    -0.245 OA
ATOM     34  C   UNK A   0       0.836   9.600  18.351  0.00  0.00    +0.086 C 
ATOM     35  C   UNK A   0       2.461   9.693  15.706  0.00  0.00    +0.048 C 
ATOM     36  C   UNK A   0       0.339   9.444  10.404  0.00  0.00    +0.045 C 
ENDBRANCH  19  20
ENDBRANCH   1  19
TORSDOF 9
