REMARK  Name = ZINC06555279
REMARK  9 active torsions:
REMARK  status: ('A' for Active; 'I' for Inactive)
REMARK    1  A    between atoms: C_1  and  C_2
REMARK    2  A    between atoms: C_2  and  C_3
REMARK    3  A    between atoms: C_3  and  C_5
REMARK    4  A    between atoms: C_3  and  N_17
REMARK    5  A    between atoms: C_8  and  C_13
REMARK    6  A    between atoms: C_8  and  O_16
REMARK    7  A    between atoms: C_10  and  C_12
REMARK    8  A    between atoms: C_18  and  C_24
REMARK    9  A    between atoms: C_20  and  C_22
REMARK                            x       y       z     vdW  Elec       q    Type
REMARK                         _______ _______ _______ _____ _____    ______ ____
ROOT
ATOM      1  C   UNL     1      -2.895   3.023  -1.217  0.00  0.00    +0.262 C 
ATOM      2  O   UNL     1      -2.913   3.036  -2.429  0.00  0.00    -0.271 OA
ATOM      3  N   UNL     1      -1.916   2.365  -0.565  0.00  0.00    -0.154 N 
ATOM      4  C   UNL     1      -0.812   1.623  -1.196  0.00  0.00    +0.221 C 
ATOM      5  C   UNL     1      -0.013   1.086   0.008  0.00  0.00    +0.115 C 
ATOM      6  C   UNL     1      -0.774   1.600   1.209  0.00  0.00    +0.039 C 
ATOM      7  N   UNL     1      -1.781   2.275   0.819  0.00  0.00    -0.184 NA
ATOM      8  C   UNL     1      -0.398   1.349   2.647  0.00  0.00    +0.062 C 
ENDROOT
BRANCH   4   9
ATOM      9  C   UNL     1       0.052   2.559  -2.044  0.00  0.00    +0.393 C 
ATOM     10  F   UNL     1       0.474   3.640  -1.262  0.00  0.00    -0.204 F 
ATOM     11  F   UNL     1       1.169   1.861  -2.517  0.00  0.00    -0.204 F 
ENDBRANCH   4   9
BRANCH   4  12
ATOM     12  O   UNL     1      -1.317   0.546  -1.988  0.00  0.00    -0.365 OA
ATOM     13  H   UNL     1      -1.828   0.830  -2.758  0.00  0.00    +0.212 HD
ENDBRANCH   4  12
BRANCH   1  14
ATOM     14  C   UNL     1      -3.966   3.744  -0.439  0.00  0.00    +0.195 C 
BRANCH  14  15
ATOM     15  N   UNL     1      -4.905   4.375  -1.370  0.00  0.00    -0.255 N 
ATOM     16  C   UNL     1      -6.228   4.122  -1.457  0.00  0.00    +0.056 A 
ATOM     17  C   UNL     1      -6.735   4.910  -2.435  0.00  0.00    +0.084 A 
ATOM     18  C   UNL     1      -5.684   5.662  -2.969  0.00  0.00    +0.078 A 
ATOM     19  N   UNL     1      -4.586   5.342  -2.332  0.00  0.00    -0.174 NA
ATOM     20  C   UNL     1      -5.795   6.668  -4.086  0.00  0.00    +0.069 C 
ATOM     21 CL   UNL     1      -8.395   4.970  -2.941  0.00  0.00    -0.080 Cl
ATOM     22  C   UNL     1      -7.003   3.141  -0.615  0.00  0.00    +0.067 C 
ENDBRANCH  14  15
BRANCH  14  24
ATOM     23  C   UNL     1      -4.394   5.463   1.323  0.00  0.00    +0.006 C 
ATOM     24  C   UNL     1      -3.323   4.817   0.442  0.00  0.00    +0.033 C 
ENDBRANCH  14  24
ENDBRANCH   1  14
TORSDOF 5
