REMARK  Name = ZINC63491466
REMARK  6 active torsions:
REMARK  status: ('A' for Active; 'I' for Inactive)
REMARK    1  A    between atoms: C_7  and  C_10
REMARK    2  A    between atoms: C_10  and  C_11
REMARK    3  A    between atoms: C_11  and  N_12
REMARK    4  A    between atoms: C_13  and  C_15
REMARK    5  A    between atoms: N_26  and  C_28
REMARK    6  A    between atoms: C_32  and  C_34
REMARK                            x       y       z     vdW  Elec       q    Type
REMARK                         _______ _______ _______ _____ _____    ______ ____
ROOT
ATOM      1  C   UNL     1      -1.752  -6.557  -2.622  0.00  0.00    +0.122 C 
ATOM      2  C   UNL     1      -1.105  -7.798  -1.892  0.00  0.00    +0.155 C 
ATOM      3  C   UNL     1      -2.332  -8.665  -1.581  0.00  0.00    +0.004 C 
ATOM      4  C   UNL     1      -2.713  -9.153  -2.752  0.00  0.00    +0.008 C 
ATOM      5  C   UNL     1      -1.699  -8.644  -3.760  0.00  0.00    +0.116 C 
ATOM      6  C   UNL     1      -1.945  -7.098  -4.016  0.00  0.00    +0.127 C 
ATOM      7  C   UNL     1      -3.207  -7.171  -4.773  0.00  0.00    +0.227 C 
ATOM      8  O   UNL     1      -4.122  -6.376  -4.729  0.00  0.00    -0.275 OA
ATOM      9  N   UNL     1      -3.150  -8.310  -5.539  0.00  0.00    -0.268 N 
ATOM     10  C   UNL     1      -1.977  -9.116  -5.154  0.00  0.00    +0.153 C 
ATOM     11  O   UNL     1      -0.483  -8.536  -3.025  0.00  0.00    -0.359 OA
ENDROOT
BRANCH   9  12
ATOM     12  C   UNL     1      -4.086  -8.675  -6.513  0.00  0.00    +0.037 A 
ATOM     13  C   UNL     1      -3.926  -9.859  -7.222  0.00  0.00    +0.023 A 
ATOM     14  C   UNL     1      -4.852 -10.216  -8.183  0.00  0.00    +0.002 A 
ATOM     15  C   UNL     1      -5.936  -9.398  -8.438  0.00  0.00    +0.012 A 
ATOM     16  C   UNL     1      -6.098  -8.219  -7.734  0.00  0.00    +0.057 A 
ATOM     17  C   UNL     1      -5.179  -7.859  -6.767  0.00  0.00    +0.036 A 
BRANCH  16  18
ATOM     18  C   UNL     1      -7.281  -7.329  -8.016  0.00  0.00    +0.417 C 
ATOM     19  F   UNL     1      -8.067  -7.903  -9.022  0.00  0.00    -0.166 F 
ATOM     20  F   UNL     1      -8.045  -7.186  -6.853  0.00  0.00    -0.166 F 
ATOM     21  F   UNL     1      -6.831  -6.073  -8.436  0.00  0.00    -0.166 F 
ENDBRANCH  16  18
ENDBRANCH   9  12
BRANCH   1  23
ATOM     22  N   UNL     1      -0.458  -4.798  -1.460  0.00  0.00    -0.315 N 
ATOM     23  C   UNL     1      -0.811  -5.380  -2.623  0.00  0.00    +0.220 C 
ATOM     24  O   UNL     1      -0.371  -4.957  -3.671  0.00  0.00    -0.275 OA
ATOM     25  H   UNL     1      -0.810  -5.136  -0.622  0.00  0.00    +0.149 HD
BRANCH  22  26
ATOM     26  C   UNL     1       0.457  -3.653  -1.462  0.00  0.00    +0.108 C 
BRANCH  26  27
ATOM     27  C   UNL     1       0.691  -3.186  -0.024  0.00  0.00    +0.052 C 
BRANCH  27  34
ATOM     28  C   UNL     1      -0.016   1.348   0.009  0.00  0.00    +0.001 A 
ATOM     29  C   UNL     1       1.166   2.101   0.002  0.00  0.00    +0.002 A 
ATOM     30  C   UNL     1       2.391   1.535  -0.013  0.00  0.00    +0.026 A 
ATOM     31  C   UNL     1       2.529   0.120  -0.022  0.00  0.00    +0.043 A 
ATOM     32  N   UNL     1       3.587  -0.654  -0.037  0.00  0.00    -0.380 N 
ATOM     33  C   UNL     1       3.143  -2.053  -0.041  0.00  0.00    +0.144 C 
ATOM     34  C   UNL     1       1.631  -2.008  -0.025  0.00  0.00    -0.040 C 
ATOM     35  C   UNL     1       1.295  -0.698  -0.014  0.00  0.00    -0.001 A 
ATOM     36  C   UNL     1       0.002  -0.004   0.002  0.00  0.00    +0.010 A 
ATOM     37  H   UNL     1       4.509  -0.353  -0.045  0.00  0.00    +0.160 HD
ENDBRANCH  27  34
ENDBRANCH  26  27
ENDBRANCH  22  26
ENDBRANCH   1  23
TORSDOF 6
