REMARK  Name = ZINC39607393
REMARK  8 active torsions:
REMARK  status: ('A' for Active; 'I' for Inactive)
REMARK    1  A    between atoms: C_1  and  C_2
REMARK    2  A    between atoms: C_2  and  C_3
REMARK    3  A    between atoms: C_3  and  O_4
REMARK    4  A    between atoms: O_4  and  C_5
REMARK    5  A    between atoms: C_5  and  C_6
REMARK    6  A    between atoms: C_6  and  N_7
REMARK    7  A    between atoms: C_8  and  C_10
REMARK    8  A    between atoms: C_21  and  C_23
REMARK                            x       y       z     vdW  Elec       q    Type
REMARK                         _______ _______ _______ _____ _____    ______ ____
ROOT
ATOM      1  C   UNL     1       2.764  -6.168  -0.439  0.00  0.00    +0.100 C 
ATOM      2  C   UNL     1       2.142  -5.758  -1.793  0.00  0.00    +0.121 C 
ATOM      3  N   UNL     1       2.469  -6.875  -2.709  0.00  0.00    -0.296 N 
ATOM      4  C   UNL     1       2.302  -8.093  -1.879  0.00  0.00    +0.115 C 
ATOM      5  C   UNL     1       2.867  -7.701  -0.500  0.00  0.00    -0.004 C 
ATOM      6  C   UNL     1       4.324  -8.138  -0.383  0.00  0.00    -0.010 C 
ATOM      7  C   UNL     1       4.395  -9.668  -0.389  0.00  0.00    -0.082 C 
ATOM      8  N   UNL     1       3.612 -10.200   0.733  0.00  0.00    +0.379 N 
ATOM      9  C   UNL     1       2.195  -9.853   0.564  0.00  0.00    -0.082 C 
ATOM     10  C   UNL     1       2.031  -8.331   0.610  0.00  0.00    -0.010 C 
ATOM     11  C   UNL     1       2.836  -6.802  -4.004  0.00  0.00    +0.247 C 
ATOM     12  O   UNL     1       2.986  -7.820  -4.652  0.00  0.00    -0.270 OA
ATOM     13  H   UNL     1       3.709 -11.204   0.763  0.00  0.00    -0.086 HD
ATOM     14  H   UNL     1       3.953  -9.805   1.597  0.00  0.00    -0.086 HD
ENDROOT
BRANCH  11  15
ATOM     15  C   UNL     1       3.054  -5.485  -4.636  0.00  0.00    +0.045 A 
ATOM     16  C   UNL     1       2.087  -4.480  -4.519  0.00  0.00    +0.014 A 
ATOM     17  C   UNL     1       2.288  -3.250  -5.107  0.00  0.00    +0.001 A 
ATOM     18  C   UNL     1       3.449  -2.995  -5.821  0.00  0.00    +0.012 A 
ATOM     19  C   UNL     1       4.422  -3.979  -5.949  0.00  0.00    +0.031 A 
ATOM     20  C   UNL     1       4.233  -5.234  -5.350  0.00  0.00    +0.006 A 
ATOM     21  C   UNL     1       5.417  -6.082  -5.636  0.00  0.00    -0.006 A 
ATOM     22  C   UNL     1       5.728  -7.390  -5.285  0.00  0.00    +0.009 A 
ATOM     23  C   UNL     1       6.928  -7.950  -5.693  0.00  0.00    +0.001 A 
ATOM     24  C   UNL     1       7.823  -7.217  -6.448  0.00  0.00    +0.001 A 
ATOM     25  C   UNL     1       7.528  -5.911  -6.806  0.00  0.00    +0.012 A 
ATOM     26  C   UNL     1       6.328  -5.338  -6.405  0.00  0.00    +0.030 A 
ATOM     27  C   UNL     1       5.735  -3.998  -6.637  0.00  0.00    +0.194 C 
ATOM     28  O   UNL     1       6.237  -3.085  -7.261  0.00  0.00    -0.287 OA
ENDBRANCH  11  15
BRANCH   1  30
ATOM     29  N   UNL     1       2.382  -5.591   1.936  0.00  0.00    -0.313 N 
ATOM     30  C   UNL     1       1.870  -5.746   0.699  0.00  0.00    +0.218 C 
ATOM     31  O   UNL     1       0.690  -5.547   0.501  0.00  0.00    -0.275 OA
ATOM     32  H   UNL     1       3.326  -5.750   2.094  0.00  0.00    +0.149 HD
BRANCH  29  33
ATOM     33  C   UNL     1       1.513  -5.181   3.042  0.00  0.00    +0.132 C 
BRANCH  33  34
ATOM     34  C   UNL     1       2.337  -5.079   4.327  0.00  0.00    +0.178 C 
BRANCH  34  35
ATOM     35  O   UNL     1       3.299  -4.031   4.194  0.00  0.00    -0.378 OA
BRANCH  35  36
ATOM     36  C   UNL     1       4.125  -3.850   5.346  0.00  0.00    +0.159 C 
BRANCH  36  38
ATOM     37  C   UNL     1       5.996  -2.516   6.326  0.00  0.00    +0.006 C 
ATOM     38  C   UNL     1       5.111  -2.709   5.092  0.00  0.00    +0.025 C 
ENDBRANCH  36  38
ENDBRANCH  35  36
ENDBRANCH  34  35
ENDBRANCH  33  34
ENDBRANCH  29  33
ENDBRANCH   1  30
TORSDOF 7
