REMARK  Name = ZINC43287052
REMARK  12 active torsions:
REMARK  status: ('A' for Active; 'I' for Inactive)
REMARK    1  A    between atoms: C_1  and  C_2
REMARK    2  A    between atoms: C_2  and  C_3
REMARK    3  A    between atoms: C_3  and  C_5
REMARK    4  A    between atoms: C_3  and  N_22
REMARK    5  A    between atoms: C_5  and  C_7
REMARK    6  A    between atoms: C_5  and  N_13
REMARK    7  A    between atoms: N_13  and  C_14
REMARK    8  A    between atoms: N_13  and  C_16
REMARK    9  A    between atoms: C_14  and  C_15
REMARK   10  A    between atoms: C_16  and  C_17
REMARK   11  A    between atoms: N_19  and  C_20
REMARK   12  A    between atoms: C_20  and  C_21
REMARK                            x       y       z     vdW  Elec       q    Type
REMARK                         _______ _______ _______ _____ _____    ______ ____
ROOT
ATOM      1  C   UNL     1       0.734  -2.530  -0.589  0.00  0.00    -0.045 C 
ENDROOT
BRANCH   1   2
ATOM      2  C   UNL     1      -0.368  -3.464  -0.159  0.00  0.00    -0.024 A 
ATOM      3  C   UNL     1      -1.053  -4.373  -0.896  0.00  0.00    +0.024 A 
ATOM      4  C   UNL     1      -2.035  -5.129  -0.285  0.00  0.00    +0.025 A 
ATOM      5  C   UNL     1      -2.285  -4.939   1.034  0.00  0.00    +0.060 A 
ATOM      6  S   UNL     1      -1.107  -3.665   1.454  0.00  0.00    -0.102 S 
ATOM      7 BR   UNL     1      -3.016  -6.409  -1.273  0.00  0.00    -0.050 Br
ENDBRANCH   1   2
BRANCH   1   8
ATOM      8  N   UNL     1       1.761  -2.470   0.460  0.00  0.00    +0.389 N 
ATOM      9  H   UNL     1       1.380  -2.017   1.278  0.00  0.00    -0.080 HD
BRANCH   8  10
ATOM     10  C   UNL     1       2.917  -1.707  -0.029  0.00  0.00    -0.081 C 
ATOM     11  C   UNL     1       2.692  -0.216   0.235  0.00  0.00    -0.017 C 
ENDBRANCH   8  10
BRANCH   8  12
ATOM     12  C   UNL     1       2.186  -3.832   0.808  0.00  0.00    +0.019 C 
BRANCH  12  13
ATOM     13  C   UNL     1       3.147  -3.778   1.968  0.00  0.00    +0.196 C 
ATOM     14  O   UNL     1       3.449  -2.709   2.455  0.00  0.00    -0.278 OA
ATOM     15  N   UNL     1       3.672  -4.917   2.462  0.00  0.00    -0.317 N 
ATOM     16  H   UNL     1       3.430  -5.771   2.072  0.00  0.00    +0.149 HD
BRANCH  15  17
ATOM     17  C   UNL     1       4.607  -4.864   3.588  0.00  0.00    +0.101 C 
ATOM     18  C   UNL     1       5.049  -6.283   3.951  0.00  0.00    +0.024 C 
ENDBRANCH  15  17
ENDBRANCH  12  13
ENDBRANCH   8  12
ENDBRANCH   1   8
BRANCH   1  19
ATOM     19  C   UNL     1       0.157  -1.132  -0.819  0.00  0.00    -0.085 C 
BRANCH  19  20
ATOM     20  N   UNL     1      -0.921  -1.204  -1.814  0.00  0.00    +0.379 N 
ATOM     21  H   UNL     1      -1.649  -1.817  -1.477  0.00  0.00    -0.090 HD
ATOM     22  H   UNL     1      -1.301  -0.282  -1.965  0.00  0.00    -0.090 HD
ATOM     23  H   UNL     1      -0.554  -1.564  -2.682  0.00  0.00    -0.090 HD
ENDBRANCH  19  20
BRANCH  19  25
ATOM     24  C   UNL     1      -0.863   0.858   0.297  0.00  0.00    +0.002 C 
ATOM     25  C   UNL     1      -0.400  -0.587   0.498  0.00  0.00    -0.021 C 
ENDBRANCH  19  25
ENDBRANCH   1  19
TORSDOF 9
