REMARK  Name = ZINC10189756
REMARK  10 active torsions:
REMARK  status: ('A' for Active; 'I' for Inactive)
REMARK    1  A    between atoms: C_1  and  C_2
REMARK    2  A    between atoms: C_2  and  C_3
REMARK    3  A    between atoms: C_2  and  C_4
REMARK    4  A    between atoms: C_7  and  C_13
REMARK    5  A    between atoms: C_8  and  C_10
REMARK    6  A    between atoms: C_10  and  C_11
REMARK    7  A    between atoms: C_10  and  C_12
REMARK    8  A    between atoms: C_19  and  C_21
REMARK    9  A    between atoms: C_21  and  N_22
REMARK   10  A    between atoms: N_31  and  C_32
REMARK                            x       y       z     vdW  Elec       q    Type
REMARK                         _______ _______ _______ _____ _____    ______ ____
ROOT
ATOM      1  C   UNL     1      -0.009   1.477   0.093  0.00  0.00    +0.080 A 
ATOM      2  C   UNL     1      -0.868   2.186  -0.701  0.00  0.00    +0.076 A 
ATOM      3  S   UNL     1      -0.454   3.859  -0.224  0.00  0.00    -0.060 S 
ATOM      4  C   UNL     1       0.815   3.446   0.965  0.00  0.00    +0.165 A 
ATOM      5  N   UNL     1       0.812   2.127   0.904  0.00  0.00    -0.225 NA
ATOM      6  N   UNL     1       1.596   4.288   1.747  0.00  0.00    -0.263 N 
ATOM      7  C   UNL     1       1.441   5.624   1.659  0.00  0.00    +0.239 C 
ATOM      8  O   UNL     1       0.620   6.091   0.898  0.00  0.00    -0.273 OA
ATOM      9  H   UNL     1       2.252   3.915   2.355  0.00  0.00    +0.157 HD
ENDROOT
BRANCH   1  13
ATOM     10  C   UNL     1       0.035  -2.772  -0.052  0.00  0.00    -0.044 A 
ATOM     11  C   UNL     1      -1.164  -2.100   0.107  0.00  0.00    +0.004 A 
ATOM     12  C   UNL     1      -1.184  -0.721   0.160  0.00  0.00    +0.010 A 
ATOM     13  C   UNL     1       0.006  -0.005   0.042  0.00  0.00    +0.004 A 
ATOM     14  C   UNL     1       1.211  -0.686  -0.118  0.00  0.00    -0.035 A 
ATOM     15  C   UNL     1       1.220  -2.066  -0.164  0.00  0.00    +0.008 A 
BRANCH  10  17
ATOM     16  C   UNL     1      -0.518  -4.838   1.202  0.00  0.00    +0.012 C 
ATOM     17  C   UNL     1       0.051  -4.278  -0.102  0.00  0.00    +0.013 C 
ATOM     18  C   UNL     1      -0.801  -4.757  -1.279  0.00  0.00    +0.012 C 
ENDBRANCH  10  17
BRANCH  14  19
ATOM     19  C   UNL     1       2.502   0.081  -0.240  0.00  0.00    +0.013 C 
ATOM     20  C   UNL     1       3.473  -0.376   0.851  0.00  0.00    +0.012 C 
ATOM     21  C   UNL     1       3.122  -0.179  -1.615  0.00  0.00    +0.012 C 
ENDBRANCH  14  19
ENDBRANCH   1  13
BRANCH   7  22
ATOM     22  C   UNL     1       2.288   6.538   2.506  0.00  0.00    +0.222 C 
BRANCH  22  23
ATOM     23  N   UNL     1       1.931   7.932   2.228  0.00  0.00    -0.290 N 
ATOM     24  C   UNL     1       2.582   8.614   1.252  0.00  0.00    +0.204 A 
ATOM     25  N   UNL     1       2.312   9.850   0.950  0.00  0.00    -0.218 NA
ATOM     26  C   UNL     1       1.366  10.548   1.599  0.00  0.00    +0.165 A 
ATOM     27  C   UNL     1       0.643   9.927   2.630  0.00  0.00    +0.103 A 
ATOM     28  C   UNL     1       0.958   8.535   2.950  0.00  0.00    +0.265 A 
ATOM     29  O   UNL     1       0.366   7.941   3.834  0.00  0.00    -0.267 OA
ATOM     30  C   UNL     1      -0.270  10.875   3.129  0.00  0.00    +0.150 A 
ATOM     31  N   UNL     1      -0.117  11.983   2.459  0.00  0.00    -0.177 NA
ATOM     32  N   UNL     1       0.890  11.816   1.501  0.00  0.00    -0.249 N 
ATOM     33  C   UNL     1       1.352  12.835   0.555  0.00  0.00    +0.174 C 
ENDBRANCH  22  23
ENDBRANCH   7  22
TORSDOF 5
