REMARK  Name = ZINC16226364
REMARK  7 active torsions:
REMARK  status: ('A' for Active; 'I' for Inactive)
REMARK    1  A    between atoms: C_1  and  C_2
REMARK    2  A    between atoms: C_3  and  S_8
REMARK    3  A    between atoms: C_4  and  C_7
REMARK    4  A    between atoms: S_8  and  N_11
REMARK    5  A    between atoms: C_15  and  C_18
REMARK    6  A    between atoms: N_20  and  N_21
REMARK    7  A    between atoms: C_22  and  C_24
REMARK                            x       y       z     vdW  Elec       q    Type
REMARK                         _______ _______ _______ _____ _____    ______ ____
ROOT
ATOM      1  C   UNL     1       5.115  -3.182  -3.809  0.00  0.00    +0.233 C 
ATOM      2  O   UNL     1       5.521  -2.044  -3.920  0.00  0.00    -0.274 OA
ATOM      3  N   UNL     1       5.741  -4.187  -4.453  0.00  0.00    -0.234 N 
ATOM      4  H   UNL     1       5.416  -5.096  -4.364  0.00  0.00    +0.173 HD
ENDROOT
BRANCH   1   9
ATOM      5  N   UNL     1       2.147  -2.445  -1.613  0.00  0.00    -0.176 NA
ATOM      6  C   UNL     1       1.057  -3.132  -2.319  0.00  0.00    +0.109 C 
ATOM      7  C   UNL     1       1.597  -4.422  -2.933  0.00  0.00    +0.018 C 
ATOM      8  C   UNL     1       2.809  -4.097  -3.811  0.00  0.00    +0.015 C 
ATOM      9  C   UNL     1       3.910  -3.471  -2.951  0.00  0.00    +0.092 C 
ATOM     10  C   UNL     1       3.393  -2.166  -2.338  0.00  0.00    +0.122 C 
BRANCH   5  11
ATOM     11  S   UNL     1       1.976  -2.000  -0.027  0.00  0.00    +0.066 S 
ATOM     12  O   UNL     1       3.287  -1.905   0.512  0.00  0.00    -0.153 OA
ATOM     13  O   UNL     1       0.984  -2.851   0.530  0.00  0.00    -0.153 OA
BRANCH  11  16
ATOM     14  C   UNL     1       3.501   1.046  -0.025  0.00  0.00    +0.071 C 
ATOM     15  C   UNL     1       2.006   0.859  -0.013  0.00  0.00    +0.107 A 
ATOM     16  C   UNL     1       1.306  -0.370  -0.012  0.00  0.00    +0.170 A 
ATOM     17  C   UNL     1       0.002  -0.004   0.002  0.00  0.00    +0.161 A 
ATOM     18  O   UNL     1      -0.016   1.336   0.009  0.00  0.00    -0.358 OA
ATOM     19  N   UNL     1       1.102   1.796   0.001  0.00  0.00    -0.081 NA
ATOM     20  C   UNL     1      -1.193  -0.923   0.008  0.00  0.00    +0.091 C 
ENDBRANCH  11  16
ENDBRANCH   5  11
ENDBRANCH   1   9
BRANCH   3  21
ATOM     21  N   UNL     1       6.861  -3.918  -5.250  0.00  0.00    -0.234 N 
ATOM     22  C   UNL     1       7.487  -4.923  -5.894  0.00  0.00    +0.235 C 
ATOM     23  O   UNL     1       7.080  -6.060  -5.783  0.00  0.00    -0.274 OA
ATOM     24  H   UNL     1       7.186  -3.008  -5.339  0.00  0.00    +0.173 HD
BRANCH  22  25
ATOM     25  C   UNL     1       8.691  -4.634  -6.752  0.00  0.00    +0.049 C 
ATOM     26  C   UNL     1       8.301  -3.665  -7.870  0.00  0.00    +0.019 C 
ATOM     27  C   UNL     1       9.524  -3.371  -8.741  0.00  0.00    -0.009 C 
ATOM     28  C   UNL     1      10.040  -4.676  -9.352  0.00  0.00    +0.007 C 
ATOM     29  C   UNL     1      10.430  -5.644  -8.234  0.00  0.00    -0.009 C 
ATOM     30  C   UNL     1       9.207  -5.938  -7.364  0.00  0.00    +0.019 C 
ATOM     31  C   UNL     1      11.529  -5.015  -7.375  0.00  0.00    +0.007 C 
ATOM     32  C   UNL     1      11.013  -3.710  -6.763  0.00  0.00    -0.009 C 
ATOM     33  C   UNL     1      10.623  -2.742  -7.881  0.00  0.00    +0.007 C 
ATOM     34  C   UNL     1       9.790  -4.004  -5.892  0.00  0.00    +0.019 C 
ENDBRANCH  22  25
ENDBRANCH   3  21
TORSDOF 5
