REMARK  Name = ZINC21584965
REMARK  6 active torsions:
REMARK  status: ('A' for Active; 'I' for Inactive)
REMARK    1  A    between atoms: C_3  and  C_6
REMARK    2  A    between atoms: N_15  and  C_16
REMARK    3  A    between atoms: C_16  and  C_17
REMARK    4  A    between atoms: N_19  and  C_20
REMARK    5  A    between atoms: C_20  and  C_21
REMARK    6  A    between atoms: C_21  and  N_27
REMARK                            x       y       z     vdW  Elec       q    Type
REMARK                         _______ _______ _______ _____ _____    ______ ____
ROOT
ATOM      1  C   UNL     1      -4.106   1.600   0.534  0.00  0.00    +0.197 C 
ATOM      2  O   UNL     1      -4.755   0.925  -0.236  0.00  0.00    -0.278 OA
ATOM      3  N   UNL     1      -2.835   1.932   0.233  0.00  0.00    -0.315 N 
ATOM      4  H   UNL     1      -2.246   2.545   0.932  0.00  0.00    +0.149 HD
ENDROOT
BRANCH   1   5
ATOM      5  C   UNL     1      -4.721   2.068   1.828  0.00  0.00    +0.020 C 
BRANCH   5  14
ATOM      6  C   UNL     1      -6.655   1.808   3.260  0.00  0.00    +0.002 C 
ATOM      7  C   UNL     1      -8.094   1.302   3.288  0.00  0.00    -0.046 A 
ATOM      8  C   UNL     1      -8.795   1.017   4.457  0.00  0.00    +0.010 A 
ATOM      9  C   UNL     1     -10.071   0.569   4.389  0.00  0.00    +0.045 A 
ATOM     10  S   UNL     1     -10.354   0.527   2.625  0.00  0.00    -0.101 S 
ATOM     11  C   UNL     1      -8.761   1.106   2.115  0.00  0.00    -0.010 A 
ATOM     12  C   UNL     1      -8.231   1.340   0.738  0.00  0.00    +0.024 C 
ATOM     13  C   UNL     1      -6.941   2.168   0.867  0.00  0.00    -0.072 C 
ATOM     14  N   UNL     1      -6.102   1.577   1.919  0.00  0.00    +0.393 N 
ATOM     15  H   UNL     1      -6.094   0.490   1.756  0.00  0.00    -0.080 HD
BRANCH   6  18
ATOM     16  C   UNL     1      -4.688   0.600   6.290  0.00  0.00    +0.008 A 
ATOM     17  C   UNL     1      -5.447   1.459   5.518  0.00  0.00    +0.010 A 
ATOM     18  C   UNL     1      -5.834   1.064   4.281  0.00  0.00    -0.019 A 
ATOM     19  S   UNL     1      -5.124  -0.571   4.177  0.00  0.00    -0.103 S 
ATOM     20  C   UNL     1      -4.353  -0.613   5.787  0.00  0.00    +0.045 A 
ENDBRANCH   6  18
ENDBRANCH   5  14
ENDBRANCH   1   5
BRANCH   3  21
ATOM     21  C   UNL     1      -2.237   1.477  -1.025  0.00  0.00    +0.126 C 
BRANCH  21  22
ATOM     22  C   UNL     1      -0.798   1.988  -1.120  0.00  0.00    +0.038 C 
ATOM     23  C   UNL     1      -0.174   1.513  -2.433  0.00  0.00    +0.024 C 
ATOM     24  C   UNL     1      -0.987   2.057  -3.610  0.00  0.00    +0.002 C 
ATOM     25  C   UNL     1      -0.985   3.586  -3.568  0.00  0.00    +0.000 C 
ATOM     26  C   UNL     1      -1.609   4.061  -2.254  0.00  0.00    +0.002 C 
ATOM     27  C   UNL     1      -0.796   3.518  -1.077  0.00  0.00    +0.024 C 
BRANCH  22  28
ATOM     28  N   UNL     1      -0.018   1.466   0.010  0.00  0.00    -0.291 NA
ATOM     29  C   UNL     1       1.350   2.006  -0.000  0.00  0.00    +0.113 C 
ATOM     30  C   UNL     1       2.107   1.484   1.224  0.00  0.00    +0.175 C 
ATOM     31  O   UNL     1       2.090   0.054   1.216  0.00  0.00    -0.377 OA
ATOM     32  C   UNL     1       0.773  -0.505   1.226  0.00  0.00    +0.175 C 
ATOM     33  C   UNL     1       0.002  -0.004   0.002  0.00  0.00    +0.113 C 
ENDBRANCH  22  28
ENDBRANCH  21  22
ENDBRANCH   3  21
TORSDOF 6
