REMARK  Name = ZINC30979289
REMARK  7 active torsions:
REMARK  status: ('A' for Active; 'I' for Inactive)
REMARK    1  A    between atoms: C_6  and  C_7
REMARK    2  A    between atoms: C_9  and  C_12
REMARK    3  A    between atoms: C_12  and  N_13
REMARK    4  A    between atoms: C_16  and  C_19
REMARK    5  A    between atoms: N_21  and  C_22
REMARK    6  A    between atoms: C_22  and  C_23
REMARK    7  A    between atoms: C_23  and  C_24
REMARK                            x       y       z     vdW  Elec       q    Type
REMARK                         _______ _______ _______ _____ _____    ______ ____
ROOT
ATOM      1  N   UNL     1      -6.388  -5.275  -3.249  0.00  0.00    +0.386 N 
ATOM      2  C   UNL     1      -6.557  -4.049  -4.040  0.00  0.00    -0.077 C 
ATOM      3  C   UNL     1      -5.246  -3.260  -4.048  0.00  0.00    -0.006 C 
ATOM      4  C   UNL     1      -4.856  -2.912  -2.609  0.00  0.00    +0.071 C 
ATOM      5  C   UNL     1      -4.734  -4.203  -1.795  0.00  0.00    -0.006 C 
ATOM      6  C   UNL     1      -6.060  -4.964  -1.852  0.00  0.00    -0.077 C 
ATOM      7  H   UNL     1      -5.543  -5.835  -3.675  0.00  0.00    -0.081 HD
ENDROOT
BRANCH   4   8
ATOM      8  C   UNL     1      -3.535  -2.188  -2.606  0.00  0.00    +0.216 C 
ATOM      9  O   UNL     1      -2.960  -1.970  -3.652  0.00  0.00    -0.276 OA
ATOM     10  N   UNL     1      -2.992  -1.781  -1.442  0.00  0.00    -0.315 N 
ATOM     11  H   UNL     1      -3.513  -1.977  -0.493  0.00  0.00    +0.149 HD
BRANCH  10  12
ATOM     12  C   UNL     1      -1.707  -1.076  -1.439  0.00  0.00    +0.108 C 
BRANCH  12  13
ATOM     13  C   UNL     1      -1.319  -0.729  -0.001  0.00  0.00    +0.049 C 
BRANCH  13  14
ATOM     14  C   UNL     1       0.002  -0.004   0.002  0.00  0.00    -0.072 C 
ATOM     15  C   UNL     1      -0.015   1.290   0.009  0.00  0.00    -0.028 C 
ATOM     16  C   UNL     1       1.216   2.148   0.002  0.00  0.00    +0.027 C 
ATOM     17  C   UNL     1       2.437   1.320   0.409  0.00  0.00    +0.004 C 
ATOM     18  C   UNL     1       2.450   0.033  -0.424  0.00  0.00    +0.005 C 
ATOM     19  C   UNL     1       1.256  -0.828  -0.004  0.00  0.00    +0.030 C 
ENDBRANCH  13  14
ENDBRANCH  12  13
ENDBRANCH  10  12
ENDBRANCH   4   8
BRANCH   1  20
ATOM     20  C   UNL     1      -7.583  -6.125  -3.333  0.00  0.00    +0.022 C 
BRANCH  20  23
ATOM     21  C   UNL     1      -7.060  -9.098  -1.383  0.00  0.00    +0.202 A 
ATOM     22  N   UNL     1      -7.454  -7.807  -1.467  0.00  0.00    -0.193 NA
ATOM     23  C   UNL     1      -7.287  -7.470  -2.721  0.00  0.00    +0.211 A 
ATOM     24  O   UNL     1      -6.811  -8.544  -3.358  0.00  0.00    -0.340 OA
ATOM     25  N   UNL     1      -6.682  -9.465  -2.580  0.00  0.00    -0.056 NA
BRANCH  21  31
ATOM     26  C   UNL     1      -7.486  -9.411   1.054  0.00  0.00    +0.013 A 
ATOM     27  C   UNL     1      -7.486 -10.200   2.187  0.00  0.00    +0.016 A 
ATOM     28  C   UNL     1      -7.052 -11.512   2.118  0.00  0.00    +0.018 A 
ATOM     29  C   UNL     1      -6.621 -12.042   0.914  0.00  0.00    +0.016 A 
ATOM     30  C   UNL     1      -6.622 -11.263  -0.225  0.00  0.00    +0.013 A 
ATOM     31  C   UNL     1      -7.058  -9.941  -0.161  0.00  0.00    +0.023 A 
ATOM     32 BR   UNL     1      -7.048 -12.586   3.675  0.00  0.00    -0.050 Br
ENDBRANCH  21  31
ENDBRANCH  20  23
ENDBRANCH   1  20
TORSDOF 7
