REMARK  Name = ZINC20882665
REMARK  10 active torsions:
REMARK  status: ('A' for Active; 'I' for Inactive)
REMARK    1  A    between atoms: C_1  and  C_2
REMARK    2  A    between atoms: C_2  and  O_3
REMARK    3  A    between atoms: O_3  and  C_4
REMARK    4  A    between atoms: C_6  and  C_12
REMARK    5  A    between atoms: C_9  and  O_10
REMARK    6  A    between atoms: C_17  and  C_22
REMARK    7  A    between atoms: C_24  and  O_30
REMARK    8  A    between atoms: C_27  and  O_28
REMARK    9  A    between atoms: O_28  and  C_29
REMARK   10  A    between atoms: O_30  and  C_31
REMARK                            x       y       z     vdW  Elec       q    Type
REMARK                         _______ _______ _______ _____ _____    ______ ____
ROOT
ATOM      1  C   UNL     1      -6.594   1.348   0.036  0.00  0.00    +0.136 C 
ATOM      2  C   UNL     1      -5.237   0.684   0.028  0.00  0.00    +0.036 C 
ATOM      3  C   UNL     1      -4.514   0.355   1.112  0.00  0.00    +0.017 C 
ATOM      4  C   UNL     1      -3.168  -0.334   0.958  0.00  0.00    +0.060 C 
ATOM      5  C   UNL     1      -2.479   0.153  -0.315  0.00  0.00    +0.036 C 
ATOM      6  C   UNL     1      -3.388  -0.194  -1.500  0.00  0.00    +0.088 C 
ATOM      7  C   UNL     1      -4.734   0.424  -1.268  0.00  0.00    +0.163 C 
ATOM      8  O   UNL     1      -5.419   0.713  -2.230  0.00  0.00    -0.292 OA
ATOM      9  N   UNL     1      -4.889   0.589   2.395  0.00  0.00    -0.316 N 
ATOM     10  C   UNL     1      -6.147   0.308   2.918  0.00  0.00    +0.052 A 
ATOM     11  C   UNL     1      -6.342  -0.635   3.911  0.00  0.00    +0.025 A 
ATOM     12  C   UNL     1      -7.615  -0.831   4.420  0.00  0.00    +0.002 A 
ATOM     13  C   UNL     1      -8.680  -0.090   3.940  0.00  0.00    +0.002 A 
ATOM     14  C   UNL     1      -8.489   0.841   2.934  0.00  0.00    +0.025 A 
ATOM     15  C   UNL     1      -7.220   1.025   2.409  0.00  0.00    +0.049 A 
ATOM     16  N   UNL     1      -6.997   1.871   1.324  0.00  0.00    -0.331 N 
ATOM     17  H   UNL     1      -4.174   1.030   3.105  0.00  0.00    +0.152 HD
ATOM     18  H   UNL     1      -7.134   2.954   1.459  0.00  0.00    +0.147 HD
ENDROOT
BRANCH   1  21
ATOM     19  C   UNL     1      -9.247  -0.392  -2.016  0.00  0.00    +0.163 A 
ATOM     20  C   UNL     1      -8.302   0.533  -1.601  0.00  0.00    +0.055 A 
ATOM     21  C   UNL     1      -7.621   0.341  -0.413  0.00  0.00    -0.018 A 
ATOM     22  C   UNL     1      -7.876  -0.776   0.360  0.00  0.00    +0.029 A 
ATOM     23  C   UNL     1      -8.822  -1.701  -0.045  0.00  0.00    +0.086 A 
ATOM     24  C   UNL     1      -9.508  -1.513  -1.235  0.00  0.00    +0.177 A 
ATOM     25 CL   UNL     1      -9.145  -3.099   0.932  0.00  0.00    -0.080 Cl
BRANCH  24  26
ATOM     26  O   UNL     1     -10.436  -2.423  -1.638  0.00  0.00    -0.502 OA
ATOM     27  H   UNL     1     -10.641  -3.309  -1.020  0.00  0.00    +0.292 HD
ENDBRANCH  24  26
BRANCH  19  28
ATOM     28  O   UNL     1      -9.918  -0.203  -3.184  0.00  0.00    -0.489 OA
BRANCH  28  30
ATOM     29  C   UNL     1     -10.448   1.011  -5.205  0.00  0.00    +0.048 C 
ATOM     30  C   UNL     1      -9.598   0.971  -3.933  0.00  0.00    +0.226 C 
ENDBRANCH  28  30
ENDBRANCH  19  28
ENDBRANCH   1  21
BRANCH   5  31
ATOM     31  C   UNL     1      -1.149  -0.537  -0.472  0.00  0.00    +0.002 A 
ATOM     32  C   UNL     1      -1.094  -1.914  -0.580  0.00  0.00    +0.053 A 
ATOM     33  C   UNL     1       0.131  -2.550  -0.719  0.00  0.00    +0.121 A 
ATOM     34  C   UNL     1       1.300  -1.804  -0.755  0.00  0.00    +0.049 A 
ATOM     35  C   UNL     1       1.244  -0.428  -0.653  0.00  0.00    +0.049 A 
ATOM     36  C   UNL     1       0.019   0.209  -0.514  0.00  0.00    +0.124 A 
BRANCH  36  37
ATOM     37  O   UNL     1      -0.035   1.564  -0.413  0.00  0.00    -0.495 OA
ATOM     38  C   UNL     1       1.207   2.268  -0.458  0.00  0.00    +0.277 C 
ENDBRANCH  36  37
BRANCH  33  39
ATOM     39  O   UNL     1       0.185  -3.905  -0.820  0.00  0.00    -0.495 OA
ATOM     40  C   UNL     1       1.480  -4.493  -0.960  0.00  0.00    +0.277 C 
ENDBRANCH  33  39
ENDBRANCH   5  31
TORSDOF 7
