REMARK  Name = ZINC39688503
REMARK  7 active torsions:
REMARK  status: ('A' for Active; 'I' for Inactive)
REMARK    1  A    between atoms: C_1  and  C_2
REMARK    2  A    between atoms: C_2  and  C_4
REMARK    3  A    between atoms: C_2  and  N_12
REMARK    4  A    between atoms: C_4  and  C_5
REMARK    5  A    between atoms: C_13  and  C_15
REMARK    6  A    between atoms: C_26  and  C_28
REMARK    7  A    between atoms: C_32  and  C_34
REMARK                            x       y       z     vdW  Elec       q    Type
REMARK                         _______ _______ _______ _____ _____    ______ ____
ROOT
ATOM      1  C   UNL     1       0.564  -0.446  -3.531  0.00  0.00    +0.100 C 
ATOM      2  C   UNL     1       1.781   0.326  -4.090  0.00  0.00    +0.121 C 
ATOM      3  N   UNL     1       1.671   0.185  -5.561  0.00  0.00    -0.296 N 
ATOM      4  C   UNL     1       0.219   0.309  -5.835  0.00  0.00    +0.115 C 
ATOM      5  C   UNL     1      -0.459  -0.455  -4.680  0.00  0.00    -0.004 C 
ATOM      6  C   UNL     1      -0.767  -1.888  -5.103  0.00  0.00    -0.010 C 
ATOM      7  C   UNL     1      -1.828  -1.872  -6.206  0.00  0.00    -0.082 C 
ATOM      8  N   UNL     1      -3.043  -1.215  -5.710  0.00  0.00    +0.379 N 
ATOM      9  C   UNL     1      -2.760   0.189  -5.392  0.00  0.00    -0.082 C 
ATOM     10  C   UNL     1      -1.737   0.261  -4.254  0.00  0.00    -0.010 C 
ATOM     11  C   UNL     1       2.665  -0.011  -6.449  0.00  0.00    +0.247 C 
ATOM     12  O   UNL     1       3.798  -0.215  -6.058  0.00  0.00    -0.270 OA
ATOM     13  H   UNL     1      -3.761  -1.260  -6.417  0.00  0.00    -0.086 HD
ATOM     14  H   UNL     1      -3.364  -1.689  -4.878  0.00  0.00    -0.086 HD
ENDROOT
BRANCH  11  15
ATOM     15  C   UNL     1       2.379   0.021  -7.898  0.00  0.00    +0.038 A 
ATOM     16  C   UNL     1       1.238   0.672  -8.372  0.00  0.00    +0.016 A 
ATOM     17  C   UNL     1       0.976   0.699  -9.725  0.00  0.00    +0.039 A 
ATOM     18  C   UNL     1       1.842   0.082 -10.614  0.00  0.00    +0.135 A 
ATOM     19  C   UNL     1       2.976  -0.566 -10.149  0.00  0.00    +0.091 A 
ATOM     20  C   UNL     1       3.251  -0.594  -8.798  0.00  0.00    +0.028 A 
ATOM     21  F   UNL     1       1.580   0.111 -11.939  0.00  0.00    -0.205 F 
BRANCH  19  22
ATOM     22  C   UNL     1       3.913  -1.235 -11.121  0.00  0.00    +0.420 C 
ATOM     23  F   UNL     1       4.976  -1.815 -10.421  0.00  0.00    -0.166 F 
ATOM     24  F   UNL     1       3.223  -2.226 -11.827  0.00  0.00    -0.166 F 
ATOM     25  F   UNL     1       4.410  -0.284 -12.019  0.00  0.00    -0.166 F 
ENDBRANCH  19  22
ENDBRANCH  11  15
BRANCH   1  27
ATOM     26  N   UNL     1      -0.550  -0.444  -1.323  0.00  0.00    -0.312 N 
ATOM     27  C   UNL     1      -0.002   0.266  -2.330  0.00  0.00    +0.218 C 
ATOM     28  O   UNL     1       0.036   1.476  -2.268  0.00  0.00    -0.275 OA
ATOM     29  H   UNL     1      -0.580  -1.412  -1.372  0.00  0.00    +0.149 HD
BRANCH  26  31
ATOM     30  C   UNL     1       0.022   0.527   0.848  0.00  0.00    +0.028 C 
ATOM     31  C   UNL     1      -1.100   0.248  -0.155  0.00  0.00    +0.074 C 
BRANCH  31  32
ATOM     32  C   UNL     1      -2.165  -0.631   0.504  0.00  0.00    +0.057 C 
BRANCH  32  33
ATOM     33  C   UNL     1      -3.327  -0.804  -0.441  0.00  0.00    -0.045 A 
ATOM     34  C   UNL     1      -4.377   0.095  -0.416  0.00  0.00    +0.006 A 
ATOM     35  C   UNL     1      -5.442  -0.063  -1.282  0.00  0.00    +0.038 A 
ATOM     36  C   UNL     1      -5.458  -1.122  -2.174  0.00  0.00    +0.123 A 
ATOM     37  C   UNL     1      -4.406  -2.022  -2.197  0.00  0.00    +0.038 A 
ATOM     38  C   UNL     1      -3.339  -1.859  -1.334  0.00  0.00    +0.006 A 
ATOM     39  F   UNL     1      -6.500  -1.278  -3.020  0.00  0.00    -0.205 F 
ENDBRANCH  32  33
ENDBRANCH  31  32
ENDBRANCH  26  31
ENDBRANCH   1  27
TORSDOF 6
