REMARK  Name = ZINC08045596
REMARK  5 active torsions:
REMARK  status: ('A' for Active; 'I' for Inactive)
REMARK    1  A    between atoms: C_1  and  C_2
REMARK    2  A    between atoms: C_3  and  C_28
REMARK    3  A    between atoms: C_11  and  C_13
REMARK    4  A    between atoms: C_13  and  C_14
REMARK    5  A    between atoms: N_16  and  N_17
REMARK                            x       y       z     vdW  Elec       q    Type
REMARK                         _______ _______ _______ _____ _____    ______ ____
ROOT
ATOM      1  C   UNL     1      -3.272   4.031  -2.546  0.00  0.00    +0.239 C 
ATOM      2  O   UNL     1      -3.782   4.386  -1.504  0.00  0.00    -0.274 OA
ATOM      3  N   UNL     1      -2.225   3.183  -2.529  0.00  0.00    -0.207 N 
ATOM      4  H   UNL     1      -1.817   2.899  -3.362  0.00  0.00    +0.177 HD
ENDROOT
BRANCH   3   5
ATOM      5  N   UNL     1      -1.726   2.710  -1.308  0.00  0.00    -0.189 NA
ATOM      6  C   UNL     1      -0.673   1.982  -1.286  0.00  0.00    +0.043 C 
ATOM      7  C   UNL     1      -0.011   1.540   0.011  0.00  0.00    +0.036 C 
ATOM      8  C   UNL     1       1.431   2.062  -0.011  0.00  0.00    +0.013 C 
ATOM      9  C   UNL     1       2.153   1.542  -1.253  0.00  0.00    -0.009 C 
ATOM     10  C   UNL     1       2.179   0.012  -1.227  0.00  0.00    +0.007 C 
ATOM     11  C   UNL     1       0.738  -0.505  -1.229  0.00  0.00    -0.009 C 
ATOM     12  C   UNL     1       0.011   0.007   0.013  0.00  0.00    +0.013 C 
ATOM     13  C   UNL     1       0.032  -0.039  -2.501  0.00  0.00    +0.013 C 
ATOM     14  C   UNL     1       0.011   1.494  -2.554  0.00  0.00    +0.036 C 
ATOM     15  C   UNL     1       1.453   2.017  -2.525  0.00  0.00    +0.013 C 
ENDBRANCH   3   5
BRANCH   1  16
ATOM     16  C   UNL     1      -3.808   4.540  -3.859  0.00  0.00    +0.171 C 
BRANCH  16  27
ATOM     17  C   UNL     1      -9.021   8.751  -3.671  0.00  0.00    +0.045 C 
ATOM     18  C   UNL     1      -8.169   8.005  -2.678  0.00  0.00    -0.026 A 
ATOM     19  C   UNL     1      -8.403   8.120  -1.361  0.00  0.00    -0.008 A 
ATOM     20  S   UNL     1      -7.160   7.072  -0.628  0.00  0.00    -0.073 S 
ATOM     21  C   UNL     1      -6.364   6.511  -2.111  0.00  0.00    +0.116 A 
ATOM     22  C   UNL     1      -7.086   7.153  -3.133  0.00  0.00    +0.075 A 
ATOM     23  C   UNL     1      -6.649   6.874  -4.469  0.00  0.00    +0.260 A 
ATOM     24  O   UNL     1      -7.212   7.383  -5.423  0.00  0.00    -0.267 OA
ATOM     25  N   UNL     1      -5.605   6.046  -4.653  0.00  0.00    -0.310 N 
ATOM     26  H   UNL     1      -5.290   5.854  -5.583  0.00  0.00    +0.170 HD
ATOM     27  C   UNL     1      -4.970   5.465  -3.603  0.00  0.00    +0.120 A 
ATOM     28  N   UNL     1      -5.344   5.700  -2.374  0.00  0.00    -0.226 NA
ATOM     29  C   UNL     1      -9.461   8.939  -0.667  0.00  0.00    +0.052 C 
ENDBRANCH  16  27
ENDBRANCH   1  16
TORSDOF 3
