REMARK  Name = ZINC16809344
REMARK  13 active torsions:
REMARK  status: ('A' for Active; 'I' for Inactive)
REMARK    1  A    between atoms: C_1  and  C_2
REMARK    2  A    between atoms: C_2  and  C_3
REMARK    3  A    between atoms: C_2  and  C_4
REMARK    4  A    between atoms: C_4  and  C_6
REMARK    5  A    between atoms: C_4  and  N_24
REMARK    6  A    between atoms: C_6  and  O_8
REMARK    7  A    between atoms: O_8  and  C_9
REMARK    8  A    between atoms: C_9  and  C_10
REMARK    9  A    between atoms: N_12  and  C_13
REMARK   10  A    between atoms: N_12  and  C_18
REMARK   11  A    between atoms: C_13  and  C_14
REMARK   12  A    between atoms: C_14  and  C_15
REMARK   13  A    between atoms: C_25  and  C_27
REMARK                            x       y       z     vdW  Elec       q    Type
REMARK                         _______ _______ _______ _____ _____    ______ ____
ROOT
ATOM      1  C   UNL     1      -3.416  -2.401   1.727  0.00  0.00    +0.328 C 
ATOM      2  O   UNL     1      -2.915  -2.954   0.776  0.00  0.00    -0.249 OA
ENDROOT
BRANCH   1   3
ATOM      3  C   UNL     1      -4.495  -3.092   2.519  0.00  0.00    +0.185 C 
BRANCH   3   4
ATOM      4  N   UNL     1      -4.756  -4.413   1.940  0.00  0.00    -0.298 N 
ATOM      5  C   UNL     1      -5.955  -5.001   2.116  0.00  0.00    +0.246 C 
ATOM      6  O   UNL     1      -6.821  -4.436   2.756  0.00  0.00    -0.270 OA
ATOM      7  H   UNL     1      -4.065  -4.863   1.430  0.00  0.00    +0.150 HD
BRANCH   5   8
ATOM      8  C   UNL     1      -6.218  -6.332   1.533  0.00  0.00    +0.055 A 
ATOM      9  C   UNL     1      -5.225  -6.984   0.798  0.00  0.00    +0.016 A 
ATOM     10  C   UNL     1      -5.476  -8.226   0.256  0.00  0.00    +0.021 A 
ATOM     11  C   UNL     1      -6.710  -8.829   0.438  0.00  0.00    +0.042 A 
ATOM     12  C   UNL     1      -7.699  -8.189   1.165  0.00  0.00    +0.040 A 
ATOM     13  C   UNL     1      -7.459  -6.947   1.718  0.00  0.00    +0.054 A 
ATOM     14 CL   UNL     1      -8.697  -6.149   2.637  0.00  0.00    -0.083 Cl
ATOM     15 CL   UNL     1      -7.018 -10.394  -0.249  0.00  0.00    -0.083 Cl
ENDBRANCH   5   8
ENDBRANCH   3   4
BRANCH   3  17
ATOM     16  C   UNL     1      -2.695  -3.982   4.005  0.00  0.00    +0.009 C 
ATOM     17  C   UNL     1      -4.039  -3.253   3.970  0.00  0.00    +0.014 C 
ATOM     18  C   UNL     1      -3.887  -1.872   4.613  0.00  0.00    +0.009 C 
ENDBRANCH   3  17
ENDBRANCH   1   3
BRANCH   1  19
ATOM     19  O   UNL     1      -3.010  -1.170   2.077  0.00  0.00    -0.454 OA
BRANCH  19  20
ATOM     20  C   UNL     1      -1.967  -0.565   1.269  0.00  0.00    +0.328 C 
BRANCH  20  21
ATOM     21  C   UNL     1      -1.644   0.805   1.809  0.00  0.00    +0.258 C 
ATOM     22  O   UNL     1      -2.236   1.229   2.779  0.00  0.00    -0.272 OA
ATOM     23  N   UNL     1      -0.698   1.558   1.213  0.00  0.00    -0.268 N 
BRANCH  23  24
ATOM     24  C   UNL     1      -0.322   2.782   1.777  0.00  0.00    +0.036 A 
ATOM     25  C   UNL     1      -1.218   3.842   1.802  0.00  0.00    +0.023 A 
ATOM     26  C   UNL     1      -0.845   5.047   2.365  0.00  0.00    +0.002 A 
ATOM     27  C   UNL     1       0.423   5.202   2.892  0.00  0.00    +0.000 A 
ATOM     28  C   UNL     1       1.321   4.151   2.863  0.00  0.00    +0.002 A 
ATOM     29  C   UNL     1       0.952   2.941   2.307  0.00  0.00    +0.023 A 
ENDBRANCH  23  24
BRANCH  23  30
ATOM     30  C   UNL     1      -0.065   1.096  -0.024  0.00  0.00    +0.123 C 
BRANCH  30  31
ATOM     31  C   UNL     1      -0.863   1.604  -1.226  0.00  0.00    +0.115 C 
BRANCH  31  32
ATOM     32  C   UNL     1      -0.212   1.128  -2.499  0.00  0.00    +0.212 C 
ATOM     33  O   UNL     1       0.792   0.449  -2.450  0.00  0.00    -0.276 OA
ATOM     34  N   UNL     1      -0.745   1.456  -3.693  0.00  0.00    -0.329 N 
ATOM     35  H   UNL     1      -1.548   1.999  -3.732  0.00  0.00    +0.145 HD
ATOM     36  H   UNL     1      -0.326   1.150  -4.512  0.00  0.00    +0.145 HD
ENDBRANCH  31  32
ENDBRANCH  30  31
ENDBRANCH  23  30
ENDBRANCH  20  21
ENDBRANCH  19  20
ENDBRANCH   1  19
TORSDOF 11
