REMARK  Name = ZINC30823045
REMARK  5 active torsions:
REMARK  status: ('A' for Active; 'I' for Inactive)
REMARK    1  A    between atoms: C_1  and  C_2
REMARK    2  A    between atoms: C_2  and  C_3
REMARK    3  A    between atoms: C_9  and  C_11
REMARK    4  A    between atoms: C_11  and  N_12
REMARK    5  A    between atoms: C_22  and  C_24
REMARK                            x       y       z     vdW  Elec       q    Type
REMARK                         _______ _______ _______ _____ _____    ______ ____
ROOT
ATOM      1  N   UNL     1       1.810   4.285  -0.874  0.00  0.00    -0.308 N 
ATOM      2  C   UNL     1       2.509   5.459  -1.129  0.00  0.00    +0.052 A 
ATOM      3  C   UNL     1       3.043   5.707  -2.388  0.00  0.00    +0.025 A 
ATOM      4  C   UNL     1       3.750   6.875  -2.609  0.00  0.00    +0.002 A 
ATOM      5  C   UNL     1       3.929   7.791  -1.588  0.00  0.00    +0.002 A 
ATOM      6  C   UNL     1       3.393   7.548  -0.334  0.00  0.00    +0.025 A 
ATOM      7  C   UNL     1       2.677   6.382  -0.118  0.00  0.00    +0.052 A 
ATOM      8  N   UNL     1       2.075   6.108   1.107  0.00  0.00    -0.316 N 
ATOM      9  C   UNL     1       2.431   5.060   1.894  0.00  0.00    +0.017 C 
ATOM     10  C   UNL     1       2.656   3.819   1.426  0.00  0.00    +0.037 C 
ATOM     11  C   UNL     1       2.498   3.360  -0.004  0.00  0.00    +0.146 C 
ATOM     12  C   UNL     1       3.088   2.801   2.310  0.00  0.00    +0.163 C 
ATOM     13  O   UNL     1       3.285   1.687   1.867  0.00  0.00    -0.292 OA
ATOM     14  C   UNL     1       3.312   3.044   3.772  0.00  0.00    +0.080 C 
ATOM     15  C   UNL     1       3.675   4.519   3.982  0.00  0.00    +0.014 C 
ATOM     16  C   UNL     1       2.557   5.366   3.374  0.00  0.00    +0.051 C 
ATOM     17  H   UNL     1       1.268   6.756   1.481  0.00  0.00    +0.152 HD
ENDROOT
BRANCH  11  18
ATOM     18  C   UNL     1       1.742   2.057  -0.004  0.00  0.00    +0.015 A 
ATOM     19  C   UNL     1       2.223   0.790  -0.015  0.00  0.00    +0.013 A 
ATOM     20  C   UNL     1       1.332  -0.266  -0.012  0.00  0.00    +0.008 A 
ATOM     21  C   UNL     1       0.002  -0.004   0.002  0.00  0.00    +0.045 A 
ATOM     22  S   UNL     1      -0.022   1.781   0.012  0.00  0.00    -0.099 S 
ENDBRANCH  11  18
BRANCH   1  23
ATOM     23  C   UNL     1       1.406   3.630  -2.125  0.00  0.00    +0.202 C 
BRANCH  23  30
ATOM     24  C   UNL     1      -2.482   6.317  -6.390  0.00  0.00    +0.103 A 
ATOM     25  N   UNL     1      -2.077   6.840  -5.250  0.00  0.00    -0.145 NA
ATOM     26  N   UNL     1      -1.305   6.197  -4.486  0.00  0.00    -0.126 NA
ATOM     27  C   UNL     1      -0.863   4.990  -4.794  0.00  0.00    +0.188 A 
ATOM     28  S   UNL     1      -1.641   4.740  -6.330  0.00  0.00    -0.035 S 
ATOM     29  N   UNL     1      -0.014   4.148  -4.084  0.00  0.00    -0.262 N 
ATOM     30  C   UNL     1       0.486   4.542  -2.896  0.00  0.00    +0.236 C 
ATOM     31  O   UNL     1       0.195   5.630  -2.446  0.00  0.00    -0.274 OA
ATOM     32  H   UNL     1       0.250   3.161  -4.491  0.00  0.00    +0.157 HD
BRANCH  24  34
ATOM     33  C   UNL     1      -2.567   7.661  -8.473  0.00  0.00    +0.011 C 
ATOM     34  C   UNL     1      -3.395   6.887  -7.445  0.00  0.00    +0.061 C 
ENDBRANCH  24  34
ENDBRANCH  23  30
ENDBRANCH   1  23
TORSDOF 4
