REMARK  Name = ZINC13640473
REMARK  4 active torsions:
REMARK  status: ('A' for Active; 'I' for Inactive)
REMARK    1  A    between atoms: C_6  and  C_7
REMARK    2  A    between atoms: C_23  and  C_26
REMARK    3  A    between atoms: C_29  and  O_33
REMARK    4  A    between atoms: C_31  and  O_32
REMARK                            x       y       z     vdW  Elec       q    Type
REMARK                         _______ _______ _______ _____ _____    ______ ____
ROOT
ATOM      1  C   UNL     1      -2.824   0.891   2.256  0.00  0.00    +0.015 A 
ATOM      2  C   UNL     1      -3.670  -0.074   2.752  0.00  0.00    +0.024 A 
ATOM      3  C   UNL     1      -4.967   0.260   3.133  0.00  0.00    +0.031 A 
ATOM      4  C   UNL     1      -5.424   1.568   3.024  0.00  0.00    -0.019 A 
ATOM      5  C   UNL     1      -4.571   2.540   2.533  0.00  0.00    +0.019 A 
ATOM      6  C   UNL     1      -3.270   2.211   2.150  0.00  0.00    +0.037 A 
ATOM      7  C   UNL     1      -6.810   1.967   3.420  0.00  0.00    +0.049 C 
ATOM      8  C   UNL     1      -6.815   2.715   4.732  0.00  0.00    -0.023 C 
ATOM      9  C   UNL     1      -7.879   2.402   5.430  0.00  0.00    -0.030 C 
ATOM     10  C   UNL     1      -8.735   1.403   4.673  0.00  0.00    +0.033 C 
ATOM     11  C   UNL     1      -7.734   0.759   3.670  0.00  0.00    +0.029 C 
ATOM     12  C   UNL     1      -6.971  -0.334   4.424  0.00  0.00    +0.108 C 
ATOM     13  N   UNL     1      -5.806  -0.735   3.629  0.00  0.00    -0.336 N 
ATOM     14  H   UNL     1      -5.625  -1.672   3.453  0.00  0.00    +0.147 HD
ENDROOT
BRANCH   6  15
ATOM     15  C   UNL     1      -2.369   3.255   1.627  0.00  0.00    +0.247 C 
ATOM     16  O   UNL     1      -2.526   4.415   1.956  0.00  0.00    -0.270 OA
ATOM     17  N   UNL     1      -1.371   2.923   0.784  0.00  0.00    -0.298 N 
ATOM     18  C   UNL     1      -0.603   4.005   0.140  0.00  0.00    +0.108 C 
ATOM     19  C   UNL     1       0.908   3.709   0.112  0.00  0.00    +0.019 C 
ATOM     20  C   UNL     1       1.337   3.094   1.421  0.00  0.00    +0.002 C 
ATOM     21  C   UNL     1       1.260   1.574   1.315  0.00  0.00    +0.002 C 
ATOM     22  C   UNL     1      -0.071   1.014   1.593  0.00  0.00    +0.019 C 
ATOM     23  C   UNL     1      -1.097   1.523   0.551  0.00  0.00    +0.108 C 
ENDBRANCH   6  15
BRANCH  12  24
ATOM     24  C   UNL     1      -6.512   0.200   5.757  0.00  0.00    +0.015 A 
ATOM     25  C   UNL     1      -5.289   0.834   5.863  0.00  0.00    +0.012 A 
ATOM     26  C   UNL     1      -4.866   1.324   7.083  0.00  0.00    +0.046 A 
ATOM     27  C   UNL     1      -5.669   1.182   8.206  0.00  0.00    +0.120 A 
ATOM     28  C   UNL     1      -6.897   0.546   8.102  0.00  0.00    +0.091 A 
ATOM     29  C   UNL     1      -7.321   0.059   6.875  0.00  0.00    +0.125 A 
BRANCH  29  30
ATOM     30  O   UNL     1      -8.527  -0.559   6.769  0.00  0.00    -0.506 OA
ATOM     31  H   UNL     1      -8.493  -1.514   6.918  0.00  0.00    +0.292 HD
ENDBRANCH  29  30
BRANCH  27  32
ATOM     32  O   UNL     1      -5.252   1.664   9.406  0.00  0.00    -0.507 OA
ATOM     33  H   UNL     1      -5.517   2.578   9.576  0.00  0.00    +0.292 HD
ENDBRANCH  27  32
ENDBRANCH  12  24
TORSDOF 4
