REMARK  Name = ZINC03423372
REMARK  7 active torsions:
REMARK  status: ('A' for Active; 'I' for Inactive)
REMARK    1  A    between atoms: C_1  and  C_2
REMARK    2  A    between atoms: C_5  and  N_9
REMARK    3  A    between atoms: C_6  and  C_8
REMARK    4  A    between atoms: C_19  and  N_20
REMARK    5  A    between atoms: N_20  and  N_21
REMARK    6  A    between atoms: C_22  and  C_24
REMARK    7  A    between atoms: C_29  and  N_30
REMARK                            x       y       z     vdW  Elec       q    Type
REMARK                         _______ _______ _______ _____ _____    ______ ____
ROOT
ATOM      1  N   UNL     1      -2.505   2.889   4.794  0.00  0.00    -0.202 N 
ATOM      2  C   UNL     1      -3.069   1.994   5.620  0.00  0.00    +0.258 C 
ATOM      3  O   UNL     1      -2.940   0.806   5.392  0.00  0.00    -0.269 OA
ATOM      4  C   UNL     1      -3.838   2.424   6.794  0.00  0.00    +0.046 A 
ATOM      5  C   UNL     1      -4.427   1.498   7.657  0.00  0.00    +0.014 A 
ATOM      6  C   UNL     1      -5.141   1.942   8.749  0.00  0.00    +0.001 A 
ATOM      7  C   UNL     1      -5.282   3.300   8.999  0.00  0.00    +0.001 A 
ATOM      8  C   UNL     1      -4.708   4.231   8.159  0.00  0.00    +0.009 A 
ATOM      9  C   UNL     1      -3.984   3.803   7.052  0.00  0.00    +0.000 A 
ATOM     10  C   UNL     1      -3.349   4.758   6.121  0.00  0.00    +0.060 C 
ATOM     11  C   UNL     1      -3.454   6.117   6.318  0.00  0.00    +0.101 C 
ATOM     12  C   UNL     1      -2.599   4.216   4.982  0.00  0.00    +0.259 C 
ATOM     13  O   UNL     1      -2.060   4.976   4.199  0.00  0.00    -0.269 OA
ENDROOT
BRANCH   1  18
ATOM     14  C   UNL     1       0.425   0.988   0.321  0.00  0.00    +0.044 C 
ATOM     15  C   UNL     1      -0.353   1.493   1.509  0.00  0.00    -0.050 A 
ATOM     16  C   UNL     1      -1.707   1.748   1.389  0.00  0.00    +0.005 A 
ATOM     17  C   UNL     1      -2.424   2.205   2.477  0.00  0.00    +0.024 A 
ATOM     18  C   UNL     1      -1.782   2.420   3.690  0.00  0.00    +0.047 A 
ATOM     19  C   UNL     1      -0.421   2.168   3.805  0.00  0.00    -0.028 A 
ATOM     20  C   UNL     1       0.289   1.706   2.715  0.00  0.00    +0.008 A 
ATOM     21  C   UNL     1       0.280   2.400   5.119  0.00  0.00    +0.046 C 
ENDBRANCH   1  18
BRANCH  11  22
ATOM     22  N   UNL     1      -3.632   6.610   7.571  0.00  0.00    -0.271 N 
ATOM     23  H   UNL     1      -3.578   6.018   8.338  0.00  0.00    +0.169 HD
BRANCH  22  24
ATOM     24  N   UNL     1      -3.893   7.974   7.757  0.00  0.00    -0.233 N 
ATOM     25  C   UNL     1      -4.070   8.463   9.001  0.00  0.00    +0.262 C 
ATOM     26  O   UNL     1      -4.002   7.721   9.961  0.00  0.00    -0.269 OA
ATOM     27  H   UNL     1      -3.947   8.566   6.991  0.00  0.00    +0.173 HD
BRANCH  25  28
ATOM     28  C   UNL     1      -4.345   9.900   9.197  0.00  0.00    +0.062 A 
ATOM     29  C   UNL     1      -3.932  10.831   8.241  0.00  0.00    +0.015 A 
ATOM     30  C   UNL     1      -4.193  12.171   8.429  0.00  0.00    +0.001 A 
ATOM     31  C   UNL     1      -4.863  12.600   9.563  0.00  0.00    +0.002 A 
ATOM     32  C   UNL     1      -5.277  11.691  10.516  0.00  0.00    +0.027 A 
ATOM     33  C   UNL     1      -5.028  10.337  10.340  0.00  0.00    +0.058 A 
BRANCH  33  34
ATOM     34  N   UNL     1      -5.450   9.415  11.301  0.00  0.00    -0.322 N 
ATOM     35  C   UNL     1      -6.263   8.341  11.071  0.00  0.00    +0.091 A 
ATOM     36  C   UNL     1      -6.441   7.691  12.238  0.00  0.00    +0.019 A 
ATOM     37  C   UNL     1      -5.721   8.391  13.227  0.00  0.00    +0.019 A 
ATOM     38  C   UNL     1      -5.125   9.441  12.628  0.00  0.00    +0.091 A 
ENDBRANCH  33  34
ENDBRANCH  25  28
ENDBRANCH  22  24
ENDBRANCH  11  22
TORSDOF 5
