REMARK  Name = ZINC32666522
REMARK  11 active torsions:
REMARK  status: ('A' for Active; 'I' for Inactive)
REMARK    1  A    between atoms: C_1  and  C_2
REMARK    2  A    between atoms: C_2  and  N_3
REMARK    3  A    between atoms: N_3  and  C_4
REMARK    4  A    between atoms: C_5  and  N_20
REMARK    5  A    between atoms: N_6  and  C_13
REMARK    6  A    between atoms: C_13  and  C_14
REMARK    7  A    between atoms: C_21  and  C_23
REMARK    8  A    between atoms: C_23  and  O_24
REMARK    9  A    between atoms: O_24  and  C_25
REMARK   10  A    between atoms: C_25  and  C_27
REMARK   11  A    between atoms: C_28  and  C_29
REMARK                            x       y       z     vdW  Elec       q    Type
REMARK                         _______ _______ _______ _____ _____    ______ ____
ROOT
ATOM      1  N   UNL     1       4.736   1.645   0.021  0.00  0.00    -0.262 N 
ATOM      2  C   UNL     1       3.524   2.199   0.231  0.00  0.00    +0.258 C 
ATOM      3  O   UNL     1       3.429   3.390   0.440  0.00  0.00    -0.272 OA
ENDROOT
BRANCH   1   4
ATOM      4  C   UNL     1       5.883   2.464  -0.053  0.00  0.00    +0.140 A 
ATOM      5  C   UNL     1       6.013   3.400  -1.058  0.00  0.00    +0.128 A 
ATOM      6  N   UNL     1       7.139   4.188  -1.101  0.00  0.00    -0.276 N 
ATOM      7  C   UNL     1       8.109   4.040  -0.180  0.00  0.00    +0.331 A 
ATOM      8  O   UNL     1       9.100   4.742  -0.238  0.00  0.00    -0.246 OA
ATOM      9  N   UNL     1       8.002   3.128   0.803  0.00  0.00    -0.273 N 
ATOM     10  H   UNL     1       8.807   3.024   1.546  0.00  0.00    +0.173 HD
ATOM     11  C   UNL     1       6.916   2.336   0.893  0.00  0.00    +0.277 A 
ATOM     12  O   UNL     1       6.830   1.513   1.790  0.00  0.00    -0.266 OA
BRANCH   5  13
ATOM     13  N   UNL     1       5.025   3.548  -2.003  0.00  0.00    -0.343 N 
ATOM     14  H   UNL     1       5.135   4.296  -2.801  0.00  0.00    +0.144 HD
ATOM     15  H   UNL     1       4.125   2.917  -1.960  0.00  0.00    +0.144 HD
ENDBRANCH   5  13
BRANCH   6  16
ATOM     16  C   UNL     1       7.288   5.190  -2.159  0.00  0.00    +0.163 C 
BRANCH  16  17
ATOM     17  C   UNL     1       7.975   4.567  -3.348  0.00  0.00    -0.028 A 
ATOM     18  C   UNL     1       9.353   4.604  -3.446  0.00  0.00    +0.005 A 
ATOM     19  C   UNL     1       9.984   4.029  -4.534  0.00  0.00    +0.000 A 
ATOM     20  C   UNL     1       9.235   3.426  -5.528  0.00  0.00    +0.000 A 
ATOM     21  C   UNL     1       7.856   3.395  -5.432  0.00  0.00    +0.000 A 
ATOM     22  C   UNL     1       7.226   3.965  -4.341  0.00  0.00    +0.005 A 
ENDBRANCH  16  17
ENDBRANCH   6  16
ENDBRANCH   1   4
BRANCH   1  24
ATOM     23  C   UNL     1       4.763  -0.175  -1.612  0.00  0.00    +0.025 C 
ATOM     24  C   UNL     1       4.862   0.193  -0.130  0.00  0.00    +0.110 C 
ENDBRANCH   1  24
BRANCH   2  25
ATOM     25  C   UNL     1       2.288   1.338   0.207  0.00  0.00    +0.328 C 
BRANCH  25  26
ATOM     26  O   UNL     1       1.137   2.149   0.455  0.00  0.00    -0.452 OA
BRANCH  26  27
ATOM     27  C   UNL     1      -0.060   1.526   0.467  0.00  0.00    +0.332 C 
ATOM     28  O   UNL     1      -0.124   0.328   0.272  0.00  0.00    -0.246 OA
BRANCH  27  29
ATOM     29  C   UNL     1      -1.280   2.294   0.707  0.00  0.00    +0.092 C 
ATOM     30  C   UNL     1      -2.478   1.673   0.714  0.00  0.00    +0.015 C 
BRANCH  30  31
ATOM     31  C   UNL     1      -3.707   2.445   0.956  0.00  0.00    -0.023 A 
ATOM     32  C   UNL     1      -4.950   1.804   0.964  0.00  0.00    +0.009 A 
ATOM     33  C   UNL     1      -6.097   2.534   1.191  0.00  0.00    +0.022 A 
ATOM     34  C   UNL     1      -6.021   3.900   1.412  0.00  0.00    +0.059 A 
ATOM     35  C   UNL     1      -4.793   4.542   1.406  0.00  0.00    +0.060 A 
ATOM     36  C   UNL     1      -3.636   3.823   1.186  0.00  0.00    +0.029 A 
ATOM     37 CL   UNL     1      -4.709   6.254   1.684  0.00  0.00    -0.082 Cl
ATOM     38 CL   UNL     1      -7.471   4.810   1.697  0.00  0.00    -0.082 Cl
ENDBRANCH  30  31
ENDBRANCH  27  29
ENDBRANCH  26  27
ENDBRANCH  25  26
ENDBRANCH   2  25
TORSDOF 10
