REMARK  Name = ZINC39452715
REMARK  4 active torsions:
REMARK  status: ('A' for Active; 'I' for Inactive)
REMARK    1  A    between atoms: C_4  and  O_36
REMARK    2  A    between atoms: C_5  and  C_7
REMARK    3  A    between atoms: C_26  and  C_29
REMARK    4  A    between atoms: C_34  and  O_35
REMARK                            x       y       z     vdW  Elec       q    Type
REMARK                         _______ _______ _______ _____ _____    ______ ____
ROOT
ATOM      1  C   UNL     1       1.681  -1.448   0.569  0.00  0.00    -0.005 A 
ATOM      2  C   UNL     1       1.169  -1.991  -0.597  0.00  0.00    +0.009 A 
ATOM      3  C   UNL     1       1.111  -3.370  -0.769  0.00  0.00    +0.003 A 
ATOM      4  C   UNL     1       1.552  -4.223   0.197  0.00  0.00    +0.028 A 
ATOM      5  C   UNL     1       2.081  -3.719   1.400  0.00  0.00    +0.072 A 
ATOM      6  C   UNL     1       2.152  -2.313   1.587  0.00  0.00    +0.009 A 
ATOM      7  C   UNL     1       2.684  -1.801   2.779  0.00  0.00    +0.026 A 
ATOM      8  C   UNL     1       3.125  -2.707   3.733  0.00  0.00    +0.069 A 
ATOM      9  C   UNL     1       3.026  -4.102   3.479  0.00  0.00    +0.100 A 
ATOM     10  N   UNL     1       2.513  -4.551   2.350  0.00  0.00    -0.245 NA
ATOM     11  C   UNL     1       3.501  -5.028   4.520  0.00  0.00    +0.083 A 
ATOM     12  C   UNL     1       4.027  -4.529   5.696  0.00  0.00    +0.127 A 
ATOM     13  N   UNL     1       4.111  -3.159   5.918  0.00  0.00    -0.213 N 
ATOM     14  C   UNL     1       3.695  -2.257   5.011  0.00  0.00    +0.276 A 
ATOM     15  O   UNL     1       3.791  -1.067   5.248  0.00  0.00    -0.266 OA
ATOM     16 CL   UNL     1       4.767  -2.601   7.396  0.00  0.00    +0.022 Cl
ATOM     17  C   UNL     1       4.490  -5.420   6.691  0.00  0.00    +0.185 C 
ATOM     18  O   UNL     1       4.906  -4.981   7.745  0.00  0.00    -0.290 OA
ATOM     19  C   UNL     1       4.473  -6.908   6.459  0.00  0.00    +0.108 C 
ATOM     20  C   UNL     1       3.322  -7.261   5.510  0.00  0.00    +0.112 C 
ATOM     21  N   UNL     1       3.419  -6.394   4.326  0.00  0.00    -0.333 N 
ATOM     22  H   UNL     1       3.425  -6.770   3.432  0.00  0.00    +0.147 HD
ENDROOT
BRANCH   1  27
ATOM     23  C   UNL     1       0.629   2.134   0.986  0.00  0.00    +0.001 A 
ATOM     24  C   UNL     1       1.855   2.770   1.080  0.00  0.00    +0.004 A 
ATOM     25  C   UNL     1       3.027   2.041   1.009  0.00  0.00    +0.046 A 
ATOM     26  C   UNL     1       2.980   0.666   0.843  0.00  0.00    +0.125 A 
ATOM     27  C   UNL     1       1.742   0.020   0.747  0.00  0.00    +0.024 A 
ATOM     28  C   UNL     1       0.566   0.766   0.820  0.00  0.00    +0.012 A 
BRANCH  26  29
ATOM     29  O   UNL     1       4.131  -0.051   0.772  0.00  0.00    -0.506 OA
ATOM     30  H   UNL     1       4.452  -0.365   1.629  0.00  0.00    +0.292 HD
ENDBRANCH  26  29
ENDBRANCH   1  27
BRANCH  20  31
ATOM     31  C   UNL     1       2.003  -7.031   6.203  0.00  0.00    +0.014 A 
ATOM     32  C   UNL     1       1.259  -5.903   5.915  0.00  0.00    +0.009 A 
ATOM     33  C   UNL     1       0.050  -5.691   6.551  0.00  0.00    +0.001 A 
ATOM     34  C   UNL     1      -0.418  -6.607   7.475  0.00  0.00    +0.004 A 
ATOM     35  C   UNL     1       0.322  -7.736   7.766  0.00  0.00    +0.046 A 
ATOM     36  C   UNL     1       1.533  -7.954   7.125  0.00  0.00    +0.122 A 
BRANCH  36  37
ATOM     37  O   UNL     1       2.261  -9.067   7.405  0.00  0.00    -0.506 OA
ATOM     38  H   UNL     1       2.888  -8.955   8.133  0.00  0.00    +0.292 HD
ENDBRANCH  36  37
ENDBRANCH  20  31
TORSDOF 4
