REMARK  Name = ZINC63479935
REMARK  5 active torsions:
REMARK  status: ('A' for Active; 'I' for Inactive)
REMARK    1  A    between atoms: C_1  and  O_2
REMARK    2  A    between atoms: O_2  and  C_3
REMARK    3  A    between atoms: C_7  and  N_9
REMARK    4  A    between atoms: C_14  and  C_32
REMARK    5  A    between atoms: C_32  and  C_33
REMARK                            x       y       z     vdW  Elec       q    Type
REMARK                         _______ _______ _______ _____ _____    ______ ____
ROOT
ATOM      1  N   UNL     1      -2.542  -4.067   0.016  0.00  0.00    -0.210 N 
ATOM      2  C   UNL     1      -1.438  -4.870   0.013  0.00  0.00    +0.232 C 
ATOM      3  O   UNL     1      -0.300  -4.551   0.284  0.00  0.00    -0.274 OA
ATOM      4  C   UNL     1      -1.925  -6.233  -0.398  0.00  0.00    +0.107 C 
ATOM      5  C   UNL     1      -1.402  -7.470   0.344  0.00  0.00    +0.072 C 
ATOM      6  N   UNL     1      -2.594  -8.381   0.345  0.00  0.00    -0.295 NA
ATOM      7  C   UNL     1      -3.815  -7.519   0.282  0.00  0.00    +0.136 C 
ATOM      8  C   UNL     1      -3.322  -6.132   0.336  0.00  0.00    +0.123 C 
ATOM      9  C   UNL     1      -3.716  -4.778   0.023  0.00  0.00    +0.233 C 
ATOM     10  O   UNL     1      -4.836  -4.364  -0.188  0.00  0.00    -0.274 OA
ATOM     11  C   UNL     1      -4.583  -7.829  -0.977  0.00  0.00    +0.006 A 
ATOM     12  C   UNL     1      -4.287  -7.708  -2.316  0.00  0.00    +0.046 A 
ATOM     13  C   UNL     1      -5.220  -8.082  -3.269  0.00  0.00    +0.124 A 
ATOM     14  C   UNL     1      -6.450  -8.578  -2.869  0.00  0.00    +0.040 A 
ATOM     15  C   UNL     1      -6.748  -8.702  -1.528  0.00  0.00    +0.026 A 
ATOM     16  C   UNL     1      -5.814  -8.327  -0.565  0.00  0.00    +0.039 A 
ATOM     17  N   UNL     1      -5.880  -8.359   0.830  0.00  0.00    -0.283 N 
ATOM     18  C   UNL     1      -4.751  -7.903   1.402  0.00  0.00    +0.243 C 
ATOM     19  O   UNL     1      -4.527  -7.817   2.591  0.00  0.00    -0.273 OA
ATOM     20  F   UNL     1      -4.932  -7.963  -4.583  0.00  0.00    -0.205 F 
ATOM     21  H   UNL     1      -2.562  -9.019  -0.436  0.00  0.00    +0.124 HD
ATOM     22  H   UNL     1      -6.650  -8.674   1.329  0.00  0.00    +0.155 HD
ENDROOT
BRANCH   1  27
ATOM     23  C   UNL     1      -1.200  -0.637   0.010  0.00  0.00    +0.122 A 
ATOM     24  C   UNL     1      -2.375   0.102   0.019  0.00  0.00    +0.046 A 
ATOM     25  C   UNL     1      -3.598  -0.541   0.028  0.00  0.00    +0.005 A 
ATOM     26  C   UNL     1      -3.655  -1.921   0.026  0.00  0.00    +0.024 A 
ATOM     27  C   UNL     1      -2.484  -2.666   0.017  0.00  0.00    +0.047 A 
ATOM     28  C   UNL     1      -1.255  -2.022   0.003  0.00  0.00    +0.069 A 
BRANCH  23  30
ATOM     29  C   UNL     1      -0.017   1.425   0.010  0.00  0.00    +0.277 C 
ATOM     30  O   UNL     1       0.002  -0.004   0.002  0.00  0.00    -0.495 OA
ENDBRANCH  23  30
ENDBRANCH   1  27
BRANCH   5  31
ATOM     31  C   UNL     1      -0.231  -8.101  -0.411  0.00  0.00    +0.052 C 
BRANCH  31  32
ATOM     32  C   UNL     1       0.337  -9.236   0.402  0.00  0.00    -0.040 C 
ATOM     33  C   UNL     1       0.032 -10.549   0.289  0.00  0.00    -0.001 A 
ATOM     34  C   UNL     1      -0.884 -11.285  -0.590  0.00  0.00    +0.010 A 
ATOM     35  C   UNL     1      -0.976 -12.629  -0.464  0.00  0.00    +0.001 A 
ATOM     36  C   UNL     1      -0.220 -13.334   0.482  0.00  0.00    +0.002 A 
ATOM     37  C   UNL     1       0.643 -12.728   1.324  0.00  0.00    +0.026 A 
ATOM     38  C   UNL     1       0.820 -11.317   1.280  0.00  0.00    +0.043 A 
ATOM     39  N   UNL     1       1.582 -10.510   1.978  0.00  0.00    -0.380 N 
ATOM     40  C   UNL     1       1.367  -9.138   1.504  0.00  0.00    +0.144 C 
ATOM     41  H   UNL     1       2.188 -10.776   2.686  0.00  0.00    +0.160 HD
ENDBRANCH  31  32
ENDBRANCH   5  31
TORSDOF 4
