REMARK  Name = ZINC32126794
REMARK  3 active torsions:
REMARK  status: ('A' for Active; 'I' for Inactive)
REMARK    1  A    between atoms: C_6  and  C_11
REMARK    2  A    between atoms: N_13  and  C_14
REMARK    3  A    between atoms: C_14  and  N_16
REMARK                            x       y       z     vdW  Elec       q    Type
REMARK                         _______ _______ _______ _____ _____    ______ ____
ROOT
ATOM      1  C   UNL     1       2.223   9.457   0.030  0.00  0.00    +0.163 C 
ATOM      2  S   UNL     1       0.733  10.300   0.049  0.00  0.00    -0.016 S 
ENDROOT
BRANCH   1   3
ATOM      3  N   UNL     1       3.384  10.140   0.022  0.00  0.00    -0.169 NA
ATOM      4  C   UNL     1       3.373  11.525   0.030  0.00  0.00    +0.163 A 
ATOM      5  N   UNL     1       4.388  12.356   0.024  0.00  0.00    -0.334 N 
ATOM      6  C   UNL     1       4.228  13.698   0.032  0.00  0.00    +0.075 A 
ATOM      7  C   UNL     1       2.891  14.155   0.048  0.00  0.00    +0.040 A 
ATOM      8  S   UNL     1       1.972  12.634   0.042  0.00  0.00    -0.052 S 
ATOM      9  C   UNL     1       2.562  15.487   0.057  0.00  0.00    +0.019 A 
ATOM     10  C   UNL     1       3.566  16.438   0.052  0.00  0.00    +0.022 A 
ATOM     11  C   UNL     1       4.892  16.027   0.037  0.00  0.00    +0.061 A 
ATOM     12  C   UNL     1       5.230  14.697   0.027  0.00  0.00    +0.084 A 
ATOM     13 CL   UNL     1       6.903  14.236   0.009  0.00  0.00    -0.080 Cl
ATOM     14 CL   UNL     1       6.151  17.223   0.031  0.00  0.00    -0.082 Cl
ATOM     15  H   UNL     1       5.417  11.968   0.012  0.00  0.00    +0.168 HD
ENDBRANCH   1   3
BRANCH   1  18
ATOM     16  C   UNL     1       1.072   7.426   0.031  0.00  0.00    +0.250 C 
ATOM     17  O   UNL     1       0.015   8.024   0.044  0.00  0.00    -0.270 OA
ATOM     18  N   UNL     1       2.234   8.109   0.023  0.00  0.00    -0.262 N 
ATOM     19  H   UNL     1       3.191   7.567   0.010  0.00  0.00    +0.157 HD
BRANCH  16  25
ATOM     20  C   UNL     1      -0.013   1.076   0.008  0.00  0.00    +0.001 A 
ATOM     21  C   UNL     1      -1.235   1.745   0.018  0.00  0.00    +0.001 A 
ATOM     22  C   UNL     1      -1.288   3.105   0.031  0.00  0.00    +0.008 A 
ATOM     23  C   UNL     1      -0.094   3.849   0.024  0.00  0.00    -0.017 A 
ATOM     24  C   UNL     1      -0.113   5.251   0.031  0.00  0.00    +0.021 A 
ATOM     25  C   UNL     1       1.084   5.949   0.023  0.00  0.00    +0.038 A 
ATOM     26  C   UNL     1       2.311   5.261   0.007  0.00  0.00    +0.013 A 
ATOM     27  C   UNL     1       2.348   3.904   0.000  0.00  0.00    +0.009 A 
ATOM     28  C   UNL     1       1.150   3.167   0.008  0.00  0.00    -0.018 A 
ATOM     29  C   UNL     1       1.163   1.762   0.000  0.00  0.00    +0.008 A 
ENDBRANCH  16  25
ENDBRANCH   1  18
TORSDOF 3
