REMARK  Name = ZINC28058091
REMARK  6 active torsions:
REMARK  status: ('A' for Active; 'I' for Inactive)
REMARK    1  A    between atoms: C_1  and  C_2
REMARK    2  A    between atoms: C_10  and  C_18
REMARK    3  A    between atoms: C_23  and  O_24
REMARK    4  A    between atoms: O_24  and  C_25
REMARK    5  A    between atoms: C_26  and  C_29
REMARK    6  A    between atoms: C_34  and  C_35
REMARK                            x       y       z     vdW  Elec       q    Type
REMARK                         _______ _______ _______ _____ _____    ______ ____
ROOT
ATOM      1  C   UNL     1       6.041   3.510  -3.723  0.00  0.00    +0.044 C 
ATOM      2  C   UNL     1       5.211   3.359  -2.474  0.00  0.00    -0.050 A 
ATOM      3  C   UNL     1       5.768   3.641  -1.239  0.00  0.00    +0.007 A 
ATOM      4  C   UNL     1       5.020   3.506  -0.083  0.00  0.00    +0.046 A 
ATOM      5  C   UNL     1       3.706   3.086  -0.162  0.00  0.00    +0.131 A 
ATOM      6  C   UNL     1       3.140   2.801  -1.412  0.00  0.00    +0.038 A 
ATOM      7  C   UNL     1       3.898   2.938  -2.567  0.00  0.00    +0.016 A 
ATOM      8  C   UNL     1       1.727   2.355  -1.460  0.00  0.00    +0.050 C 
ATOM      9  C   UNL     1       1.158   1.925  -0.332  0.00  0.00    +0.026 C 
ATOM     10  C   UNL     1      -0.279   1.469  -0.275  0.00  0.00    +0.177 C 
ATOM     11  N   UNL     1      -0.973   1.841  -1.499  0.00  0.00    -0.201 N 
ATOM     12  C   UNL     1      -0.346   2.276  -2.623  0.00  0.00    +0.240 A 
ATOM     13  N   UNL     1      -1.265   2.503  -3.518  0.00  0.00    -0.092 NA
ATOM     14  N   UNL     1      -2.432   2.249  -3.033  0.00  0.00    -0.021 NA
ATOM     15  N   UNL     1      -2.333   1.842  -1.808  0.00  0.00    -0.042 NA
ATOM     16  N   UNL     1       1.032   2.410  -2.674  0.00  0.00    -0.282 N 
ATOM     17  C   UNL     1       1.980   1.879   0.936  0.00  0.00    +0.234 C 
ATOM     18  O   UNL     1       2.940   2.935   0.949  0.00  0.00    -0.479 OA
ATOM     19  H   UNL     1       1.581   2.554  -3.616  0.00  0.00    +0.155 HD
ENDROOT
BRANCH  17  20
ATOM     20  C   UNL     1       2.695   0.555   1.018  0.00  0.00    -0.000 A 
ATOM     21  C   UNL     1       3.069  -0.101  -0.140  0.00  0.00    +0.008 A 
ATOM     22  C   UNL     1       3.728  -1.313  -0.064  0.00  0.00    +0.000 A 
ATOM     23  C   UNL     1       4.006  -1.874   1.169  0.00  0.00    +0.000 A 
ATOM     24  C   UNL     1       3.627  -1.220   2.326  0.00  0.00    +0.004 A 
ATOM     25  C   UNL     1       2.971  -0.005   2.251  0.00  0.00    -0.043 A 
ATOM     26  C   UNL     1       2.559   0.708   3.513  0.00  0.00    +0.044 C 
ENDBRANCH  17  20
BRANCH  10  27
ATOM     27  C   UNL     1      -0.322  -0.029  -0.111  0.00  0.00    +0.023 A 
ATOM     28  C   UNL     1       0.141  -0.848  -1.123  0.00  0.00    +0.009 A 
ATOM     29  C   UNL     1       0.103  -2.222  -0.973  0.00  0.00    +0.001 A 
ATOM     30  C   UNL     1      -0.399  -2.780   0.189  0.00  0.00    +0.004 A 
ATOM     31  C   UNL     1      -0.863  -1.965   1.203  0.00  0.00    +0.046 A 
ATOM     32  C   UNL     1      -0.821  -0.585   1.057  0.00  0.00    +0.126 A 
BRANCH  32  33
ATOM     33  O   UNL     1      -1.272   0.219   2.056  0.00  0.00    -0.495 OA
ATOM     34  C   UNL     1      -1.772  -0.424   3.230  0.00  0.00    +0.277 C 
ENDBRANCH  32  33
ENDBRANCH  10  27
TORSDOF 3
