REMARK  Name = ZINC39639499
REMARK  7 active torsions:
REMARK  status: ('A' for Active; 'I' for Inactive)
REMARK    1  A    between atoms: C_1  and  C_2
REMARK    2  A    between atoms: C_2  and  C_3
REMARK    3  A    between atoms: C_3  and  C_5
REMARK    4  A    between atoms: C_3  and  C_6
REMARK    5  A    between atoms: C_10  and  C_19
REMARK    6  A    between atoms: N_21  and  C_22
REMARK    7  A    between atoms: C_22  and  C_23
REMARK                            x       y       z     vdW  Elec       q    Type
REMARK                         _______ _______ _______ _____ _____    ______ ____
ROOT
ATOM      1  C   UNL     1      -1.374  -1.931   0.441  0.00  0.00    +0.218 C 
ATOM      2  O   UNL     1      -0.371  -2.567   0.688  0.00  0.00    -0.275 OA
ATOM      3  N   UNL     1      -2.549  -2.568   0.263  0.00  0.00    -0.300 N 
ATOM      4  C   UNL     1      -3.845  -1.983  -0.155  0.00  0.00    +0.121 C 
ATOM      5  C   UNL     1      -4.455  -3.030  -1.112  0.00  0.00    +0.100 C 
ATOM      6  C   UNL     1      -3.791  -4.359  -0.715  0.00  0.00    -0.004 C 
ATOM      7  C   UNL     1      -2.834  -4.012   0.435  0.00  0.00    +0.115 C 
ATOM      8  C   UNL     1      -3.006  -4.930  -1.892  0.00  0.00    -0.010 C 
ATOM      9  C   UNL     1      -2.402  -6.279  -1.491  0.00  0.00    -0.082 C 
ATOM     10  N   UNL     1      -3.475  -7.200  -1.100  0.00  0.00    +0.379 N 
ATOM     11  C   UNL     1      -4.166  -6.689   0.090  0.00  0.00    -0.082 C 
ATOM     12  C   UNL     1      -4.844  -5.357  -0.244  0.00  0.00    -0.010 C 
ATOM     13  H   UNL     1      -4.134  -7.288  -1.859  0.00  0.00    -0.086 HD
ATOM     14  H   UNL     1      -3.081  -8.106  -0.894  0.00  0.00    -0.086 HD
ENDROOT
BRANCH   5  15
ATOM     15  C   UNL     1      -4.131  -2.686  -2.543  0.00  0.00    +0.218 C 
ATOM     16  O   UNL     1      -3.144  -2.029  -2.800  0.00  0.00    -0.275 OA
ATOM     17  N   UNL     1      -4.937  -3.108  -3.538  0.00  0.00    -0.311 N 
ATOM     18  H   UNL     1      -5.726  -3.633  -3.332  0.00  0.00    +0.149 HD
BRANCH  17  19
ATOM     19  C   UNL     1      -4.621  -2.773  -4.928  0.00  0.00    +0.142 C 
BRANCH  19  20
ATOM     20  C   UNL     1      -5.671  -3.359  -5.837  0.00  0.00    +0.005 A 
ATOM     21  C   UNL     1      -5.421  -4.541  -6.508  0.00  0.00    +0.009 A 
ATOM     22  C   UNL     1      -6.383  -5.080  -7.341  0.00  0.00    +0.016 A 
ATOM     23  C   UNL     1      -7.597  -4.437  -7.504  0.00  0.00    +0.021 A 
ATOM     24  C   UNL     1      -7.849  -3.254  -6.834  0.00  0.00    +0.054 A 
ATOM     25  C   UNL     1      -6.887  -2.717  -5.994  0.00  0.00    +0.129 A 
ATOM     26  F   UNL     1      -7.133  -1.564  -5.334  0.00  0.00    -0.205 F 
ATOM     27 BR   UNL     1      -8.913  -5.175  -8.645  0.00  0.00    -0.050 Br
ENDBRANCH  19  20
ENDBRANCH  17  19
ENDBRANCH   5  15
BRANCH   1  28
ATOM     28  C   UNL     1      -1.307  -0.429   0.332  0.00  0.00    +0.072 C 
ATOM     29  C   UNL     1       0.038  -0.022  -0.274  0.00  0.00    +0.017 C 
BRANCH  28  31
ATOM     30  C   UNL     1      -1.504   1.714   1.601  0.00  0.00    +0.004 C 
ATOM     31  C   UNL     1      -1.448   0.190   1.724  0.00  0.00    +0.009 C 
ENDBRANCH  28  31
ENDBRANCH   1  28
TORSDOF 5
