REMARK  Name = ZINC02649874
REMARK  12 active torsions:
REMARK  status: ('A' for Active; 'I' for Inactive)
REMARK    1  A    between atoms: C_1  and  C_2
REMARK    2  A    between atoms: C_4  and  C_18
REMARK    3  A    between atoms: C_5  and  C_17
REMARK    4  A    between atoms: N_6  and  C_7
REMARK    5  A    between atoms: C_10  and  O_13
REMARK    6  A    between atoms: O_13  and  C_14
REMARK    7  A    between atoms: C_18  and  C_20
REMARK    8  A    between atoms: C_20  and  S_21
REMARK    9  A    between atoms: S_21  and  C_22
REMARK   10  A    between atoms: C_24  and  C_27
REMARK   11  A    between atoms: C_27  and  O_28
REMARK   12  A    between atoms: O_28  and  C_29
REMARK                            x       y       z     vdW  Elec       q    Type
REMARK                         _______ _______ _______ _____ _____    ______ ____
ROOT
ATOM      1  C   UNL     1      -7.695   7.686   0.082  0.00  0.00    +0.175 C 
ATOM      2  O   UNL     1      -7.191   8.790   0.086  0.00  0.00    -0.291 OA
ENDROOT
BRANCH   1   6
ATOM      3  C   UNL     1     -12.383   5.690   0.094  0.00  0.00    +0.064 C 
ATOM      4  C   UNL     1     -11.219   6.647   0.094  0.00  0.00    +0.022 A 
ATOM      5  C   UNL     1      -9.922   6.295   0.085  0.00  0.00    +0.034 A 
ATOM      6  C   UNL     1      -9.153   7.547   0.088  0.00  0.00    +0.039 A 
ATOM      7  C   UNL     1     -10.087   8.566   0.104  0.00  0.00    +0.031 A 
ATOM      8  N   UNL     1     -11.314   8.010   0.102  0.00  0.00    -0.317 N 
ATOM      9  C   UNL     1      -9.785  10.042   0.118  0.00  0.00    +0.064 C 
BRANCH   8  10
ATOM     10  C   UNL     1     -12.518   8.729   0.112  0.00  0.00    +0.047 A 
ATOM     11  C   UNL     1     -12.858   9.531  -0.969  0.00  0.00    +0.030 A 
ATOM     12  C   UNL     1     -14.046  10.234  -0.961  0.00  0.00    +0.048 A 
ATOM     13  C   UNL     1     -14.896  10.147   0.132  0.00  0.00    +0.127 A 
ATOM     14  C   UNL     1     -14.555   9.350   1.216  0.00  0.00    +0.048 A 
ATOM     15  C   UNL     1     -13.369   8.643   1.206  0.00  0.00    +0.030 A 
BRANCH  13  16
ATOM     16  O   UNL     1     -16.063  10.844   0.142  0.00  0.00    -0.434 OA
BRANCH  16  17
ATOM     17  C   UNL     1     -16.351  11.644  -1.006  0.00  0.00    +0.541 C 
ATOM     18  F   UNL     1     -15.344  12.601  -1.171  0.00  0.00    -0.166 F 
ATOM     19  F   UNL     1     -16.410  10.828  -2.141  0.00  0.00    -0.166 F 
ENDBRANCH  16  17
ENDBRANCH  13  16
ENDBRANCH   8  10
ENDBRANCH   1   6
BRANCH   1  20
ATOM     20  C   UNL     1      -6.821   6.459   0.070  0.00  0.00    +0.157 C 
BRANCH  20  21
ATOM     21  S   UNL     1      -5.077   6.959   0.065  0.00  0.00    -0.079 S 
BRANCH  21  22
ATOM     22  C   UNL     1      -4.196   5.433   0.051  0.00  0.00    +0.185 A 
ATOM     23  N   UNL     1      -2.866   5.302   0.050  0.00  0.00    -0.202 NA
ATOM     24  C   UNL     1      -2.546   4.033   0.036  0.00  0.00    +0.189 A 
ATOM     25  N   UNL     1      -3.680   3.314   0.027  0.00  0.00    -0.153 NA
ATOM     26  N   UNL     1      -4.738   4.238   0.041  0.00  0.00    -0.253 N 
ATOM     27  H   UNL     1      -5.779   3.882   0.042  0.00  0.00    +0.191 HD
BRANCH  24  28
ATOM     28  C   UNL     1      -1.146   3.475   0.031  0.00  0.00    +0.306 C 
BRANCH  28  29
ATOM     29  O   UNL     1      -1.202   2.047   0.028  0.00  0.00    -0.484 OA
BRANCH  29  30
ATOM     30  C   UNL     1      -0.017   1.383   0.023  0.00  0.00    +0.121 A 
ATOM     31  C   UNL     1       1.176   2.091   0.015  0.00  0.00    +0.047 A 
ATOM     32  C   UNL     1       2.380   1.414   0.005  0.00  0.00    +0.023 A 
ATOM     33  C   UNL     1       2.397   0.030   0.002  0.00  0.00    +0.041 A 
ATOM     34  C   UNL     1       1.208  -0.678   0.009  0.00  0.00    +0.023 A 
ATOM     35  C   UNL     1       0.002  -0.004   0.019  0.00  0.00    +0.047 A 
ATOM     36 CL   UNL     1       3.911  -0.818  -0.011  0.00  0.00    -0.084 Cl
ENDBRANCH  29  30
ENDBRANCH  28  29
ENDBRANCH  24  28
ENDBRANCH  21  22
ENDBRANCH  20  21
ENDBRANCH   1  20
TORSDOF 10
