REMARK  Name = ZINC32623489
REMARK  7 active torsions:
REMARK  status: ('A' for Active; 'I' for Inactive)
REMARK    1  A    between atoms: C_1  and  C_2
REMARK    2  A    between atoms: C_5  and  C_8
REMARK    3  A    between atoms: C_8  and  C_10
REMARK    4  A    between atoms: C_8  and  N_24
REMARK    5  A    between atoms: C_10  and  N_11
REMARK    6  A    between atoms: C_12  and  C_14
REMARK    7  A    between atoms: C_16  and  C_19
REMARK                            x       y       z     vdW  Elec       q    Type
REMARK                         _______ _______ _______ _____ _____    ______ ____
ROOT
ATOM      1  C   UNL     1      -2.465   0.991  -0.020  0.00  0.00    -0.020 C 
ENDROOT
BRANCH   1   2
ATOM      2  N   UNL     1      -3.369   1.778  -0.869  0.00  0.00    +0.385 N 
ATOM      3  C   UNL     1      -4.776   1.362  -0.674  0.00  0.00    -0.078 C 
ATOM      4  C   UNL     1      -5.704   1.941  -1.707  0.00  0.00    -0.019 C 
ATOM      5  C   UNL     1      -5.853   0.922  -2.857  0.00  0.00    -0.002 C 
ATOM      6  C   UNL     1      -4.708   0.940  -3.760  0.00  0.00    -0.002 C 
ATOM      7  C   UNL     1      -3.393   0.570  -3.042  0.00  0.00    -0.019 C 
ATOM      8  C   UNL     1      -2.913   1.774  -2.277  0.00  0.00    -0.078 C 
ATOM      9  H   UNL     1      -3.328   2.831  -0.551  0.00  0.00    -0.081 HD
ENDBRANCH   1   2
BRANCH   1  14
ATOM     10  C   UNL     1       2.803   3.366  -0.108  0.00  0.00    +0.044 C 
ATOM     11  C   UNL     1       1.429   2.746  -0.082  0.00  0.00    -0.050 A 
ATOM     12  C   UNL     1       1.290   1.371  -0.111  0.00  0.00    +0.003 A 
ATOM     13  C   UNL     1       0.030   0.803  -0.088  0.00  0.00    +0.002 A 
ATOM     14  C   UNL     1      -1.091   1.610  -0.040  0.00  0.00    -0.059 A 
ATOM     15  C   UNL     1      -0.952   2.985  -0.004  0.00  0.00    +0.002 A 
ATOM     16  C   UNL     1       0.308   3.553  -0.029  0.00  0.00    +0.003 A 
ENDBRANCH   1  14
BRANCH   1  17
ATOM     17  C   UNL     1      -2.996   0.975   1.415  0.00  0.00    +0.094 C 
BRANCH  17  18
ATOM     18  N   UNL     1      -2.148   0.112   2.240  0.00  0.00    -0.311 N 
ATOM     19  C   UNL     1      -2.474  -0.120   3.527  0.00  0.00    +0.266 C 
ATOM     20  O   UNL     1      -3.470   0.387   4.003  0.00  0.00    -0.268 OA
ATOM     21  H   UNL     1      -1.246  -0.347   1.810  0.00  0.00    +0.149 HD
BRANCH  19  22
ATOM     22  C   UNL     1      -1.615  -0.995   4.364  0.00  0.00    +0.168 A 
ATOM     23  C   UNL     1      -1.816  -1.330   5.726  0.00  0.00    +0.086 A 
ATOM     24  C   UNL     1      -0.759  -2.154   6.019  0.00  0.00    +0.174 A 
ATOM     25  O   UNL     1      -0.032  -2.250   4.891  0.00  0.00    -0.353 OA
ATOM     26  N   UNL     1      -0.516  -1.606   3.990  0.00  0.00    -0.073 NA
BRANCH  24  27
ATOM     27  C   UNL     1      -0.476  -2.799   7.309  0.00  0.00    +0.057 A 
ATOM     28  C   UNL     1       0.570  -3.635   7.655  0.00  0.00    +0.019 A 
ATOM     29  C   UNL     1       0.625  -4.117   8.941  0.00  0.00    +0.008 A 
ATOM     30  C   UNL     1      -0.349  -3.770   9.824  0.00  0.00    +0.046 A 
ATOM     31  S   UNL     1      -1.397  -2.715   8.836  0.00  0.00    -0.093 S 
ENDBRANCH  24  27
ENDBRANCH  19  22
ENDBRANCH  17  18
ENDBRANCH   1  17
TORSDOF 6
