REMARK  Name = ZINC39359613
REMARK  7 active torsions:
REMARK  status: ('A' for Active; 'I' for Inactive)
REMARK    1  A    between atoms: C_1  and  O_2
REMARK    2  A    between atoms: O_2  and  C_3
REMARK    3  A    between atoms: C_6  and  C_11
REMARK    4  A    between atoms: C_8  and  O_9
REMARK    5  A    between atoms: O_9  and  C_10
REMARK    6  A    between atoms: C_14  and  C_17
REMARK    7  A    between atoms: C_19  and  C_30
REMARK                            x       y       z     vdW  Elec       q    Type
REMARK                         _______ _______ _______ _____ _____    ______ ____
ROOT
ATOM      1  C   UNL     1      -7.785  -1.452   2.247  0.00  0.00    +0.152 C 
ATOM      2  C   UNL     1      -9.116  -0.939   1.733  0.00  0.00    -0.014 C 
ATOM      3  C   UNL     1      -9.587   0.259   2.278  0.00  0.00    +0.002 A 
ATOM      4  C   UNL     1     -10.817   0.807   1.857  0.00  0.00    +0.030 A 
ATOM      5  C   UNL     1     -11.253   1.975   2.405  0.00  0.00    +0.042 A 
ATOM      6  C   UNL     1     -10.508   2.642   3.375  0.00  0.00    +0.022 A 
ATOM      7  C   UNL     1      -9.314   2.162   3.821  0.00  0.00    +0.025 A 
ATOM      8  C   UNL     1      -8.802   0.960   3.300  0.00  0.00    +0.041 A 
ATOM      9  N   UNL     1      -7.630   0.490   3.739  0.00  0.00    -0.284 N 
ATOM     10  C   UNL     1      -7.083  -0.627   3.301  0.00  0.00    +0.230 C 
ATOM     11  O   UNL     1      -6.012  -0.994   3.748  0.00  0.00    -0.274 OA
ATOM     12 CL   UNL     1     -12.767   2.646   1.883  0.00  0.00    -0.084 Cl
ATOM     13  H   UNL     1      -7.157   0.998   4.417  0.00  0.00    +0.155 HD
ENDROOT
BRANCH   1  16
ATOM     14  C   UNL     1      -4.979  -2.105  -0.342  0.00  0.00    +0.125 C 
ATOM     15  C   UNL     1      -5.492  -2.240   1.106  0.00  0.00    +0.082 C 
ATOM     16  C   UNL     1      -6.854  -1.585   1.069  0.00  0.00    +0.055 C 
ATOM     17  N   UNL     1      -7.096  -1.164  -0.104  0.00  0.00    -0.194 NA
ATOM     18  N   UNL     1      -6.078  -1.407  -1.030  0.00  0.00    -0.261 N 
ATOM     19  H   UNL     1      -6.091  -1.157  -1.967  0.00  0.00    +0.169 HD
BRANCH  14  23
ATOM     20  C   UNL     1      -1.402   0.237  -0.463  0.00  0.00    +0.162 A 
ATOM     21  C   UNL     1      -2.635   0.856  -0.325  0.00  0.00    +0.050 A 
ATOM     22  C   UNL     1      -3.789   0.096  -0.287  0.00  0.00    +0.009 A 
ATOM     23  C   UNL     1      -3.717  -1.281  -0.385  0.00  0.00    -0.022 A 
ATOM     24  C   UNL     1      -2.491  -1.905  -0.522  0.00  0.00    +0.055 A 
ATOM     25  C   UNL     1      -1.331  -1.149  -0.567  0.00  0.00    +0.162 A 
BRANCH  20  27
ATOM     26  C   UNL     1      -0.415   2.400  -0.388  0.00  0.00    +0.277 C 
ATOM     27  O   UNL     1      -0.266   0.983  -0.501  0.00  0.00    -0.491 OA
ENDBRANCH  20  27
BRANCH  25  28
ATOM     28  O   UNL     1      -0.124  -1.760  -0.708  0.00  0.00    -0.491 OA
ATOM     29  C   UNL     1      -0.127  -3.186  -0.809  0.00  0.00    +0.277 C 
ENDBRANCH  25  28
ENDBRANCH  14  23
ENDBRANCH   1  16
BRANCH   2  30
ATOM     30  C   UNL     1      -9.849  -1.642   0.744  0.00  0.00    -0.020 A 
ATOM     31  C   UNL     1     -10.094  -1.052  -0.507  0.00  0.00    +0.008 A 
ATOM     32  C   UNL     1     -10.807  -1.743  -1.461  0.00  0.00    +0.001 A 
ATOM     33  C   UNL     1     -11.282  -3.016  -1.190  0.00  0.00    +0.000 A 
ATOM     34  C   UNL     1     -11.046  -3.607   0.041  0.00  0.00    +0.001 A 
ATOM     35  C   UNL     1     -10.330  -2.935   1.006  0.00  0.00    +0.008 A 
ENDBRANCH   2  30
TORSDOF 5
