REMARK  Name = ZINC01003179
REMARK  7 active torsions:
REMARK  status: ('A' for Active; 'I' for Inactive)
REMARK    1  A    between atoms: C_1  and  C_2
REMARK    2  A    between atoms: C_4  and  C_8
REMARK    3  A    between atoms: N_5  and  C_7
REMARK    4  A    between atoms: N_10  and  C_11
REMARK    5  A    between atoms: C_11  and  N_13
REMARK    6  A    between atoms: N_13  and  C_14
REMARK    7  A    between atoms: C_15  and  C_24
REMARK                            x       y       z     vdW  Elec       q    Type
REMARK                         _______ _______ _______ _____ _____    ______ ____
ROOT
ATOM      1  C   UNL     1       1.141   2.034   0.006  0.00  0.00    +0.141 C 
ATOM      2  S   UNL     1       2.635   1.198  -0.006  0.00  0.00    -0.018 S 
ENDROOT
BRANCH   1   5
ATOM      3  C   UNL     1       0.002  -0.004   0.002  0.00  0.00    +0.269 C 
ATOM      4  O   UNL     1       1.058  -0.597  -0.102  0.00  0.00    -0.268 OA
ATOM      5  N   UNL     1      -0.017   1.344   0.009  0.00  0.00    -0.262 N 
ATOM      6  H   UNL     1      -0.863   1.817   0.011  0.00  0.00    +0.157 HD
BRANCH   3  10
ATOM      7  C   UNL     1      -4.176  -2.703  -0.989  0.00  0.00    +0.069 C 
ATOM      8  C   UNL     1      -3.082  -1.935  -0.294  0.00  0.00    +0.079 A 
ATOM      9  C   UNL     1      -1.977  -1.338  -0.909  0.00  0.00    +0.094 A 
ATOM     10  C   UNL     1      -1.254  -0.756   0.121  0.00  0.00    +0.142 A 
ATOM     11  N   UNL     1      -1.949  -1.018   1.269  0.00  0.00    -0.261 N 
ATOM     12  N   UNL     1      -3.001  -1.702   0.991  0.00  0.00    -0.175 NA
ATOM     13  C   UNL     1      -1.555  -0.585   2.612  0.00  0.00    +0.173 C 
ATOM     14 CL   UNL     1      -1.590  -1.331  -2.601  0.00  0.00    -0.079 Cl
ENDBRANCH   3  10
ENDBRANCH   1   5
BRANCH   1  15
ATOM     15  N   UNL     1       1.122   3.381   0.012  0.00  0.00    -0.290 N 
ATOM     16  H   UNL     1       0.276   3.855   0.019  0.00  0.00    +0.154 HD
BRANCH  15  17
ATOM     17  C   UNL     1       2.314   4.092   0.009  0.00  0.00    +0.089 A 
ATOM     18  C   UNL     1       2.498   5.465   0.009  0.00  0.00    +0.084 A 
ATOM     19  C   UNL     1       3.866   5.965   0.015  0.00  0.00    -0.018 A 
ATOM     20  C   UNL     1       4.821   5.011   0.000  0.00  0.00    -0.004 A 
ATOM     21  S   UNL     1       3.933   3.477  -0.002  0.00  0.00    -0.077 S 
ATOM     22  C   UNL     1       6.306   5.202  -0.024  0.00  0.00    +0.043 C 
ATOM     23  C   UNL     1       6.704   6.216   1.057  0.00  0.00    +0.005 C 
ATOM     24  C   UNL     1       6.661   7.613   0.448  0.00  0.00    +0.001 C 
ATOM     25  C   UNL     1       5.557   7.694  -0.605  0.00  0.00    +0.005 C 
ATOM     26  C   UNL     1       4.193   7.453   0.034  0.00  0.00    +0.037 C 
BRANCH  18  27
ATOM     27  C   UNL     1       1.382   6.361   0.009  0.00  0.00    +0.102 C 
ATOM     28  N   UNL     1       0.496   7.073   0.008  0.00  0.00    -0.191 NA
ENDBRANCH  18  27
ENDBRANCH  15  17
ENDBRANCH   1  15
TORSDOF 5
