REMARK  Name = ZINC04746135
REMARK  4 active torsions:
REMARK  status: ('A' for Active; 'I' for Inactive)
REMARK    1  A    between atoms: C_4  and  N_7
REMARK    2  A    between atoms: C_8  and  C_20
REMARK    3  A    between atoms: C_11  and  C_13
REMARK    4  A    between atoms: C_18  and  O_19
REMARK                            x       y       z     vdW  Elec       q    Type
REMARK                         _______ _______ _______ _____ _____    ______ ____
ROOT
ATOM      1  N   UNL     1      -3.529   1.666  -0.790  0.00  0.00    -0.216 N 
ATOM      2  C   UNL     1      -2.513   0.977   0.020  0.00  0.00    +0.134 C 
ATOM      3  C   UNL     1      -3.127   0.952   1.433  0.00  0.00    +0.087 C 
ATOM      4  C   UNL     1      -4.458   1.649   1.265  0.00  0.00    +0.072 C 
ATOM      5  N   UNL     1      -4.603   2.007   0.035  0.00  0.00    -0.183 NA
ENDROOT
BRANCH   2   6
ATOM      6  C   UNL     1      -1.219   1.750   0.017  0.00  0.00    -0.021 A 
ATOM      7  C   UNL     1      -1.241   3.132   0.029  0.00  0.00    +0.009 A 
ATOM      8  C   UNL     1      -0.057   3.845   0.020  0.00  0.00    +0.050 A 
ATOM      9  C   UNL     1       1.157   3.175   0.005  0.00  0.00    +0.162 A 
ATOM     10  C   UNL     1       1.179   1.785   0.000  0.00  0.00    +0.162 A 
ATOM     11  C   UNL     1      -0.013   1.076   0.008  0.00  0.00    +0.055 A 
ATOM     12  O   UNL     1       2.360   1.107  -0.006  0.00  0.00    -0.485 OA
ATOM     13  C   UNL     1       3.524   1.847  -0.390  0.00  0.00    +0.270 C 
ATOM     14  C   UNL     1       3.509   3.189   0.355  0.00  0.00    +0.270 C 
ATOM     15  O   UNL     1       2.315   3.890  -0.010  0.00  0.00    -0.485 OA
ENDBRANCH   2   6
BRANCH   1  19
ATOM     16  C   UNL     1      -3.244   2.466  -4.865  0.00  0.00    +0.000 A 
ATOM     17  C   UNL     1      -4.369   2.859  -4.162  0.00  0.00    +0.002 A 
ATOM     18  C   UNL     1      -4.467   2.595  -2.810  0.00  0.00    +0.025 A 
ATOM     19  C   UNL     1      -3.434   1.934  -2.156  0.00  0.00    +0.052 A 
ATOM     20  C   UNL     1      -2.303   1.546  -2.865  0.00  0.00    +0.025 A 
ATOM     21  C   UNL     1      -2.215   1.808  -4.218  0.00  0.00    +0.002 A 
ENDBRANCH   1  19
BRANCH   4  22
ATOM     22  C   UNL     1      -5.437   1.884   2.341  0.00  0.00    +0.039 A 
ATOM     23  C   UNL     1      -5.172   1.445   3.640  0.00  0.00    +0.013 A 
ATOM     24  C   UNL     1      -6.091   1.673   4.643  0.00  0.00    +0.001 A 
ATOM     25  C   UNL     1      -7.279   2.326   4.366  0.00  0.00    +0.004 A 
ATOM     26  C   UNL     1      -7.556   2.760   3.083  0.00  0.00    +0.046 A 
ATOM     27  C   UNL     1      -6.642   2.545   2.065  0.00  0.00    +0.126 A 
BRANCH  27  28
ATOM     28  O   UNL     1      -6.912   2.972   0.804  0.00  0.00    -0.506 OA
ATOM     29  H   UNL     1      -7.374   2.320   0.259  0.00  0.00    +0.292 HD
ENDBRANCH  27  28
ENDBRANCH   4  22
TORSDOF 4
