REMARK  Name = ZINC61589579
REMARK  4 active torsions:
REMARK  status: ('A' for Active; 'I' for Inactive)
REMARK    1  A    between atoms: C_3  and  C_7
REMARK    2  A    between atoms: C_3  and  O_10
REMARK    3  A    between atoms: O_10  and  C_11
REMARK    4  A    between atoms: C_11  and  C_12
REMARK                            x       y       z     vdW  Elec       q    Type
REMARK                         _______ _______ _______ _____ _____    ______ ____
ROOT
ATOM      1  C   UNL     1      -0.019   1.527   0.010  0.00  0.00    +0.014 C 
ATOM      2  C   UNL     1       1.409   2.067  -0.000  0.00  0.00    +0.048 C 
ATOM      3  C   UNL     1       2.064   1.838  -1.359  0.00  0.00    +0.178 C 
ATOM      4  C   UNL     1       2.363   0.348  -1.550  0.00  0.00    +0.115 C 
ATOM      5  S   UNL     1       0.792  -0.568  -1.536  0.00  0.00    -0.157 S 
ATOM      6  C   UNL     1       0.002  -0.004   0.002  0.00  0.00    +0.069 C 
ENDROOT
BRANCH   3   7
ATOM      7  C   UNL     1       3.350   2.620  -1.432  0.00  0.00    +0.388 C 
ATOM      8  O   UNL     1       4.244   2.399  -0.632  0.00  0.00    -0.243 OA
ATOM      9  O   UNL     1       3.498   3.472  -2.291  0.00  0.00    -0.243 OA
ENDBRANCH   3   7
BRANCH   3  10
ATOM     10  O   UNL     1       1.182   2.281  -2.392  0.00  0.00    -0.361 OA
BRANCH  10  11
ATOM     11  C   UNL     1       1.702   2.112  -3.712  0.00  0.00    +0.165 C 
BRANCH  11  12
ATOM     12  C   UNL     1       0.679   2.618  -4.732  0.00  0.00    +0.019 C 
ATOM     13  C   UNL     1      -0.572   1.735  -4.684  0.00  0.00    +0.034 C 
ATOM     14  C   UNL     1      -1.556   2.200  -5.760  0.00  0.00    +0.160 C 
ATOM     15  O   UNL     1      -0.922   2.144  -7.040  0.00  0.00    -0.380 OA
ATOM     16  C   UNL     1       0.227   2.985  -7.159  0.00  0.00    +0.160 C 
ATOM     17  C   UNL     1       1.283   2.552  -6.138  0.00  0.00    +0.034 C 
ENDBRANCH  11  12
ENDBRANCH  10  11
ENDBRANCH   3  10
TORSDOF 4
