REMARK  Name = ZINC39394393
REMARK  10 active torsions:
REMARK  status: ('A' for Active; 'I' for Inactive)
REMARK    1  A    between atoms: C_1  and  C_2
REMARK    2  A    between atoms: C_2  and  C_4
REMARK    3  A    between atoms: C_2  and  N_16
REMARK    4  A    between atoms: C_7  and  C_10
REMARK    5  A    between atoms: N_16  and  C_17
REMARK    6  A    between atoms: N_16  and  C_18
REMARK    7  A    between atoms: C_18  and  C_19
REMARK    8  A    between atoms: C_23  and  C_26
REMARK    9  A    between atoms: N_28  and  C_29
REMARK   10  A    between atoms: C_29  and  C_30
REMARK                            x       y       z     vdW  Elec       q    Type
REMARK                         _______ _______ _______ _____ _____    ______ ____
ROOT
ATOM      1  C   UNL     1       1.236   0.146   2.480  0.00  0.00    +0.033 A 
ATOM      2  N   UNL     1       1.427  -1.103   2.968  0.00  0.00    -0.324 N 
ATOM      3  C   UNL     1       2.410  -1.361   3.851  0.00  0.00    +0.261 A 
ATOM      4  O   UNL     1       2.566  -2.492   4.279  0.00  0.00    -0.267 OA
ATOM      5  C   UNL     1       3.264  -0.313   4.282  0.00  0.00    +0.101 A 
ATOM      6  C   UNL     1       3.062   0.969   3.775  0.00  0.00    +0.020 A 
ATOM      7  C   UNL     1       2.032   1.179   2.859  0.00  0.00    +0.023 A 
ATOM      8  H   UNL     1       0.846  -1.823   2.676  0.00  0.00    +0.169 HD
ENDROOT
BRANCH   5   9
ATOM      9  C   UNL     1       4.343  -0.575   5.247  0.00  0.00    +0.250 C 
ATOM     10  O   UNL     1       5.004   0.347   5.686  0.00  0.00    -0.270 OA
ATOM     11  N   UNL     1       4.599  -1.837   5.645  0.00  0.00    -0.307 N 
ATOM     12  H   UNL     1       4.122  -2.579   5.241  0.00  0.00    +0.149 HD
BRANCH  11  13
ATOM     13  C   UNL     1       5.598  -2.088   6.687  0.00  0.00    +0.141 C 
BRANCH  13  14
ATOM     14  C   UNL     1       5.693  -3.570   6.945  0.00  0.00    -0.012 A 
ATOM     15  C   UNL     1       5.040  -4.126   8.029  0.00  0.00    +0.006 A 
ATOM     16  C   UNL     1       5.127  -5.485   8.266  0.00  0.00    +0.000 A 
ATOM     17  C   UNL     1       5.867  -6.289   7.419  0.00  0.00    +0.001 A 
ATOM     18  C   UNL     1       6.521  -5.734   6.335  0.00  0.00    +0.020 A 
ATOM     19  C   UNL     1       6.429  -4.374   6.094  0.00  0.00    +0.046 A 
ATOM     20 CL   UNL     1       7.244  -3.678   4.729  0.00  0.00    -0.083 Cl
ENDBRANCH  13  14
ENDBRANCH  11  13
ENDBRANCH   5   9
BRANCH   1  21
ATOM     21  C   UNL     1       0.125   0.392   1.492  0.00  0.00    +0.137 C 
BRANCH  21  22
ATOM     22  N   UNL     1       0.424  -0.304   0.234  0.00  0.00    -0.295 NA
ATOM     23  C   UNL     1       0.258  -1.756   0.383  0.00  0.00    +0.105 C 
BRANCH  22  25
ATOM     24  C   UNL     1      -1.881   0.143  -0.463  0.00  0.00    +0.027 C 
ATOM     25  C   UNL     1      -0.405   0.212  -0.863  0.00  0.00    +0.084 C 
BRANCH  25  26
ATOM     26  C   UNL     1      -0.023   1.665  -1.153  0.00  0.00    +0.170 C 
ATOM     27  C   UNL     1       1.433   1.762  -1.572  0.00  0.00    +0.033 C 
ATOM     28  C   UNL     1       1.376   2.262  -2.822  0.00  0.00    +0.091 C 
ATOM     29  N   UNL     1       0.085   2.469  -3.191  0.00  0.00    -0.154 NA
ATOM     30  N   UNL     1      -0.750   2.169  -2.329  0.00  0.00    -0.178 NA
BRANCH  28  31
ATOM     31  C   UNL     1       2.556   2.545  -3.675  0.00  0.00    +0.002 A 
ATOM     32  C   UNL     1       3.841   2.290  -3.199  0.00  0.00    +0.010 A 
ATOM     33  C   UNL     1       4.935   2.555  -3.997  0.00  0.00    +0.001 A 
ATOM     34  C   UNL     1       4.759   3.074  -5.267  0.00  0.00    +0.000 A 
ATOM     35  C   UNL     1       3.486   3.329  -5.745  0.00  0.00    +0.001 A 
ATOM     36  C   UNL     1       2.384   3.063  -4.957  0.00  0.00    +0.010 A 
ENDBRANCH  28  31
ENDBRANCH  25  26
ENDBRANCH  22  25
ENDBRANCH  21  22
ENDBRANCH   1  21
TORSDOF 8
