REMARK  Name = ZINC06133806
REMARK  11 active torsions:
REMARK  status: ('A' for Active; 'I' for Inactive)
REMARK    1  A    between atoms: C_1  and  C_2
REMARK    2  A    between atoms: C_5  and  S_8
REMARK    3  A    between atoms: S_8  and  N_11
REMARK    4  A    between atoms: N_11  and  C_12
REMARK    5  A    between atoms: N_11  and  C_30
REMARK    6  A    between atoms: C_12  and  C_13
REMARK    7  A    between atoms: C_13  and  C_14
REMARK    8  A    between atoms: C_14  and  C_15
REMARK    9  A    between atoms: C_16  and  C_23
REMARK   10  A    between atoms: C_20  and  N_21
REMARK   11  A    between atoms: C_23  and  C_24
REMARK                            x       y       z     vdW  Elec       q    Type
REMARK                         _______ _______ _______ _____ _____    ______ ____
ROOT
ATOM      1  C   UNL     1      -1.417  -2.504   3.090  0.00  0.00    +0.042 C 
ENDROOT
BRANCH   1   2
ATOM      2  C   UNL     1      -2.466  -3.270   3.853  0.00  0.00    +0.014 A 
ATOM      3  C   UNL     1      -3.313  -2.624   4.732  0.00  0.00    +0.056 A 
ATOM      4  N   UNL     1      -4.228  -3.325   5.385  0.00  0.00    -0.219 NA
ATOM      5  C   UNL     1      -4.333  -4.635   5.212  0.00  0.00    +0.214 A 
ATOM      6  N   UNL     1      -3.537  -5.293   4.383  0.00  0.00    -0.200 NA
ATOM      7  C   UNL     1      -2.600  -4.651   3.692  0.00  0.00    +0.125 A 
ATOM      8  N   UNL     1      -5.298  -5.333   5.917  0.00  0.00    -0.327 N 
ATOM      9  H   UNL     1      -5.385  -6.292   5.800  0.00  0.00    +0.145 HD
ATOM     10  H   UNL     1      -5.887  -4.863   6.528  0.00  0.00    +0.145 HD
BRANCH   7  11
ATOM     11  N   UNL     1      -1.770  -5.341   2.824  0.00  0.00    -0.343 N 
ATOM     12  H   UNL     1      -1.089  -4.866   2.324  0.00  0.00    +0.144 HD
ATOM     13  H   UNL     1      -1.869  -6.300   2.718  0.00  0.00    +0.144 HD
ENDBRANCH   7  11
BRANCH   3  14
ATOM     14  C   UNL     1      -3.200  -1.136   4.943  0.00  0.00    +0.091 C 
BRANCH  14  15
ATOM     15  C   UNL     1      -2.370  -0.864   6.171  0.00  0.00    -0.042 A 
ATOM     16  C   UNL     1      -2.958  -0.884   7.422  0.00  0.00    +0.004 A 
ATOM     17  C   UNL     1      -2.195  -0.639   8.548  0.00  0.00    +0.000 A 
ATOM     18  C   UNL     1      -0.847  -0.364   8.423  0.00  0.00    +0.000 A 
ATOM     19  C   UNL     1      -0.260  -0.338   7.172  0.00  0.00    +0.000 A 
ATOM     20  C   UNL     1      -1.021  -0.588   6.046  0.00  0.00    +0.004 A 
ENDBRANCH  14  15
ENDBRANCH   3  14
ENDBRANCH   1   2
BRANCH   1  21
ATOM     21  C   UNL     1      -2.025  -1.955   1.798  0.00  0.00    +0.025 C 
BRANCH  21  22
ATOM     22  C   UNL     1      -0.932  -1.282   0.965  0.00  0.00    +0.132 C 
BRANCH  22  23
ATOM     23  N   UNL     1      -1.533  -0.656  -0.215  0.00  0.00    -0.203 N 
BRANCH  23  24
ATOM     24  C   UNL     1      -1.726  -1.402  -1.380  0.00  0.00    +0.051 A 
ATOM     25  C   UNL     1      -1.874  -2.781  -1.307  0.00  0.00    +0.025 A 
ATOM     26  C   UNL     1      -2.069  -3.516  -2.460  0.00  0.00    +0.002 A 
ATOM     27  C   UNL     1      -2.106  -2.881  -3.688  0.00  0.00    +0.000 A 
ATOM     28  C   UNL     1      -1.954  -1.509  -3.765  0.00  0.00    +0.002 A 
ATOM     29  C   UNL     1      -1.764  -0.768  -2.615  0.00  0.00    +0.025 A 
ENDBRANCH  23  24
BRANCH  23  30
ATOM     30  S   UNL     1      -1.985   0.937  -0.169  0.00  0.00    +0.075 S 
ATOM     31  O   UNL     1      -2.971   1.109  -1.177  0.00  0.00    -0.150 OA
ATOM     32  O   UNL     1      -2.227   1.250   1.196  0.00  0.00    -0.150 OA
BRANCH  30  37
ATOM     33  C   UNL     1       2.801   4.198  -1.863  0.00  0.00    +0.044 C 
ATOM     34  C   UNL     1       1.605   3.384  -1.440  0.00  0.00    -0.050 A 
ATOM     35  C   UNL     1       0.631   3.055  -2.363  0.00  0.00    +0.005 A 
ATOM     36  C   UNL     1      -0.466   2.308  -1.975  0.00  0.00    +0.029 A 
ATOM     37  C   UNL     1      -0.587   1.889  -0.663  0.00  0.00    +0.109 A 
ATOM     38  C   UNL     1       0.385   2.222   0.261  0.00  0.00    +0.029 A 
ATOM     39  C   UNL     1       1.484   2.965  -0.128  0.00  0.00    +0.005 A 
ENDBRANCH  30  37
ENDBRANCH  23  30
ENDBRANCH  22  23
ENDBRANCH  21  22
ENDBRANCH   1  21
TORSDOF 10
