REMARK  Name = ZINC02506471
REMARK  6 active torsions:
REMARK  status: ('A' for Active; 'I' for Inactive)
REMARK    1  A    between atoms: C_4  and  N_7
REMARK    2  A    between atoms: C_9  and  C_19
REMARK    3  A    between atoms: C_10  and  C_12
REMARK    4  A    between atoms: N_20  and  N_21
REMARK    5  A    between atoms: C_22  and  C_24
REMARK    6  A    between atoms: N_26  and  C_27
REMARK                            x       y       z     vdW  Elec       q    Type
REMARK                         _______ _______ _______ _____ _____    ______ ____
ROOT
ATOM      1  N   UNL     1       2.934   7.692   0.018  0.00  0.00    -0.239 N 
ATOM      2  C   UNL     1       3.344   6.435  -0.248  0.00  0.00    +0.124 A 
ATOM      3  C   UNL     1       2.236   5.615  -0.225  0.00  0.00    +0.040 A 
ATOM      4  C   UNL     1       1.091   6.474   0.090  0.00  0.00    +0.102 A 
ATOM      5  N   UNL     1       1.552   7.698   0.226  0.00  0.00    -0.166 NA
ENDROOT
BRANCH   4   6
ATOM      6  C   UNL     1      -0.321   6.044   0.229  0.00  0.00    +0.003 A 
ATOM      7  C   UNL     1      -1.342   6.798  -0.349  0.00  0.00    +0.013 A 
ATOM      8  C   UNL     1      -2.654   6.392  -0.221  0.00  0.00    +0.039 A 
ATOM      9  C   UNL     1      -2.959   5.242   0.489  0.00  0.00    +0.123 A 
ATOM     10  C   UNL     1      -1.949   4.492   1.069  0.00  0.00    +0.039 A 
ATOM     11  C   UNL     1      -0.633   4.888   0.943  0.00  0.00    +0.013 A 
ATOM     12  F   UNL     1      -4.246   4.850   0.615  0.00  0.00    -0.205 F 
ENDBRANCH   4   6
BRANCH   1  16
ATOM     13  C   UNL     1       5.410  11.039   0.209  0.00  0.00    +0.000 A 
ATOM     14  C   UNL     1       4.051  11.171   0.433  0.00  0.00    +0.002 A 
ATOM     15  C   UNL     1       3.228  10.064   0.371  0.00  0.00    +0.028 A 
ATOM     16  C   UNL     1       3.766   8.816   0.082  0.00  0.00    +0.065 A 
ATOM     17  C   UNL     1       5.131   8.686  -0.138  0.00  0.00    +0.028 A 
ATOM     18  C   UNL     1       5.948   9.798  -0.080  0.00  0.00    +0.002 A 
ENDBRANCH   1  16
BRANCH   3  19
ATOM     19  C   UNL     1       2.209   4.162  -0.463  0.00  0.00    +0.142 C 
ATOM     20  N   UNL     1       1.074   3.531  -0.500  0.00  0.00    -0.187 NA
BRANCH  20  21
ATOM     21  N   UNL     1       1.048   2.148  -0.727  0.00  0.00    -0.199 N 
ATOM     22  C   UNL     1      -0.130   1.494  -0.766  0.00  0.00    +0.318 C 
ATOM     23  O   UNL     1      -1.169   2.103  -0.610  0.00  0.00    -0.263 OA
ATOM     24  H   UNL     1       1.878   1.663  -0.855  0.00  0.00    +0.178 HD
BRANCH  22  25
ATOM     25  C   UNL     1      -0.157   0.023  -1.007  0.00  0.00    +0.305 C 
ATOM     26  O   UNL     1       0.882  -0.585  -1.168  0.00  0.00    -0.265 OA
ATOM     27  N   UNL     1      -1.334  -0.632  -1.046  0.00  0.00    -0.278 N 
ATOM     28  H   UNL     1      -2.159  -0.160  -0.850  0.00  0.00    +0.155 HD
BRANCH  27  29
ATOM     29  C   UNL     1      -1.367  -1.991  -1.368  0.00  0.00    +0.034 A 
ATOM     30  C   UNL     1      -2.430  -2.508  -2.099  0.00  0.00    +0.024 A 
ATOM     31  C   UNL     1      -2.458  -3.850  -2.421  0.00  0.00    +0.017 A 
ATOM     32  C   UNL     1      -1.433  -4.683  -2.006  0.00  0.00    +0.018 A 
ATOM     33  C   UNL     1      -0.376  -4.173  -1.274  0.00  0.00    +0.017 A 
ATOM     34  C   UNL     1      -0.340  -2.830  -0.954  0.00  0.00    +0.024 A 
ATOM     35 BR   UNL     1      -1.478  -6.523  -2.443  0.00  0.00    -0.050 Br
ENDBRANCH  27  29
ENDBRANCH  22  25
ENDBRANCH  20  21
ENDBRANCH   3  19
TORSDOF 6
