REMARK  Name = ZINC05487698
REMARK  8 active torsions:
REMARK  status: ('A' for Active; 'I' for Inactive)
REMARK    1  A    between atoms: C_1  and  C_2
REMARK    2  A    between atoms: C_7  and  C_30
REMARK    3  A    between atoms: C_9  and  C_10
REMARK    4  A    between atoms: C_9  and  N_56
REMARK    5  A    between atoms: C_16  and  O_29
REMARK    6  A    between atoms: C_17  and  C_21
REMARK    7  A    between atoms: C_26  and  O_27
REMARK    8  A    between atoms: O_27  and  C_28
REMARK                            x       y       z     vdW  Elec       q    Type
REMARK                         _______ _______ _______ _____ _____    ______ ____
ROOT
ATOM      1  C   UNL     1       0.176   4.258   5.908  0.00  0.00    +0.026 A 
ATOM      2  C   UNL     1       0.600   5.529   5.511  0.00  0.00    +0.184 A 
ATOM      3  O   UNL     1       0.980   6.418   6.429  0.00  0.00    -0.288 OA
ATOM      4  C   UNL     1       0.627   5.875   4.147  0.00  0.00    +0.052 A 
ATOM      5  C   UNL     1       0.242   4.978   3.203  0.00  0.00    +0.019 A 
ATOM      6  C   UNL     1      -0.186   3.695   3.588  0.00  0.00    +0.060 A 
ATOM      7  C   UNL     1      -0.591   2.748   2.623  0.00  0.00    +0.138 A 
ATOM      8  C   UNL     1      -1.011   1.476   3.073  0.00  0.00    +0.063 A 
ATOM      9  C   UNL     1      -1.021   1.201   4.420  0.00  0.00    +0.207 A 
ATOM     10  O   UNL     1      -0.630   2.106   5.322  0.00  0.00    -0.462 OA
ATOM     11  C   UNL     1      -0.218   3.337   4.955  0.00  0.00    +0.143 A 
ENDROOT
BRANCH   8  12
ATOM     12  C   UNL     1      -1.446   0.446   2.098  0.00  0.00    +0.030 A 
ATOM     13  C   UNL     1      -2.765   0.001   2.091  0.00  0.00    +0.012 A 
ATOM     14  C   UNL     1      -3.165  -0.957   1.182  0.00  0.00    +0.001 A 
ATOM     15  C   UNL     1      -2.259  -1.478   0.275  0.00  0.00    +0.004 A 
ATOM     16  C   UNL     1      -0.948  -1.039   0.269  0.00  0.00    +0.046 A 
ATOM     17  C   UNL     1      -0.532  -0.082   1.181  0.00  0.00    +0.128 A 
BRANCH  17  18
ATOM     18  O   UNL     1       0.757   0.346   1.179  0.00  0.00    -0.494 OA
ATOM     19  C   UNL     1       1.634  -0.238   0.214  0.00  0.00    +0.277 C 
ENDBRANCH  17  18
ENDBRANCH   8  12
BRANCH   7  20
ATOM     20  O   UNL     1      -0.575   3.048   1.308  0.00  0.00    -0.505 OA
ATOM     21  H   UNL     1      -1.401   3.431   0.982  0.00  0.00    +0.292 HD
ENDBRANCH   7  20
BRANCH   1  22
ATOM     22  C   UNL     1       0.148   3.892   7.370  0.00  0.00    -0.035 C 
BRANCH  22  30
ATOM     23  C   UNL     1      -0.043   1.568   8.944  0.00  0.00    -0.013 C 
ATOM     24  C   UNL     1       1.211   2.443   8.992  0.00  0.00    -0.071 C 
ATOM     25  C   UNL     1       2.437   1.563   9.244  0.00  0.00    -0.016 C 
ATOM     26  C   UNL     1       3.692   2.440   9.271  0.00  0.00    -0.003 C 
ATOM     27  C   UNL     1       3.804   3.198   7.945  0.00  0.00    -0.016 C 
ATOM     28  C   UNL     1       2.538   4.030   7.731  0.00  0.00    -0.071 C 
ATOM     29  C   UNL     1       2.394   5.043   8.869  0.00  0.00    -0.013 C 
ATOM     30  N   UNL     1       1.369   3.125   7.690  0.00  0.00    +0.386 N 
ATOM     31  H   UNL     1       1.520   2.419   6.960  0.00  0.00    -0.081 HD
ENDBRANCH  22  30
ENDBRANCH   1  22
TORSDOF 5
