REMARK  Name = ZINC38670830
REMARK  7 active torsions:
REMARK  status: ('A' for Active; 'I' for Inactive)
REMARK    1  A    between atoms: C_1  and  C_2
REMARK    2  A    between atoms: C_3  and  C_11
REMARK    3  A    between atoms: N_13  and  C_14
REMARK    4  A    between atoms: C_14  and  C_15
REMARK    5  A    between atoms: C_15  and  C_17
REMARK    6  A    between atoms: C_15  and  N_28
REMARK    7  A    between atoms: N_26  and  C_27
REMARK                            x       y       z     vdW  Elec       q    Type
REMARK                         _______ _______ _______ _____ _____    ______ ____
ROOT
ATOM      1  C   UNL     1      -0.090  -2.157  -5.639  0.00  0.00    -0.020 C 
ENDROOT
BRANCH   1   2
ATOM      2  C   UNL     1       0.047  -1.659  -7.055  0.00  0.00    -0.059 A 
ATOM      3  C   UNL     1       1.284  -1.270  -7.533  0.00  0.00    +0.004 A 
ATOM      4  C   UNL     1       1.409  -0.812  -8.830  0.00  0.00    +0.023 A 
ATOM      5  C   UNL     1       0.291  -0.744  -9.654  0.00  0.00    +0.033 A 
ATOM      6  C   UNL     1      -0.949  -1.138  -9.175  0.00  0.00    -0.026 A 
ATOM      7  C   UNL     1      -1.064  -1.598  -7.874  0.00  0.00    +0.007 A 
ATOM      8  C   UNL     1      -2.179  -1.088 -10.042  0.00  0.00    +0.038 C 
ATOM      9  C   UNL     1      -1.973  -0.124 -11.210  0.00  0.00    +0.024 C 
ATOM     10  C   UNL     1      -0.659  -0.479 -11.919  0.00  0.00    +0.105 C 
ATOM     11  N   UNL     1       0.437  -0.273 -10.963  0.00  0.00    -0.333 N 
ATOM     12  C   UNL     1       1.664   0.415 -11.374  0.00  0.00    +0.129 C 
ENDBRANCH   1   2
BRANCH   1  13
ATOM     13  N   UNL     1       1.064  -3.002  -5.304  0.00  0.00    +0.385 N 
ATOM     14  C   UNL     1       1.169  -4.094  -6.280  0.00  0.00    -0.078 C 
ATOM     15  C   UNL     1       2.416  -4.930  -5.984  0.00  0.00    -0.019 C 
ATOM     16  C   UNL     1       2.309  -5.513  -4.572  0.00  0.00    -0.004 C 
ATOM     17  C   UNL     1       2.125  -4.370  -3.570  0.00  0.00    -0.019 C 
ATOM     18  C   UNL     1       0.889  -3.555  -3.956  0.00  0.00    -0.078 C 
ATOM     19  H   UNL     1       1.906  -2.446  -5.332  0.00  0.00    -0.081 HD
ENDBRANCH   1  13
BRANCH   1  20
ATOM     20  C   UNL     1      -0.143  -0.965  -4.682  0.00  0.00    +0.094 C 
BRANCH  20  23
ATOM     21  C   UNL     1      -1.544   0.995  -4.310  0.00  0.00    +0.263 C 
ATOM     22  O   UNL     1      -0.693   1.424  -3.552  0.00  0.00    -0.269 OA
ATOM     23  N   UNL     1      -1.342  -0.169  -4.960  0.00  0.00    -0.311 N 
ATOM     24  H   UNL     1      -1.989  -0.479  -5.612  0.00  0.00    +0.149 HD
BRANCH  21  27
ATOM     25  C   UNL     1      -2.393   3.544  -2.726  0.00  0.00    +0.068 C 
ATOM     26  C   UNL     1      -3.156   2.852  -3.826  0.00  0.00    +0.069 A 
ATOM     27  C   UNL     1      -2.747   1.718  -4.509  0.00  0.00    +0.131 A 
ATOM     28  N   UNL     1      -3.744   1.431  -5.424  0.00  0.00    -0.295 N 
ATOM     29  C   UNL     1      -3.883   0.446  -6.350  0.00  0.00    +0.093 A 
ATOM     30  C   UNL     1      -4.981   0.390  -7.138  0.00  0.00    +0.018 A 
ATOM     31  C   UNL     1      -5.992   1.352  -7.006  0.00  0.00    +0.005 A 
ATOM     32  C   UNL     1      -5.861   2.343  -6.079  0.00  0.00    +0.047 A 
ATOM     33  C   UNL     1      -4.711   2.384  -5.270  0.00  0.00    +0.138 A 
ATOM     34  N   UNL     1      -4.335   3.219  -4.303  0.00  0.00    -0.232 NA
ENDBRANCH  21  27
ENDBRANCH  20  23
ENDBRANCH   1  20
TORSDOF 5
