REMARK  Name = ZINC40476950
REMARK  11 active torsions:
REMARK  status: ('A' for Active; 'I' for Inactive)
REMARK    1  A    between atoms: C_1  and  C_2
REMARK    2  A    between atoms: C_2  and  C_3
REMARK    3  A    between atoms: C_3  and  C_4
REMARK    4  A    between atoms: C_4  and  C_5
REMARK    5  A    between atoms: C_5  and  C_7
REMARK    6  A    between atoms: C_11  and  N_12
REMARK    7  A    between atoms: N_12  and  C_13
REMARK    8  A    between atoms: C_24  and  C_28
REMARK    9  A    between atoms: C_28  and  C_29
REMARK   10  A    between atoms: C_28  and  C_30
REMARK   11  A    between atoms: C_28  and  C_31
REMARK                            x       y       z     vdW  Elec       q    Type
REMARK                         _______ _______ _______ _____ _____    ______ ____
ROOT
ATOM      1  C   UNL     1       1.650  -3.910   2.786  0.00  0.00    +0.049 A 
ATOM      2  C   UNL     1       2.317  -4.327   4.010  0.00  0.00    -0.025 A 
ATOM      3  C   UNL     1       2.459  -5.663   4.134  0.00  0.00    -0.004 A 
ATOM      4  S   UNL     1       1.729  -6.334   2.670  0.00  0.00    -0.078 S 
ATOM      5  C   UNL     1       1.244  -4.915   1.914  0.00  0.00    +0.080 A 
ATOM      6  C   UNL     1       3.098  -6.397   5.273  0.00  0.00    +0.046 C 
ATOM      7  C   UNL     1       3.232  -5.428   6.457  0.00  0.00    -0.000 C 
ATOM      8  C   UNL     1       3.840  -4.115   5.956  0.00  0.00    +0.009 C 
ATOM      9  C   UNL     1       2.826  -3.374   5.081  0.00  0.00    +0.037 C 
ENDROOT
BRANCH   7  10
ATOM     10  C   UNL     1       4.143  -6.043   7.522  0.00  0.00    -0.035 C 
ATOM     11  C   UNL     1       5.525  -6.307   6.920  0.00  0.00    +0.011 C 
ATOM     12  C   UNL     1       4.275  -5.076   8.700  0.00  0.00    +0.011 C 
ATOM     13  C   UNL     1       3.539  -7.362   8.009  0.00  0.00    +0.011 C 
ENDBRANCH   7  10
BRANCH   1  14
ATOM     14  C   UNL     1       1.420  -2.546   2.499  0.00  0.00    +0.166 C 
ATOM     15  O   UNL     1       2.205  -1.930   1.807  0.00  0.00    -0.292 OA
BRANCH  14  16
ATOM     16  C   UNL     1       0.200  -1.855   3.051  0.00  0.00    +0.080 C 
BRANCH  16  17
ATOM     17  C   UNL     1       0.254  -0.366   2.701  0.00  0.00    +0.008 C 
BRANCH  17  19
ATOM     18  C   UNL     1      -0.931   1.823   2.911  0.00  0.00    +0.004 C 
ATOM     19  C   UNL     1      -0.985   0.335   3.261  0.00  0.00    -0.003 C 
ENDBRANCH  17  19
ENDBRANCH  16  17
ENDBRANCH  14  16
ENDBRANCH   1  14
BRANCH   5  20
ATOM     20  N   UNL     1       0.593  -4.777   0.702  0.00  0.00    -0.314 N 
ATOM     21  H   UNL     1       0.432  -3.894   0.336  0.00  0.00    +0.152 HD
BRANCH  20  22
ATOM     22  C   UNL     1       0.180  -5.874   0.028  0.00  0.00    +0.090 C 
ATOM     23  C   UNL     1      -0.562  -5.735  -1.129  0.00  0.00    +0.113 C 
ATOM     24  C   UNL     1      -0.800  -4.412  -1.736  0.00  0.00    +0.256 C 
ATOM     25  O   UNL     1      -0.347  -3.402  -1.231  0.00  0.00    -0.270 OA
ATOM     26  N   UNL     1      -1.534  -4.353  -2.867  0.00  0.00    -0.263 N 
ATOM     27  C   UNL     1      -2.038  -5.458  -3.434  0.00  0.00    +0.143 C 
ATOM     28  S   UNL     1      -2.957  -5.285  -4.868  0.00  0.00    -0.018 S 
ATOM     29  N   UNL     1      -1.862  -6.690  -2.938  0.00  0.00    -0.263 N 
ATOM     30  C   UNL     1      -1.145  -6.902  -1.815  0.00  0.00    +0.256 C 
ATOM     31  O   UNL     1      -0.988  -8.027  -1.377  0.00  0.00    -0.270 OA
ATOM     32  H   UNL     1      -1.700  -3.490  -3.279  0.00  0.00    +0.157 HD
ATOM     33  H   UNL     1      -2.256  -7.447  -3.399  0.00  0.00    +0.157 HD
ENDBRANCH  20  22
ENDBRANCH   5  20
TORSDOF 7
