REMARK  Name = ZINC20727536
REMARK  8 active torsions:
REMARK  status: ('A' for Active; 'I' for Inactive)
REMARK    1  A    between atoms: C_1  and  C_2
REMARK    2  A    between atoms: C_2  and  C_3
REMARK    3  A    between atoms: C_2  and  C_4
REMARK    4  A    between atoms: C_4  and  C_6
REMARK    5  A    between atoms: C_4  and  N_10
REMARK    6  A    between atoms: C_6  and  O_8
REMARK    7  A    between atoms: O_8  and  C_9
REMARK    8  A    between atoms: C_22  and  C_24
REMARK                            x       y       z     vdW  Elec       q    Type
REMARK                         _______ _______ _______ _____ _____    ______ ____
ROOT
ATOM      1  N   UNL     1      -1.215  -2.011   2.490  0.00  0.00    -0.286 N 
ATOM      2  C   UNL     1      -1.285  -2.610   1.284  0.00  0.00    +0.304 C 
ATOM      3  O   UNL     1      -1.466  -1.943   0.284  0.00  0.00    -0.253 OA
ATOM      4  N   UNL     1      -1.155  -3.948   1.188  0.00  0.00    -0.273 N 
ATOM      5  C   UNL     1      -1.121  -4.609  -0.125  0.00  0.00    +0.116 C 
ATOM      6  C   UNL     1      -2.346  -5.522  -0.260  0.00  0.00    +0.074 C 
ATOM      7  C   UNL     1      -2.511  -6.304   1.017  0.00  0.00    +0.040 A 
ATOM      8  C   UNL     1      -1.942  -5.982   2.198  0.00  0.00    +0.062 A 
ATOM      9  N   UNL     1      -2.312  -6.893   3.100  0.00  0.00    -0.348 N 
ATOM     10  C   UNL     1      -3.089  -7.774   2.524  0.00  0.00    +0.171 A 
ATOM     11  N   UNL     1      -3.236  -7.439   1.222  0.00  0.00    -0.349 N 
ATOM     12  H   UNL     1      -3.758  -7.917   0.559  0.00  0.00    +0.166 HD
ATOM     13  C   UNL     1      -1.038  -4.784   2.397  0.00  0.00    +0.159 C 
ATOM     14  H   UNL     1      -1.133  -2.547   3.294  0.00  0.00    +0.151 HD
ATOM     15  H   UNL     1      -2.048  -6.902   4.033  0.00  0.00    +0.167 HD
ENDROOT
BRANCH  13  16
ATOM     16  C   UNL     1       0.389  -5.236   2.571  0.00  0.00    +0.017 A 
ATOM     17  C   UNL     1       0.747  -6.532   2.249  0.00  0.00    +0.011 A 
ATOM     18  C   UNL     1       2.055  -6.949   2.408  0.00  0.00    +0.042 A 
ATOM     19  C   UNL     1       3.010  -6.070   2.890  0.00  0.00    +0.161 A 
ATOM     20  C   UNL     1       2.653  -4.770   3.214  0.00  0.00    +0.194 A 
ATOM     21  C   UNL     1       1.341  -4.352   3.048  0.00  0.00    +0.167 A 
ATOM     22  F   UNL     1       0.992  -3.084   3.357  0.00  0.00    -0.202 F 
ATOM     23  F   UNL     1       3.582  -3.911   3.685  0.00  0.00    -0.199 F 
ATOM     24  F   UNL     1       4.288  -6.478   3.046  0.00  0.00    -0.202 F 
ENDBRANCH  13  16
BRANCH   1  25
ATOM     25  C   UNL     1      -1.262  -0.550   2.585  0.00  0.00    +0.186 C 
BRANCH  25  27
ATOM     26  C   UNL     1      -2.769   1.440   2.703  0.00  0.00    +0.009 C 
ATOM     27  C   UNL     1      -2.720  -0.086   2.603  0.00  0.00    +0.014 C 
ATOM     28  C   UNL     1      -3.414  -0.536   1.316  0.00  0.00    +0.009 C 
ENDBRANCH  25  27
BRANCH  25  29
ATOM     29  C   UNL     1      -0.578  -0.107   3.853  0.00  0.00    +0.328 C 
ATOM     30  O   UNL     1      -0.101  -0.928   4.600  0.00  0.00    -0.249 OA
BRANCH  29  31
ATOM     31  O   UNL     1      -0.500   1.199   4.152  0.00  0.00    -0.467 OA
ATOM     32  C   UNL     1       0.162   1.547   5.370  0.00  0.00    +0.280 C 
ENDBRANCH  29  31
ENDBRANCH  25  29
ENDBRANCH   1  25
TORSDOF 5
