REMARK  Name = ZINC09526092
REMARK  7 active torsions:
REMARK  status: ('A' for Active; 'I' for Inactive)
REMARK    1  A    between atoms: C_12  and  S_14
REMARK    2  A    between atoms: S_14  and  N_17
REMARK    3  A    between atoms: N_17  and  C_18
REMARK    4  A    between atoms: C_21  and  C_24
REMARK    5  A    between atoms: C_24  and  O_26
REMARK    6  A    between atoms: O_26  and  C_27
REMARK    7  A    between atoms: C_27  and  C_28
REMARK                            x       y       z     vdW  Elec       q    Type
REMARK                         _______ _______ _______ _____ _____    ______ ____
ROOT
ATOM      1  C   UNL     1       2.397   3.965   2.330  0.00  0.00    +0.048 A 
ATOM      2  C   UNL     1       3.094   2.780   2.104  0.00  0.00    +0.025 A 
ATOM      3  C   UNL     1       4.247   2.519   2.797  0.00  0.00    +0.017 A 
ATOM      4  C   UNL     1       4.718   3.438   3.740  0.00  0.00    +0.059 A 
ATOM      5  C   UNL     1       4.014   4.625   3.968  0.00  0.00    +0.017 A 
ATOM      6  C   UNL     1       2.864   4.882   3.267  0.00  0.00    +0.025 A 
ENDROOT
BRANCH   1   7
ATOM      7  N   UNL     1       1.231   4.229   1.621  0.00  0.00    -0.216 N 
ATOM      8  H   UNL     1       0.368   4.139   2.056  0.00  0.00    +0.174 HD
BRANCH   7   9
ATOM      9  S   UNL     1       1.313   4.697   0.035  0.00  0.00    +0.072 S 
ATOM     10  O   UNL     1      -0.022   4.942  -0.386  0.00  0.00    -0.150 OA
ATOM     11  O   UNL     1       2.159   3.763  -0.621  0.00  0.00    -0.150 OA
BRANCH   9  23
ATOM     12  C   UNL     1       4.237  12.856   0.073  0.00  0.00    +0.000 A 
ATOM     13  C   UNL     1       5.326  12.042  -0.178  0.00  0.00    +0.001 A 
ATOM     14  C   UNL     1       5.170  10.673  -0.245  0.00  0.00    +0.009 A 
ATOM     15  C   UNL     1       3.909  10.105  -0.057  0.00  0.00    -0.014 A 
ATOM     16  C   UNL     1       2.819  10.933   0.196  0.00  0.00    -0.035 A 
ATOM     17  C   UNL     1       2.984  12.300   0.260  0.00  0.00    +0.004 A 
ATOM     18  C   UNL     1       1.605  10.050   0.353  0.00  0.00    +0.071 C 
ATOM     19  C   UNL     1       2.092   8.634   0.168  0.00  0.00    -0.033 A 
ATOM     20  C   UNL     1       3.462   8.690  -0.074  0.00  0.00    -0.014 A 
ATOM     21  C   UNL     1       4.169   7.505  -0.284  0.00  0.00    +0.011 A 
ATOM     22  C   UNL     1       3.509   6.294  -0.249  0.00  0.00    +0.029 A 
ATOM     23  C   UNL     1       2.148   6.248  -0.007  0.00  0.00    +0.109 A 
ATOM     24  C   UNL     1       1.441   7.419   0.201  0.00  0.00    +0.033 A 
ENDBRANCH   9  23
ENDBRANCH   7   9
ENDBRANCH   1   7
BRANCH   4  25
ATOM     25  C   UNL     1       5.955   3.158   4.491  0.00  0.00    +0.339 C 
ATOM     26  O   UNL     1       6.364   3.958   5.309  0.00  0.00    -0.245 OA
BRANCH  25  27
ATOM     27  O   UNL     1       6.633   2.015   4.270  0.00  0.00    -0.461 OA
BRANCH  27  28
ATOM     28  C   UNL     1       7.843   1.805   5.046  0.00  0.00    +0.239 C 
BRANCH  28  29
ATOM     29  C   UNL     1       8.470   0.464   4.660  0.00  0.00    +0.006 C 
ATOM     30  C   UNL     1       7.477  -0.665   4.948  0.00  0.00    +0.013 C 
ATOM     31  C   UNL     1       8.104  -2.006   4.563  0.00  0.00    -0.010 C 
ATOM     32  C   UNL     1       9.379  -2.227   5.380  0.00  0.00    +0.007 C 
ATOM     33  C   UNL     1      10.371  -1.098   5.092  0.00  0.00    -0.010 C 
ATOM     34  C   UNL     1       9.744   0.243   5.478  0.00  0.00    +0.013 C 
ATOM     35  C   UNL     1      10.716  -1.091   3.602  0.00  0.00    +0.007 C 
ATOM     36  C   UNL     1       9.442  -0.870   2.784  0.00  0.00    -0.010 C 
ATOM     37  C   UNL     1       8.449  -1.998   3.072  0.00  0.00    +0.007 C 
ATOM     38  C   UNL     1       8.815   0.471   3.170  0.00  0.00    +0.013 C 
ENDBRANCH  28  29
ENDBRANCH  27  28
ENDBRANCH  25  27
ENDBRANCH   4  25
TORSDOF 7
