REMARK  Name = ZINC36888557
REMARK  8 active torsions:
REMARK  status: ('A' for Active; 'I' for Inactive)
REMARK    1  A    between atoms: C_1  and  C_2
REMARK    2  A    between atoms: C_2  and  C_3
REMARK    3  A    between atoms: C_3  and  N_4
REMARK    4  A    between atoms: C_5  and  C_7
REMARK    5  A    between atoms: C_7  and  N_8
REMARK    6  A    between atoms: C_13  and  C_20
REMARK    7  A    between atoms: C_16  and  C_18
REMARK    8  A    between atoms: C_16  and  C_19
REMARK                            x       y       z     vdW  Elec       q    Type
REMARK                         _______ _______ _______ _____ _____    ______ ____
ROOT
ATOM      1  N   UNL     1      -3.924  -4.702   0.014  0.00  0.00    -0.215 N 
ATOM      2  C   UNL     1      -4.619  -4.997   1.135  0.00  0.00    +0.247 C 
ATOM      3  O   UNL     1      -4.174  -5.059   2.260  0.00  0.00    -0.273 OA
ATOM      4  C   UNL     1      -6.038  -5.232   0.677  0.00  0.00    +0.113 C 
ATOM      5  C   UNL     1      -6.577  -6.543   1.229  0.00  0.00    +0.038 C 
ATOM      6  C   UNL     1      -6.867  -6.402   2.723  0.00  0.00    -0.011 C 
ATOM      7  C   UNL     1      -7.942  -5.333   2.914  0.00  0.00    +0.009 C 
ATOM      8  C   UNL     1      -7.465  -3.979   2.401  0.00  0.00    -0.032 C 
ATOM      9  C   UNL     1      -6.935  -4.048   0.979  0.00  0.00    +0.041 C 
ATOM     10  C   UNL     1      -6.408  -3.402   3.346  0.00  0.00    +0.011 C 
ATOM     11  C   UNL     1      -8.673  -3.019   2.415  0.00  0.00    +0.011 C 
ATOM     12  C   UNL     1      -7.378  -7.739   3.268  0.00  0.00    +0.007 C 
ATOM     13  N   UNL     1      -5.896  -5.355  -0.792  0.00  0.00    -0.285 N 
ATOM     14  C   UNL     1      -4.645  -4.957  -1.084  0.00  0.00    +0.310 C 
ATOM     15  O   UNL     1      -4.216  -4.843  -2.216  0.00  0.00    -0.252 OA
ATOM     16  H   UNL     1      -6.577  -5.661  -1.406  0.00  0.00    +0.151 HD
ENDROOT
BRANCH   1  17
ATOM     17  C   UNL     1      -2.551  -4.195   0.004  0.00  0.00    +0.213 C 
BRANCH  17  19
ATOM     18  N   UNL     1      -1.413  -1.998   0.005  0.00  0.00    -0.314 N 
ATOM     19  C   UNL     1      -2.571  -2.688   0.012  0.00  0.00    +0.231 C 
ATOM     20  O   UNL     1      -3.630  -2.096   0.025  0.00  0.00    -0.274 OA
ATOM     21  H   UNL     1      -0.567  -2.472  -0.006  0.00  0.00    +0.149 HD
BRANCH  18  22
ATOM     22  C   UNL     1      -1.433  -0.534   0.013  0.00  0.00    +0.104 C 
BRANCH  22  24
ATOM     23  C   UNL     1      -0.019   1.526   0.010  0.00  0.00    +0.005 C 
ATOM     24  C   UNL     1       0.002  -0.004   0.002  0.00  0.00    +0.015 C 
ENDBRANCH  22  24
ENDBRANCH  18  22
ENDBRANCH  17  19
ENDBRANCH   1  17
TORSDOF 4
