REMARK  Name = ZINC36551327
REMARK  12 active torsions:
REMARK  status: ('A' for Active; 'I' for Inactive)
REMARK    1  A    between atoms: C_1  and  C_2
REMARK    2  A    between atoms: C_5  and  S_8
REMARK    3  A    between atoms: S_8  and  C_11
REMARK    4  A    between atoms: C_11  and  N_12
REMARK    5  A    between atoms: C_13  and  C_15
REMARK    6  A    between atoms: C_15  and  C_17
REMARK    7  A    between atoms: C_15  and  N_24
REMARK    8  A    between atoms: C_22  and  O_23
REMARK    9  A    between atoms: N_24  and  C_25
REMARK   10  A    between atoms: C_32  and  C_34
REMARK   11  A    between atoms: C_35  and  C_36
REMARK   12  A    between atoms: C_35  and  C_37
REMARK                            x       y       z     vdW  Elec       q    Type
REMARK                         _______ _______ _______ _____ _____    ______ ____
ROOT
ATOM      1  C   UNL     1       1.995  -5.173   4.620  0.00  0.00    +0.201 C 
ENDROOT
BRANCH   1   2
ATOM      2  C   UNL     1       3.078  -4.204   4.220  0.00  0.00    +0.024 A 
ATOM      3  C   UNL     1       4.349  -4.666   3.938  0.00  0.00    +0.009 A 
ATOM      4  C   UNL     1       5.343  -3.777   3.571  0.00  0.00    +0.001 A 
ATOM      5  C   UNL     1       5.068  -2.425   3.486  0.00  0.00    +0.004 A 
ATOM      6  C   UNL     1       3.799  -1.958   3.767  0.00  0.00    +0.046 A 
ATOM      7  C   UNL     1       2.798  -2.848   4.130  0.00  0.00    +0.122 A 
BRANCH   7   8
ATOM      8  O   UNL     1       1.547  -2.392   4.401  0.00  0.00    -0.506 OA
ATOM      9  H   UNL     1       1.406  -2.158   5.328  0.00  0.00    +0.292 HD
ENDBRANCH   7   8
ENDBRANCH   1   2
BRANCH   1  11
ATOM     10  N   UNL     1       0.476  -4.488   2.792  0.00  0.00    -0.294 N 
ATOM     11  C   UNL     1       1.131  -5.482   3.425  0.00  0.00    +0.240 C 
ATOM     12  O   UNL     1       1.025  -6.624   3.032  0.00  0.00    -0.273 OA
ATOM     13  H   UNL     1       0.560  -3.574   3.106  0.00  0.00    +0.150 HD
BRANCH  10  14
ATOM     14  C   UNL     1      -0.364  -4.788   1.630  0.00  0.00    +0.278 C 
BRANCH  14  15
ATOM     15  S   UNL     1      -2.085  -4.997   2.166  0.00  0.00    +0.013 S 
ATOM     16  O   UNL     1      -2.144  -5.851   3.300  0.00  0.00    -0.168 OA
ATOM     17  O   UNL     1      -2.923  -5.226   1.042  0.00  0.00    -0.168 OA
BRANCH  15  22
ATOM     18  C   UNL     1      -3.736   0.425   4.235  0.00  0.00    +0.044 C 
ATOM     19  C   UNL     1      -3.324  -0.929   3.718  0.00  0.00    -0.050 A 
ATOM     20  C   UNL     1      -3.511  -1.247   2.386  0.00  0.00    +0.005 A 
ATOM     21  C   UNL     1      -3.133  -2.489   1.912  0.00  0.00    +0.027 A 
ATOM     22  C   UNL     1      -2.566  -3.413   2.770  0.00  0.00    +0.090 A 
ATOM     23  C   UNL     1      -2.378  -3.095   4.102  0.00  0.00    +0.027 A 
ATOM     24  C   UNL     1      -2.753  -1.851   4.575  0.00  0.00    +0.005 A 
ENDBRANCH  15  22
ENDBRANCH  14  15
ENDBRANCH  10  14
ENDBRANCH   1  11
BRANCH   1  25
ATOM     25  N   UNL     1       2.605  -6.410   5.114  0.00  0.00    -0.252 N 
ATOM     26  C   UNL     1       3.159  -6.444   6.343  0.00  0.00    +0.245 C 
ATOM     27  O   UNL     1       3.072  -5.478   7.076  0.00  0.00    -0.270 OA
BRANCH  25  28
ATOM     28  C   UNL     1       2.613  -7.555   4.312  0.00  0.00    +0.039 A 
ATOM     29  C   UNL     1       1.924  -8.692   4.715  0.00  0.00    +0.023 A 
ATOM     30  C   UNL     1       1.933  -9.821   3.921  0.00  0.00    +0.003 A 
ATOM     31  C   UNL     1       2.627  -9.822   2.724  0.00  0.00    +0.020 A 
ATOM     32  C   UNL     1       3.315  -8.691   2.320  0.00  0.00    +0.043 A 
ATOM     33  C   UNL     1       3.305  -7.556   3.108  0.00  0.00    +0.043 A 
ATOM     34 CL   UNL     1       4.185  -8.697   0.818  0.00  0.00    -0.083 Cl
ENDBRANCH  25  28
BRANCH  26  35
ATOM     35  C   UNL     1       3.868  -7.650   6.797  0.00  0.00    +0.066 C 
ATOM     36  C   UNL     1       4.386  -7.696   8.021  0.00  0.00    -0.071 C 
ATOM     37  C   UNL     1       4.419  -6.453   8.872  0.00  0.00    +0.039 C 
ATOM     38  C   UNL     1       4.940  -8.991   8.556  0.00  0.00    +0.039 C 
ENDBRANCH  26  35
ENDBRANCH   1  25
TORSDOF 9
