REMARK  Name = ZINC09306141
REMARK  6 active torsions:
REMARK  status: ('A' for Active; 'I' for Inactive)
REMARK    1  A    between atoms: C_1  and  C_2
REMARK    2  A    between atoms: C_2  and  C_3
REMARK    3  A    between atoms: C_6  and  N_9
REMARK    4  A    between atoms: C_15  and  C_22
REMARK    5  A    between atoms: N_20  and  C_21
REMARK    6  A    between atoms: C_25  and  O_28
REMARK                            x       y       z     vdW  Elec       q    Type
REMARK                         _______ _______ _______ _____ _____    ______ ____
ROOT
ATOM      1  N   UNL     1       3.347   0.739   3.631  0.00  0.00    -0.262 N 
ATOM      2  C   UNL     1       4.534   1.415   3.087  0.00  0.00    +0.165 C 
ATOM      3  C   UNL     1       4.250   1.569   1.609  0.00  0.00    +0.042 C 
ATOM      4  C   UNL     1       3.033   1.027   1.398  0.00  0.00    +0.058 C 
ATOM      5  C   UNL     1       2.500   0.534   2.606  0.00  0.00    +0.251 C 
ATOM      6  O   UNL     1       1.414  -0.007   2.709  0.00  0.00    -0.270 OA
ATOM      7  C   UNL     1       2.490   1.045  -0.016  0.00  0.00    +0.142 C 
ATOM      8  N   UNL     1       3.341   1.658  -1.050  0.00  0.00    -0.288 N 
ATOM      9  C   UNL     1       4.537   2.159  -0.683  0.00  0.00    +0.307 C 
ATOM     10  O   UNL     1       5.247   2.666  -1.529  0.00  0.00    -0.252 OA
ATOM     11  N   UNL     1       4.968   2.116   0.585  0.00  0.00    -0.260 N 
ATOM     12  C   UNL     1       6.283   2.687   0.888  0.00  0.00    +0.139 C 
ATOM     13  H   UNL     1       3.048   1.699  -1.974  0.00  0.00    +0.151 HD
ENDROOT
BRANCH   1  17
ATOM     14  C   UNL     1       2.725  -0.342   7.605  0.00  0.00    -0.048 A 
ATOM     15  C   UNL     1       1.758  -0.619   6.656  0.00  0.00    +0.005 A 
ATOM     16  C   UNL     1       1.962  -0.262   5.337  0.00  0.00    +0.024 A 
ATOM     17  C   UNL     1       3.138   0.376   4.965  0.00  0.00    +0.037 A 
ATOM     18  C   UNL     1       4.109   0.647   5.921  0.00  0.00    +0.024 A 
ATOM     19  C   UNL     1       3.897   0.293   7.239  0.00  0.00    +0.005 A 
BRANCH  14  21
ATOM     20  C   UNL     1       3.037  -2.146   9.278  0.00  0.00    +0.009 C 
ATOM     21  C   UNL     1       2.499  -0.733   9.043  0.00  0.00    +0.032 C 
ENDBRANCH  14  21
ENDBRANCH   1  17
BRANCH   7  22
ATOM     22  C   UNL     1       1.176   1.783   0.000  0.00  0.00    -0.022 A 
ATOM     23  C   UNL     1      -0.013   1.076   0.008  0.00  0.00    +0.009 A 
ATOM     24  C   UNL     1      -1.218   1.750   0.017  0.00  0.00    +0.046 A 
ATOM     25  C   UNL     1      -1.237   3.137   0.031  0.00  0.00    +0.117 A 
ATOM     26  C   UNL     1      -0.043   3.844   0.023  0.00  0.00    +0.046 A 
ATOM     27  C   UNL     1       1.160   3.165   0.007  0.00  0.00    +0.009 A 
BRANCH  25  28
ATOM     28  O   UNL     1      -2.422   3.802   0.045  0.00  0.00    -0.507 OA
ATOM     29  H   UNL     1      -2.773   3.999  -0.834  0.00  0.00    +0.292 HD
ENDBRANCH  25  28
ENDBRANCH   7  22
TORSDOF 4
