REMARK  Name = ZINC36549103
REMARK  12 active torsions:
REMARK  status: ('A' for Active; 'I' for Inactive)
REMARK    1  A    between atoms: C_1  and  C_2
REMARK    2  A    between atoms: C_5  and  S_8
REMARK    3  A    between atoms: S_8  and  C_11
REMARK    4  A    between atoms: C_11  and  N_12
REMARK    5  A    between atoms: C_13  and  C_15
REMARK    6  A    between atoms: C_15  and  C_17
REMARK    7  A    between atoms: C_15  and  N_24
REMARK    8  A    between atoms: C_22  and  O_23
REMARK    9  A    between atoms: N_24  and  C_25
REMARK   10  A    between atoms: C_32  and  C_34
REMARK   11  A    between atoms: C_34  and  O_35
REMARK   12  A    between atoms: O_35  and  C_36
REMARK                            x       y       z     vdW  Elec       q    Type
REMARK                         _______ _______ _______ _____ _____    ______ ____
ROOT
ATOM      1  C   UNL     1       3.339  -4.990   3.345  0.00  0.00    +0.201 C 
ENDROOT
BRANCH   1   2
ATOM      2  C   UNL     1       2.684  -3.728   3.846  0.00  0.00    +0.024 A 
ATOM      3  C   UNL     1       1.367  -3.460   3.530  0.00  0.00    +0.009 A 
ATOM      4  C   UNL     1       0.766  -2.302   3.989  0.00  0.00    +0.001 A 
ATOM      5  C   UNL     1       1.482  -1.410   4.766  0.00  0.00    +0.004 A 
ATOM      6  C   UNL     1       2.800  -1.674   5.085  0.00  0.00    +0.046 A 
ATOM      7  C   UNL     1       3.403  -2.837   4.630  0.00  0.00    +0.122 A 
BRANCH   7   8
ATOM      8  O   UNL     1       4.698  -3.102   4.948  0.00  0.00    -0.506 OA
ATOM      9  H   UNL     1       5.341  -2.688   4.355  0.00  0.00    +0.292 HD
ENDBRANCH   7   8
ENDBRANCH   1   2
BRANCH   1  11
ATOM     10  N   UNL     1       2.636  -4.769   0.984  0.00  0.00    -0.294 N 
ATOM     11  C   UNL     1       2.606  -5.485   2.125  0.00  0.00    +0.240 C 
ATOM     12  O   UNL     1       1.988  -6.528   2.171  0.00  0.00    -0.273 OA
ATOM     13  H   UNL     1       3.071  -3.902   0.967  0.00  0.00    +0.150 HD
BRANCH  10  14
ATOM     14  C   UNL     1       2.012  -5.301  -0.231  0.00  0.00    +0.278 C 
BRANCH  14  15
ATOM     15  S   UNL     1       0.325  -4.651  -0.378  0.00  0.00    +0.013 S 
ATOM     16  O   UNL     1      -0.358  -4.779   0.862  0.00  0.00    -0.168 OA
ATOM     17  O   UNL     1      -0.272  -5.108  -1.584  0.00  0.00    -0.168 OA
BRANCH  15  22
ATOM     18  C   UNL     1       1.009   1.293  -1.152  0.00  0.00    +0.044 C 
ATOM     19  C   UNL     1       0.838  -0.192  -0.959  0.00  0.00    -0.050 A 
ATOM     20  C   UNL     1       0.803  -1.032  -2.055  0.00  0.00    +0.005 A 
ATOM     21  C   UNL     1       0.646  -2.394  -1.878  0.00  0.00    +0.027 A 
ATOM     22  C   UNL     1       0.526  -2.916  -0.604  0.00  0.00    +0.090 A 
ATOM     23  C   UNL     1       0.562  -2.075   0.493  0.00  0.00    +0.027 A 
ATOM     24  C   UNL     1       0.723  -0.714   0.316  0.00  0.00    +0.005 A 
ENDBRANCH  15  22
ENDBRANCH  14  15
ENDBRANCH  10  14
ENDBRANCH   1  11
BRANCH   1  25
ATOM     25  N   UNL     1       3.292  -6.013   4.393  0.00  0.00    -0.252 N 
ATOM     26  C   UNL     1       4.430  -6.601   4.812  0.00  0.00    +0.247 C 
ATOM     27  O   UNL     1       5.493  -6.282   4.323  0.00  0.00    -0.273 OA
BRANCH  25  28
ATOM     28  C   UNL     1       2.065  -6.381   4.957  0.00  0.00    +0.056 A 
ATOM     29  C   UNL     1       1.326  -7.417   4.402  0.00  0.00    +0.025 A 
ATOM     30  C   UNL     1       0.116  -7.777   4.962  0.00  0.00    +0.002 A 
ATOM     31  C   UNL     1      -0.361  -7.108   6.074  0.00  0.00    +0.002 A 
ATOM     32  C   UNL     1       0.371  -6.075   6.630  0.00  0.00    +0.022 A 
ATOM     33  C   UNL     1       1.586  -5.713   6.078  0.00  0.00    +0.062 A 
ATOM     34 CL   UNL     1       2.510  -4.422   6.781  0.00  0.00    -0.082 Cl
ENDBRANCH  25  28
BRANCH  26  35
ATOM     35  C   UNL     1       4.382  -7.653   5.889  0.00  0.00    +0.255 C 
BRANCH  35  36
ATOM     36  O   UNL     1       5.705  -8.121   6.158  0.00  0.00    -0.374 OA
ATOM     37  C   UNL     1       5.771  -9.127   7.170  0.00  0.00    +0.194 C 
ENDBRANCH  35  36
ENDBRANCH  26  35
ENDBRANCH   1  25
TORSDOF 10
