REMARK  Name = ZINC62130359
REMARK  5 active torsions:
REMARK  status: ('A' for Active; 'I' for Inactive)
REMARK    1  A    between atoms: C_1  and  C_2
REMARK    2  A    between atoms: N_6  and  C_7
REMARK    3  A    between atoms: C_7  and  C_8
REMARK    4  A    between atoms: C_14  and  C_16
REMARK    5  A    between atoms: C_18  and  C_22
REMARK                            x       y       z     vdW  Elec       q    Type
REMARK                         _______ _______ _______ _____ _____    ______ ____
ROOT
ATOM      1  C   UNL     1      -0.521   1.399   2.872  0.00  0.00    +0.012 C 
ATOM      2  C   UNL     1      -1.639   2.076   2.076  0.00  0.00    +0.024 C 
ATOM      3  C   UNL     1      -2.996   1.611   2.612  0.00  0.00    +0.108 C 
ATOM      4  N   UNL     1      -3.046   1.865   4.059  0.00  0.00    -0.296 N 
ATOM      5  C   UNL     1      -1.969   1.335   4.906  0.00  0.00    +0.108 C 
ATOM      6  C   UNL     1      -0.623   1.803   4.344  0.00  0.00    +0.024 C 
ATOM      7  C   UNL     1      -4.059   2.571   4.597  0.00  0.00    +0.264 C 
ATOM      8  O   UNL     1      -4.877   3.110   3.876  0.00  0.00    -0.268 OA
ENDROOT
BRANCH   7   9
ATOM      9  C   UNL     1      -4.176   2.692   6.060  0.00  0.00    +0.121 A 
ATOM     10  C   UNL     1      -4.835   3.686   6.757  0.00  0.00    +0.063 A 
ATOM     11  C   UNL     1      -4.664   3.361   8.117  0.00  0.00    +0.100 A 
ATOM     12  N   UNL     1      -3.954   2.253   8.174  0.00  0.00    -0.173 NA
ATOM     13  N   UNL     1      -3.661   1.838   6.995  0.00  0.00    -0.272 N 
ATOM     14  H   UNL     1      -3.147   1.040   6.796  0.00  0.00    +0.189 HD
BRANCH  11  15
ATOM     15  C   UNL     1      -5.187   4.125   9.271  0.00  0.00    +0.039 A 
ATOM     16  C   UNL     1      -5.052   3.867  10.608  0.00  0.00    +0.018 A 
ATOM     17  C   UNL     1      -5.633   4.731  11.512  0.00  0.00    +0.008 A 
ATOM     18  C   UNL     1      -6.319   5.808  11.050  0.00  0.00    +0.046 A 
ATOM     19  S   UNL     1      -6.151   5.628   9.282  0.00  0.00    -0.095 S 
ENDBRANCH  11  15
ENDBRANCH   7   9
BRANCH   1  20
ATOM     20  C   UNL     1       0.836   1.834   2.316  0.00  0.00    +0.126 C 
BRANCH  20  26
ATOM     21  C   UNL     1      -0.217   3.255  -0.228  0.00  0.00    +0.084 C 
ATOM     22  C   UNL     1       0.531   1.948  -0.176  0.00  0.00    +0.084 A 
ATOM     23  N   UNL     1       0.854   1.215  -1.206  0.00  0.00    -0.350 N 
ATOM     24  C   UNL     1       1.513   0.125  -0.785  0.00  0.00    +0.101 A 
ATOM     25  C   UNL     1       1.601   0.184   0.557  0.00  0.00    +0.104 A 
ATOM     26  N   UNL     1       0.983   1.343   0.944  0.00  0.00    -0.336 N 
ATOM     27  H   UNL     1       0.651   1.425  -2.131  0.00  0.00    +0.166 HD
ENDBRANCH  20  26
ENDBRANCH   1  20
TORSDOF 4
