REMARK  Name = ZINC05207949
REMARK  5 active torsions:
REMARK  status: ('A' for Active; 'I' for Inactive)
REMARK    1  A    between atoms: C_1  and  N_2
REMARK    2  A    between atoms: C_10  and  C_11
REMARK    3  A    between atoms: N_22  and  C_25
REMARK    4  A    between atoms: C_23  and  N_24
REMARK    5  A    between atoms: C_25  and  C_26
REMARK                            x       y       z     vdW  Elec       q    Type
REMARK                         _______ _______ _______ _____ _____    ______ ____
ROOT
ATOM      1  C   UNL     1      -2.598   6.433  -0.255  0.00  0.00    +0.084 A 
ATOM      2  C   UNL     1      -4.063   6.467  -0.377  0.00  0.00    +0.121 A 
ATOM      3  C   UNL     1      -4.408   7.885  -0.516  0.00  0.00    +0.162 A 
ATOM      4  N   UNL     1      -5.670   8.234  -0.645  0.00  0.00    -0.226 NA
ATOM      5  C   UNL     1      -6.625   7.295  -0.651  0.00  0.00    +0.092 A 
ATOM      6  C   UNL     1      -7.977   7.660  -0.790  0.00  0.00    +0.030 A 
ATOM      7  C   UNL     1      -8.940   6.700  -0.794  0.00  0.00    +0.002 A 
ATOM      8  C   UNL     1      -8.610   5.352  -0.662  0.00  0.00    +0.002 A 
ATOM      9  C   UNL     1      -7.315   4.960  -0.526  0.00  0.00    +0.030 A 
ATOM     10  C   UNL     1      -6.289   5.924  -0.517  0.00  0.00    +0.090 A 
ATOM     11  N   UNL     1      -5.011   5.551  -0.383  0.00  0.00    -0.241 NA
ATOM     12  N   UNL     1      -3.225   8.593  -0.474  0.00  0.00    -0.305 N 
ATOM     13  C   UNL     1      -2.165   7.747  -0.316  0.00  0.00    +0.111 A 
ENDROOT
BRANCH   1  23
ATOM     14  C   UNL     1      -3.116   4.129   1.733  0.00  0.00    +0.151 C 
ATOM     15  N   UNL     1      -1.996   4.220   0.794  0.00  0.00    -0.327 N 
ATOM     16  C   UNL     1      -0.980   3.293   0.634  0.00  0.00    +0.069 A 
ATOM     17  C   UNL     1      -0.687   2.077   1.233  0.00  0.00    +0.028 A 
ATOM     18  C   UNL     1       0.435   1.373   0.847  0.00  0.00    +0.002 A 
ATOM     19  C   UNL     1       1.268   1.869  -0.146  0.00  0.00    +0.002 A 
ATOM     20  C   UNL     1       0.991   3.071  -0.756  0.00  0.00    +0.030 A 
ATOM     21  C   UNL     1      -0.140   3.800  -0.372  0.00  0.00    +0.090 A 
ATOM     22  N   UNL     1      -0.663   4.984  -0.776  0.00  0.00    -0.227 NA
ATOM     23  C   UNL     1      -1.758   5.238  -0.093  0.00  0.00    +0.147 A 
ENDBRANCH   1  23
BRANCH  13  24
ATOM     24  N   UNL     1      -0.852   8.145  -0.233  0.00  0.00    -0.344 N 
ATOM     25  H   UNL     1      -0.151   7.483  -0.123  0.00  0.00    +0.144 HD
ATOM     26  H   UNL     1      -0.626   9.087  -0.283  0.00  0.00    +0.144 HD
ENDBRANCH  13  24
BRANCH  12  27
ATOM     27  C   UNL     1      -3.120  10.050  -0.580  0.00  0.00    +0.199 C 
BRANCH  27  28
ATOM     28  C   UNL     1      -3.200  10.660   0.796  0.00  0.00    +0.125 A 
ATOM     29  C   UNL     1      -2.157  10.902   1.610  0.00  0.00    +0.046 A 
ATOM     30  C   UNL     1      -2.684  11.478   2.790  0.00  0.00    +0.041 A 
ATOM     31  C   UNL     1      -4.017  11.545   2.629  0.00  0.00    +0.195 A 
ATOM     32  O   UNL     1      -4.324  11.048   1.419  0.00  0.00    -0.466 OA
ENDBRANCH  27  28
ENDBRANCH  12  27
TORSDOF 4
