REMARK  Name = ZINC20567651
REMARK  5 active torsions:
REMARK  status: ('A' for Active; 'I' for Inactive)
REMARK    1  A    between atoms: C_1  and  C_2
REMARK    2  A    between atoms: C_2  and  N_3
REMARK    3  A    between atoms: C_16  and  C_18
REMARK    4  A    between atoms: N_24  and  C_27
REMARK    5  A    between atoms: C_31  and  C_33
REMARK                            x       y       z     vdW  Elec       q    Type
REMARK                         _______ _______ _______ _____ _____    ______ ____
ROOT
ATOM      1  C   UNL     1       2.171  -2.836   0.251  0.00  0.00    +0.074 A 
ATOM      2  C   UNL     1       3.039  -1.784  -0.093  0.00  0.00    +0.260 A 
ATOM      3  N   UNL     1       3.439  -1.643  -1.372  0.00  0.00    -0.274 N 
ATOM      4  H   UNL     1       4.038  -0.918  -1.612  0.00  0.00    +0.173 HD
ATOM      5  C   UNL     1       3.016  -2.501  -2.318  0.00  0.00    +0.337 A 
ATOM      6  O   UNL     1       3.389  -2.357  -3.467  0.00  0.00    -0.246 OA
ATOM      7  N   UNL     1       2.186  -3.515  -2.013  0.00  0.00    -0.229 N 
ATOM      8  C   UNL     1       1.757  -3.698  -0.721  0.00  0.00    +0.267 A 
ATOM      9  O   UNL     1       0.929  -4.720  -0.416  0.00  0.00    -0.267 OA
ATOM     10  O   UNL     1       3.426  -1.004   0.760  0.00  0.00    -0.267 OA
ENDROOT
BRANCH   1  24
ATOM     11  N   UNL     1       1.087  -1.768   2.150  0.00  0.00    +0.388 N 
ATOM     12  C   UNL     1       0.793  -1.863   3.586  0.00  0.00    -0.073 C 
ATOM     13  C   UNL     1       2.103  -1.783   4.383  0.00  0.00    +0.019 C 
ATOM     14  C   UNL     1       3.072  -2.766   3.776  0.00  0.00    -0.022 A 
ATOM     15  C   UNL     1       4.306  -3.293   4.315  0.00  0.00    +0.003 A 
ATOM     16  C   UNL     1       4.986  -3.081   5.518  0.00  0.00    +0.010 A 
ATOM     17  C   UNL     1       6.160  -3.769   5.697  0.00  0.00    +0.001 A 
ATOM     18  C   UNL     1       6.660  -4.634   4.738  0.00  0.00    +0.002 A 
ATOM     19  C   UNL     1       6.009  -4.862   3.538  0.00  0.00    +0.026 A 
ATOM     20  C   UNL     1       4.814  -4.179   3.329  0.00  0.00    +0.047 A 
ATOM     21  N   UNL     1       3.935  -4.171   2.283  0.00  0.00    -0.359 N 
ATOM     22  H   UNL     1       4.033  -4.689   1.468  0.00  0.00    +0.166 HD
ATOM     23  C   UNL     1       2.897  -3.324   2.557  0.00  0.00    +0.011 A 
ATOM     24  C   UNL     1       1.711  -3.012   1.675  0.00  0.00    +0.021 C 
ATOM     25  H   UNL     1       1.716  -0.996   1.990  0.00  0.00    -0.080 HD
BRANCH  11  27
ATOM     26  C   UNL     1      -0.750  -0.183   1.813  0.00  0.00    -0.017 C 
ATOM     27  C   UNL     1      -0.163  -1.538   1.412  0.00  0.00    -0.081 C 
ENDBRANCH  11  27
ENDBRANCH   1  24
BRANCH   7  28
ATOM     28  C   UNL     1       1.760  -4.393  -3.018  0.00  0.00    +0.055 A 
ATOM     29  C   UNL     1       2.495  -5.538  -3.299  0.00  0.00    +0.026 A 
ATOM     30  C   UNL     1       2.073  -6.402  -4.290  0.00  0.00    +0.003 A 
ATOM     31  C   UNL     1       0.921  -6.127  -5.004  0.00  0.00    +0.012 A 
ATOM     32  C   UNL     1       0.188  -4.988  -4.727  0.00  0.00    +0.057 A 
ATOM     33  C   UNL     1       0.601  -4.124  -3.732  0.00  0.00    +0.038 A 
BRANCH  32  34
ATOM     34  C   UNL     1      -1.067  -4.693  -5.508  0.00  0.00    +0.417 C 
ATOM     35  F   UNL     1      -1.281  -5.707  -6.448  0.00  0.00    -0.166 F 
ATOM     36  F   UNL     1      -2.157  -4.631  -4.633  0.00  0.00    -0.166 F 
ATOM     37  F   UNL     1      -0.928  -3.467  -6.168  0.00  0.00    -0.166 F 
ENDBRANCH  32  34
ENDBRANCH   7  28
TORSDOF 4
