REMARK  Name = ZINC14017831
REMARK  4 active torsions:
REMARK  status: ('A' for Active; 'I' for Inactive)
REMARK    1  A    between atoms: C_4  and  S_7
REMARK    2  A    between atoms: S_7  and  N_10
REMARK    3  A    between atoms: C_14  and  C_17
REMARK    4  A    between atoms: C_23  and  C_25
REMARK                            x       y       z     vdW  Elec       q    Type
REMARK                         _______ _______ _______ _____ _____    ______ ____
ROOT
ATOM      1  C   UNL     1      -1.295   3.998   4.436  0.00  0.00    +0.225 C 
ATOM      2  O   UNL     1      -2.119   4.790   4.032  0.00  0.00    -0.275 OA
ATOM      3  N   UNL     1      -1.475   3.382   5.621  0.00  0.00    -0.238 N 
ATOM      4  C   UNL     1      -2.603   3.655   6.379  0.00  0.00    +0.314 A 
ATOM      5  N   UNL     1      -3.565   4.489   6.065  0.00  0.00    -0.092 NA
ATOM      6  N   UNL     1      -4.452   4.489   6.997  0.00  0.00    -0.106 NA
ATOM      7  C   UNL     1      -4.087   3.661   7.946  0.00  0.00    +0.250 A 
ATOM      8  O   UNL     1      -2.909   3.116   7.574  0.00  0.00    -0.405 OA
ATOM      9  H   UNL     1      -0.815   2.749   5.944  0.00  0.00    +0.159 HD
ENDROOT
BRANCH   7  10
ATOM     10  C   UNL     1      -4.828   3.377   9.192  0.00  0.00    +0.039 A 
ATOM     11  C   UNL     1      -4.320   2.462  10.117  0.00  0.00    +0.014 A 
ATOM     12  C   UNL     1      -5.013   2.206  11.281  0.00  0.00    +0.021 A 
ATOM     13  C   UNL     1      -6.217   2.844  11.529  0.00  0.00    +0.041 A 
ATOM     14  C   UNL     1      -6.729   3.748  10.613  0.00  0.00    +0.021 A 
ATOM     15  C   UNL     1      -6.042   4.018   9.448  0.00  0.00    +0.014 A 
ATOM     16 CL   UNL     1      -7.087   2.511  12.993  0.00  0.00    -0.084 Cl
ENDBRANCH   7  10
BRANCH   1  21
ATOM     17  N   UNL     1       1.155   4.329   1.596  0.00  0.00    -0.176 NA
ATOM     18  C   UNL     1       2.423   4.564   2.300  0.00  0.00    +0.109 C 
ATOM     19  C   UNL     1       2.432   3.735   3.589  0.00  0.00    +0.018 C 
ATOM     20  C   UNL     1       1.185   4.066   4.412  0.00  0.00    +0.015 C 
ATOM     21  C   UNL     1      -0.068   3.702   3.612  0.00  0.00    +0.091 C 
ATOM     22  C   UNL     1      -0.105   4.535   2.322  0.00  0.00    +0.122 C 
BRANCH  17  23
ATOM     23  S   UNL     1       1.147   3.847   0.011  0.00  0.00    +0.061 S 
ATOM     24  O   UNL     1       2.382   4.273  -0.549  0.00  0.00    -0.153 OA
ATOM     25  O   UNL     1      -0.109   4.239  -0.526  0.00  0.00    -0.153 OA
BRANCH  23  29
ATOM     26  C   UNL     1       1.208  -0.679  -0.014  0.00  0.00    +0.000 A 
ATOM     27  C   UNL     1       0.002  -0.004   0.002  0.00  0.00    +0.002 A 
ATOM     28  C   UNL     1      -0.017   1.378   0.010  0.00  0.00    +0.028 A 
ATOM     29  C   UNL     1       1.171   2.086   0.002  0.00  0.00    +0.105 A 
ATOM     30  C   UNL     1       2.377   1.411  -0.014  0.00  0.00    +0.028 A 
ATOM     31  C   UNL     1       2.396   0.029  -0.021  0.00  0.00    +0.002 A 
ENDBRANCH  23  29
ENDBRANCH  17  23
ENDBRANCH   1  21
TORSDOF 4
