REMARK  Name = ZINC37060020
REMARK  6 active torsions:
REMARK  status: ('A' for Active; 'I' for Inactive)
REMARK    1  A    between atoms: C_1  and  C_2
REMARK    2  A    between atoms: C_5  and  C_7
REMARK    3  A    between atoms: C_10  and  C_12
REMARK    4  A    between atoms: C_12  and  N_13
REMARK    5  A    between atoms: N_13  and  C_14
REMARK    6  A    between atoms: C_16  and  N_21
REMARK                            x       y       z     vdW  Elec       q    Type
REMARK                         _______ _______ _______ _____ _____    ______ ____
ROOT
ATOM      1  N   UNL     1       4.919   2.118   3.714  0.00  0.00    -0.336 N 
ATOM      2  H   UNL     1       5.000   1.152   3.750  0.00  0.00    +0.147 HD
ENDROOT
BRANCH   1   3
ATOM      3  C   UNL     1       6.038   2.922   3.944  0.00  0.00    +0.048 A 
ATOM      4  C   UNL     1       5.923   4.306   3.899  0.00  0.00    +0.057 A 
ATOM      5  C   UNL     1       7.030   5.098   4.128  0.00  0.00    +0.128 A 
ATOM      6  C   UNL     1       8.255   4.516   4.401  0.00  0.00    +0.034 A 
ATOM      7  C   UNL     1       8.375   3.139   4.447  0.00  0.00    +0.024 A 
ATOM      8  C   UNL     1       7.269   2.340   4.225  0.00  0.00    +0.062 A 
ATOM      9 CL   UNL     1       7.418   0.612   4.289  0.00  0.00    -0.082 Cl
BRANCH   5  10
ATOM     10  N   UNL     1       6.907   6.572   4.080  0.00  0.00    +0.056 N 
ATOM     11  O   UNL     1       5.838   7.082   3.841  0.00  0.00    -0.126 OA
ATOM     12  O   UNL     1       7.877   7.267   4.280  0.00  0.00    -0.126 OA
ENDBRANCH   5  10
ENDBRANCH   1   3
BRANCH   1  13
ATOM     13  C   UNL     1       3.623   2.734   3.419  0.00  0.00    +0.176 C 
BRANCH  13  17
ATOM     14  C   UNL     1       1.320   0.160   2.233  0.00  0.00    +0.109 A 
ATOM     15  C   UNL     1       0.999   0.148   3.539  0.00  0.00    +0.045 A 
ATOM     16  C   UNL     1       1.817   1.113   4.170  0.00  0.00    +0.046 A 
ATOM     17  C   UNL     1       2.590   1.656   3.212  0.00  0.00    +0.122 A 
ATOM     18  O   UNL     1       2.289   1.070   2.042  0.00  0.00    -0.463 OA
BRANCH  14  22
ATOM     19  C   UNL     1      -0.019   1.526   0.010  0.00  0.00    +0.008 C 
ATOM     20  C   UNL     1       0.002  -0.004   0.002  0.00  0.00    -0.003 C 
ATOM     21  C   UNL     1       1.351  -0.691  -0.221  0.00  0.00    +0.015 C 
ATOM     22  C   UNL     1       0.703  -0.708   1.166  0.00  0.00    +0.058 C 
ENDBRANCH  14  22
ENDBRANCH  13  17
ENDBRANCH   1  13
TORSDOF 5
