REMARK  Name = ZINC16042051
REMARK  5 active torsions:
REMARK  status: ('A' for Active; 'I' for Inactive)
REMARK    1  A    between atoms: C_1  and  C_2
REMARK    2  A    between atoms: C_2  and  C_3
REMARK    3  A    between atoms: C_2  and  C_4
REMARK    4  A    between atoms: C_4  and  C_5
REMARK    5  A    between atoms: N_13  and  C_16
REMARK                            x       y       z     vdW  Elec       q    Type
REMARK                         _______ _______ _______ _____ _____    ______ ____
ROOT
ATOM      1  C   UNL     1       2.188  -0.451  -1.258  0.00  0.00    +0.068 C 
ATOM      2  C   UNL     1       3.060  -0.734  -2.500  0.00  0.00    +0.107 C 
ATOM      3  C   UNL     1       3.835   0.589  -2.754  0.00  0.00    +0.123 C 
ATOM      4  C   UNL     1       3.304   1.051  -4.093  0.00  0.00    +0.233 C 
ATOM      5  O   UNL     1       3.653   2.054  -4.676  0.00  0.00    -0.274 OA
ATOM      6  N   UNL     1       2.389   0.180  -4.533  0.00  0.00    -0.210 N 
ATOM      7  C   UNL     1       2.170  -0.874  -3.713  0.00  0.00    +0.232 C 
ATOM      8  O   UNL     1       1.391  -1.782  -3.910  0.00  0.00    -0.274 OA
ATOM      9  C   UNL     1       3.360   1.533  -1.642  0.00  0.00    +0.136 C 
ATOM     10  N   UNL     1       2.030   1.027  -1.228  0.00  0.00    -0.295 NA
ATOM     11  C   UNL     1       3.269   2.953  -2.124  0.00  0.00    +0.003 A 
ATOM     12  C   UNL     1       2.558   3.569  -3.129  0.00  0.00    +0.008 A 
ATOM     13  C   UNL     1       2.687   4.931  -3.334  0.00  0.00    +0.000 A 
ATOM     14  C   UNL     1       3.533   5.671  -2.528  0.00  0.00    +0.002 A 
ATOM     15  C   UNL     1       4.248   5.058  -1.520  0.00  0.00    +0.023 A 
ATOM     16  C   UNL     1       4.124   3.687  -1.307  0.00  0.00    +0.039 A 
ATOM     17  N   UNL     1       4.731   2.851  -0.368  0.00  0.00    -0.283 N 
ATOM     18  C   UNL     1       4.337   1.570  -0.498  0.00  0.00    +0.243 C 
ATOM     19  O   UNL     1       4.699   0.628   0.175  0.00  0.00    -0.273 OA
ATOM     20  H   UNL     1       1.306   1.326  -1.863  0.00  0.00    +0.123 HD
ATOM     21  H   UNL     1       5.364   3.157   0.300  0.00  0.00    +0.155 HD
ENDROOT
BRANCH   6  22
ATOM     22  C   UNL     1       1.713   0.341  -5.751  0.00  0.00    +0.044 A 
ATOM     23  C   UNL     1       2.405   0.236  -6.949  0.00  0.00    +0.025 A 
ATOM     24  C   UNL     1       1.737   0.396  -8.148  0.00  0.00    +0.022 A 
ATOM     25  C   UNL     1       0.379   0.659  -8.154  0.00  0.00    +0.041 A 
ATOM     26  C   UNL     1      -0.314   0.765  -6.960  0.00  0.00    +0.022 A 
ATOM     27  C   UNL     1       0.349   0.600  -5.760  0.00  0.00    +0.025 A 
ATOM     28 CL   UNL     1      -0.459   0.859  -9.662  0.00  0.00    -0.084 Cl
ENDBRANCH   6  22
BRANCH   1  29
ATOM     29  C   UNL     1       0.824  -1.129  -1.399  0.00  0.00    +0.022 C 
BRANCH  29  31
ATOM     30  C   UNL     1      -0.293   0.582   0.038  0.00  0.00    +0.007 C 
ATOM     31  C   UNL     1       0.010  -0.909  -0.122  0.00  0.00    -0.016 C 
ATOM     32  C   UNL     1      -1.302  -1.690  -0.213  0.00  0.00    +0.007 C 
ENDBRANCH  29  31
ENDBRANCH   1  29
TORSDOF 3
