REMARK  Name = ZINC39978188
REMARK  5 active torsions:
REMARK  status: ('A' for Active; 'I' for Inactive)
REMARK    1  A    between atoms: C_7  and  C_13
REMARK    2  A    between atoms: C_13  and  C_14
REMARK    3  A    between atoms: N_16  and  N_17
REMARK    4  A    between atoms: C_18  and  C_19
REMARK    5  A    between atoms: C_22  and  C_24
REMARK                            x       y       z     vdW  Elec       q    Type
REMARK                         _______ _______ _______ _____ _____    ______ ____
ROOT
ATOM      1  C   UNL     1       0.554  -4.205   1.181  0.00  0.00    +0.235 C 
ATOM      2  O   UNL     1       1.064  -4.798   0.253  0.00  0.00    -0.274 OA
ATOM      3  N   UNL     1      -0.037  -4.893   2.178  0.00  0.00    -0.207 N 
ATOM      4  H   UNL     1      -0.445  -4.418   2.919  0.00  0.00    +0.177 HD
ENDROOT
BRANCH   3   5
ATOM      5  N   UNL     1      -0.062  -6.293   2.143  0.00  0.00    -0.185 NA
ATOM      6  C   UNL     1      -0.632  -6.957   3.106  0.00  0.00    +0.176 C 
BRANCH   6   7
ATOM      7  C   UNL     1      -0.659  -8.421   3.071  0.00  0.00    +0.148 A 
ATOM      8  C   UNL     1      -1.231  -9.243   4.016  0.00  0.00    +0.051 A 
ATOM      9  C   UNL     1      -1.025 -10.560   3.585  0.00  0.00    +0.050 A 
ATOM     10  C   UNL     1      -0.343 -10.494   2.406  0.00  0.00    +0.136 A 
ATOM     11  O   UNL     1      -0.132  -9.199   2.103  0.00  0.00    -0.454 OA
BRANCH  10  12
ATOM     12  C   UNL     1       0.088 -11.649   1.595  0.00  0.00    +0.017 A 
ATOM     13  C   UNL     1      -0.202 -12.949   2.016  0.00  0.00    +0.012 A 
ATOM     14  C   UNL     1       0.203 -14.024   1.253  0.00  0.00    +0.016 A 
ATOM     15  C   UNL     1       0.897 -13.817   0.072  0.00  0.00    +0.018 A 
ATOM     16  C   UNL     1       1.188 -12.531  -0.350  0.00  0.00    +0.016 A 
ATOM     17  C   UNL     1       0.784 -11.447   0.400  0.00  0.00    +0.012 A 
ATOM     18 BR   UNL     1       1.449 -15.297  -0.967  0.00  0.00    -0.050 Br
ENDBRANCH  10  12
ENDBRANCH   6   7
ENDBRANCH   3   5
BRANCH   1  19
ATOM     19  C   UNL     1       0.581  -2.698   1.218  0.00  0.00    +0.128 C 
BRANCH  19  26
ATOM     20  C   UNL     1      -0.017   1.383   0.010  0.00  0.00    +0.000 A 
ATOM     21  C   UNL     1       1.167   2.100   0.002  0.00  0.00    +0.001 A 
ATOM     22  C   UNL     1       2.383   1.445  -0.013  0.00  0.00    +0.013 A 
ATOM     23  C   UNL     1       2.409   0.053  -0.021  0.00  0.00    +0.045 A 
ATOM     24  C   UNL     1       1.203  -0.664  -0.013  0.00  0.00    -0.011 A 
ATOM     25  C   UNL     1       0.002  -0.004   0.002  0.00  0.00    +0.006 A 
ATOM     26  C   UNL     1       1.305  -2.171  -0.022  0.00  0.00    +0.136 C 
ATOM     27  N   UNL     1       2.654  -2.755  -0.039  0.00  0.00    -0.306 N 
ATOM     28  N   UNL     1       3.664  -2.052  -0.046  0.00  0.00    -0.105 NA
ATOM     29  C   UNL     1       3.670  -0.711  -0.038  0.00  0.00    +0.283 C 
ATOM     30  O   UNL     1       4.729  -0.116  -0.045  0.00  0.00    -0.267 OA
ATOM     31  H   UNL     1       2.750  -3.720  -0.046  0.00  0.00    +0.181 HD
ENDBRANCH  19  26
ENDBRANCH   1  19
TORSDOF 5
