REMARK  Name = ZINC40985933
REMARK  8 active torsions:
REMARK  status: ('A' for Active; 'I' for Inactive)
REMARK    1  A    between atoms: C_3  and  C_6
REMARK    2  A    between atoms: C_6  and  C_8
REMARK    3  A    between atoms: C_6  and  N_28
REMARK    4  A    between atoms: C_8  and  N_9
REMARK    5  A    between atoms: C_10  and  C_12
REMARK    6  A    between atoms: C_15  and  S_19
REMARK    7  A    between atoms: S_19  and  C_20
REMARK    8  A    between atoms: C_20  and  C_21
REMARK                            x       y       z     vdW  Elec       q    Type
REMARK                         _______ _______ _______ _____ _____    ______ ____
ROOT
ATOM      1  N   UNL     1       5.575   0.201   1.307  0.00  0.00    -0.312 N 
ATOM      2  C   UNL     1       6.248  -0.079   2.441  0.00  0.00    +0.248 C 
ATOM      3  O   UNL     1       5.660  -0.108   3.505  0.00  0.00    -0.270 OA
ATOM      4  H   UNL     1       6.044   0.224   0.458  0.00  0.00    +0.149 HD
ENDROOT
BRANCH   2   5
ATOM      5  C   UNL     1       7.697  -0.349   2.391  0.00  0.00    +0.092 A 
ATOM      6  C   UNL     1       8.393  -0.314   1.176  0.00  0.00    +0.129 A 
ATOM      7  N   UNL     1       9.689  -0.561   1.173  0.00  0.00    -0.229 NA
ATOM      8  C   UNL     1      10.333  -0.840   2.301  0.00  0.00    +0.190 A 
ATOM      9  N   UNL     1       9.711  -0.883   3.472  0.00  0.00    -0.209 NA
ATOM     10  C   UNL     1       8.415  -0.642   3.561  0.00  0.00    +0.146 A 
ATOM     11 CL   UNL     1       7.612  -0.694   5.099  0.00  0.00    -0.061 Cl
BRANCH   8  12
ATOM     12  S   UNL     1      12.064  -1.162   2.239  0.00  0.00    -0.081 S 
BRANCH  12  13
ATOM     13  C   UNL     1      12.512  -1.486   3.967  0.00  0.00    +0.112 C 
BRANCH  13  14
ATOM     14  C   UNL     1      13.987  -1.781   4.057  0.00  0.00    -0.037 A 
ATOM     15  C   UNL     1      14.441  -3.080   3.932  0.00  0.00    +0.006 A 
ATOM     16  C   UNL     1      15.794  -3.351   4.015  0.00  0.00    +0.020 A 
ATOM     17  C   UNL     1      16.694  -2.321   4.223  0.00  0.00    +0.041 A 
ATOM     18  C   UNL     1      16.239  -1.020   4.348  0.00  0.00    +0.020 A 
ATOM     19  C   UNL     1      14.886  -0.750   4.259  0.00  0.00    +0.006 A 
ATOM     20 CL   UNL     1      18.393  -2.660   4.327  0.00  0.00    -0.084 Cl
ENDBRANCH  13  14
ENDBRANCH  12  13
ENDBRANCH   8  12
ENDBRANCH   2   5
BRANCH   1  21
ATOM     21  C   UNL     1       4.136   0.469   1.357  0.00  0.00    +0.097 C 
BRANCH  21  22
ATOM     22  C   UNL     1       3.601   0.648  -0.066  0.00  0.00    +0.016 C 
BRANCH  22  23
ATOM     23  N   UNL     1       2.139   0.787  -0.025  0.00  0.00    +0.387 N 
ATOM     24  C   UNL     1       1.540  -0.426   0.571  0.00  0.00    -0.078 C 
ATOM     25  C   UNL     1       0.219  -0.638  -0.210  0.00  0.00    -0.020 C 
ATOM     26  C   UNL     1       0.632  -0.216  -1.645  0.00  0.00    -0.020 C 
ATOM     27  C   UNL     1       1.618   0.945  -1.395  0.00  0.00    -0.078 C 
ATOM     28  H   UNL     1       1.890   1.594   0.528  0.00  0.00    -0.081 HD
ENDBRANCH  22  23
BRANCH  22  31
ATOM     29  C   UNL     1       5.477   3.267  -1.856  0.00  0.00    +0.041 A 
ATOM     30  C   UNL     1       5.242   1.909  -1.539  0.00  0.00    +0.043 A 
ATOM     31  C   UNL     1       4.207   1.884  -0.679  0.00  0.00    +0.093 A 
ATOM     32  O   UNL     1       3.806   3.147  -0.460  0.00  0.00    -0.469 OA
ATOM     33  C   UNL     1       4.573   3.990  -1.171  0.00  0.00    +0.195 A 
ENDBRANCH  22  31
ENDBRANCH  21  22
ENDBRANCH   1  21
TORSDOF 8
