REMARK  Name = ZINC02453017
REMARK  9 active torsions:
REMARK  status: ('A' for Active; 'I' for Inactive)
REMARK    1  A    between atoms: C_1  and  C_2
REMARK    2  A    between atoms: C_2  and  O_3
REMARK    3  A    between atoms: O_3  and  C_4
REMARK    4  A    between atoms: C_4  and  C_6
REMARK    5  A    between atoms: C_7  and  N_17
REMARK    6  A    between atoms: C_18  and  C_20
REMARK    7  A    between atoms: C_20  and  N_53
REMARK    8  A    between atoms: C_21  and  N_53
REMARK    9  A    between atoms: C_22  and  N_53
REMARK                            x       y       z     vdW  Elec       q    Type
REMARK                         _______ _______ _______ _____ _____    ______ ____
ROOT
ATOM      1  C   UNL     1       1.029   2.218   0.371  0.00  0.00    +0.147 A 
ATOM      2  C   UNL     1      -0.020   1.386   0.037  0.00  0.00    +0.073 A 
ATOM      3  C   UNL     1      -1.146   2.253  -0.319  0.00  0.00    +0.023 A 
ATOM      4  C   UNL     1      -2.459   2.005  -0.731  0.00  0.00    +0.031 A 
ATOM      5  C   UNL     1      -3.296   3.051  -0.996  0.00  0.00    +0.042 A 
ATOM      6  C   UNL     1      -2.853   4.362  -0.859  0.00  0.00    +0.022 A 
ATOM      7  C   UNL     1      -1.565   4.629  -0.455  0.00  0.00    +0.028 A 
ATOM      8  C   UNL     1      -0.692   3.578  -0.179  0.00  0.00    +0.049 A 
ATOM      9  N   UNL     1       0.619   3.536   0.234  0.00  0.00    -0.348 N 
ATOM     10  H   UNL     1       1.174   4.313   0.407  0.00  0.00    +0.166 HD
ATOM     11 CL   UNL     1      -4.926   2.742  -1.508  0.00  0.00    -0.084 Cl
ENDROOT
BRANCH   2  12
ATOM     12  N   UNL     1      -0.012  -0.005   0.042  0.00  0.00    -0.285 N 
ATOM     13  C   UNL     1      -1.097  -0.684   0.465  0.00  0.00    +0.201 C 
ATOM     14  O   UNL     1      -2.114  -0.086   0.746  0.00  0.00    -0.278 OA
ATOM     15  H   UNL     1       0.775  -0.486  -0.258  0.00  0.00    +0.155 HD
BRANCH  13  16
ATOM     16  C   UNL     1      -1.046  -2.185   0.587  0.00  0.00    +0.019 C 
BRANCH  16  18
ATOM     17  C   UNL     1      -2.610  -2.228   2.435  0.00  0.00    -0.095 C 
ATOM     18  N   UNL     1      -2.364  -2.670   1.046  0.00  0.00    +0.385 N 
ATOM     19  H   UNL     1      -3.094  -2.281   0.438  0.00  0.00    -0.081 HD
BRANCH  18  20
ATOM     20  C   UNL     1      -2.414  -4.146   0.970  0.00  0.00    -0.068 C 
ATOM     21  C   UNL     1      -2.229  -4.574  -0.487  0.00  0.00    -0.015 C 
ATOM     22  C   UNL     1      -2.302  -6.099  -0.584  0.00  0.00    -0.002 C 
ATOM     23  C   UNL     1      -3.665  -6.577  -0.081  0.00  0.00    -0.000 C 
ATOM     24  C   UNL     1      -3.849  -6.150   1.377  0.00  0.00    -0.002 C 
ATOM     25  C   UNL     1      -3.777  -4.625   1.474  0.00  0.00    -0.015 C 
ENDBRANCH  18  20
ENDBRANCH  16  18
ENDBRANCH  13  16
ENDBRANCH   2  12
BRANCH   1  26
ATOM     26  C   UNL     1       2.317   1.794   0.784  0.00  0.00    +0.358 C 
ATOM     27  O   UNL     1       2.605   0.612   0.763  0.00  0.00    -0.243 OA
BRANCH  26  28
ATOM     28  O   UNL     1       3.225   2.702   1.202  0.00  0.00    -0.460 OA
BRANCH  28  30
ATOM     29  C   UNL     1       5.390   3.372   2.041  0.00  0.00    +0.048 C 
ATOM     30  C   UNL     1       4.503   2.204   1.603  0.00  0.00    +0.229 C 
ENDBRANCH  28  30
ENDBRANCH  26  28
ENDBRANCH   1  26
TORSDOF 7
