REMARK  Name = ZINC23538590
REMARK  7 active torsions:
REMARK  status: ('A' for Active; 'I' for Inactive)
REMARK    1  A    between atoms: C_2  and  C_3
REMARK    2  A    between atoms: C_3  and  N_4
REMARK    3  A    between atoms: C_5  and  C_25
REMARK    4  A    between atoms: C_8  and  S_9
REMARK    5  A    between atoms: S_9  and  C_10
REMARK    6  A    between atoms: C_10  and  C_11
REMARK    7  A    between atoms: N_13  and  C_14
REMARK                            x       y       z     vdW  Elec       q    Type
REMARK                         _______ _______ _______ _____ _____    ______ ____
ROOT
ATOM      1  S   UNL     1       0.980   3.438   2.280  0.00  0.00    -0.077 S 
ENDROOT
BRANCH   1   6
ATOM      2  N   UNL     1      -0.716   1.223   2.085  0.00  0.00    -0.298 N 
ATOM      3  C   UNL     1      -1.927   0.850   2.622  0.00  0.00    +0.165 A 
ATOM      4  N   UNL     1      -2.321   1.831   3.401  0.00  0.00    -0.128 NA
ATOM      5  N   UNL     1      -1.452   2.777   3.388  0.00  0.00    -0.122 NA
ATOM      6  C   UNL     1      -0.447   2.457   2.604  0.00  0.00    +0.193 A 
BRANCH   3   7
ATOM      7  C   UNL     1      -2.648  -0.416   2.370  0.00  0.00    +0.019 A 
ATOM      8  C   UNL     1      -2.330  -1.192   1.255  0.00  0.00    +0.014 A 
ATOM      9  C   UNL     1      -3.003  -2.375   1.027  0.00  0.00    +0.039 A 
ATOM     10  C   UNL     1      -3.999  -2.787   1.898  0.00  0.00    +0.123 A 
ATOM     11  C   UNL     1      -4.322  -2.017   3.004  0.00  0.00    +0.039 A 
ATOM     12  C   UNL     1      -3.652  -0.836   3.244  0.00  0.00    +0.014 A 
ATOM     13  F   UNL     1      -4.658  -3.943   1.667  0.00  0.00    -0.205 F 
ENDBRANCH   3   7
BRANCH   2  14
ATOM     14  C   UNL     1       0.114   0.453   1.155  0.00  0.00    +0.152 C 
BRANCH  14  16
ATOM     15  C   UNL     1       0.692   1.241  -1.083  0.00  0.00    +0.005 C 
ATOM     16  C   UNL     1      -0.241   0.826  -0.262  0.00  0.00    -0.013 C 
ENDBRANCH  14  16
ENDBRANCH   2  14
ENDBRANCH   1   6
BRANCH   1  17
ATOM     17  C   UNL     1       0.608   4.883   3.305  0.00  0.00    +0.173 C 
BRANCH  17  18
ATOM     18  C   UNL     1       1.724   5.887   3.182  0.00  0.00    +0.227 C 
ATOM     19  O   UNL     1       2.678   5.650   2.472  0.00  0.00    -0.275 OA
ATOM     20  N   UNL     1       1.663   7.050   3.862  0.00  0.00    -0.285 N 
ATOM     21  H   UNL     1       0.842   7.229   4.572  0.00  0.00    +0.155 HD
BRANCH  20  22
ATOM     22  C   UNL     1       2.645   8.029   3.665  0.00  0.00    +0.037 A 
ATOM     23  C   UNL     1       3.028   8.849   4.718  0.00  0.00    +0.027 A 
ATOM     24  C   UNL     1       4.000   9.814   4.529  0.00  0.00    +0.051 A 
ATOM     25  C   UNL     1       4.584   9.967   3.283  0.00  0.00    +0.162 A 
ATOM     26  C   UNL     1       4.200   9.152   2.227  0.00  0.00    +0.164 A 
ATOM     27  C   UNL     1       3.231   8.182   2.415  0.00  0.00    +0.072 A 
ATOM     28  O   UNL     1       4.785   9.312   1.004  0.00  0.00    -0.488 OA
ATOM     29  C   UNL     1       4.474  10.526   0.318  0.00  0.00    +0.232 C 
ATOM     30  C   UNL     1       5.385  11.654   0.776  0.00  0.00    +0.082 C 
ATOM     31  C   UNL     1       5.173  12.011   2.239  0.00  0.00    +0.232 C 
ATOM     32  O   UNL     1       5.542  10.920   3.085  0.00  0.00    -0.488 OA
ENDBRANCH  20  22
ENDBRANCH  17  18
ENDBRANCH   1  17
TORSDOF 7
