REMARK  Name = ZINC36588409
REMARK  13 active torsions:
REMARK  status: ('A' for Active; 'I' for Inactive)
REMARK    1  A    between atoms: C_1  and  C_2
REMARK    2  A    between atoms: C_2  and  C_3
REMARK    3  A    between atoms: C_2  and  C_4
REMARK    4  A    between atoms: C_2  and  N_5
REMARK    5  A    between atoms: N_5  and  C_6
REMARK    6  A    between atoms: C_6  and  C_8
REMARK    7  A    between atoms: C_6  and  C_17
REMARK    8  A    between atoms: C_9  and  O_16
REMARK    9  A    between atoms: C_11  and  O_15
REMARK   10  A    between atoms: C_13  and  O_14
REMARK   11  A    between atoms: N_19  and  C_20
REMARK   12  A    between atoms: C_26  and  C_28
REMARK   13  A    between atoms: C_28  and  C_29
REMARK                            x       y       z     vdW  Elec       q    Type
REMARK                         _______ _______ _______ _____ _____    ______ ____
ROOT
ATOM      1  C   UNL     1       2.281   0.267  -1.403  0.00  0.00    +0.200 C 
ENDROOT
BRANCH   1   2
ATOM      2  C   UNL     1       1.811   1.542  -0.750  0.00  0.00    +0.065 A 
ATOM      3  C   UNL     1       1.194   1.498   0.491  0.00  0.00    +0.129 A 
ATOM      4  C   UNL     1       0.761   2.671   1.091  0.00  0.00    +0.091 A 
ATOM      5  C   UNL     1       0.946   3.887   0.451  0.00  0.00    +0.124 A 
ATOM      6  C   UNL     1       1.564   3.930  -0.790  0.00  0.00    +0.091 A 
ATOM      7  C   UNL     1       2.001   2.758  -1.388  0.00  0.00    +0.129 A 
BRANCH   7   8
ATOM      8  O   UNL     1       2.611   2.801  -2.602  0.00  0.00    -0.506 OA
ATOM      9  H   UNL     1       2.003   2.728  -3.350  0.00  0.00    +0.292 HD
ENDBRANCH   7   8
BRANCH   5  10
ATOM     10  O   UNL     1       0.522   5.036   1.039  0.00  0.00    -0.507 OA
ATOM     11  H   UNL     1       1.184   5.457   1.604  0.00  0.00    +0.292 HD
ENDBRANCH   5  10
BRANCH   3  12
ATOM     12  O   UNL     1       1.013   0.306   1.118  0.00  0.00    -0.506 OA
ATOM     13  H   UNL     1       1.707   0.087   1.755  0.00  0.00    +0.292 HD
ENDBRANCH   3  12
ENDBRANCH   1   2
BRANCH   1  14
ATOM     14  C   UNL     1       3.116  -0.520  -0.425  0.00  0.00    +0.239 C 
ATOM     15  O   UNL     1       2.641  -1.483   0.139  0.00  0.00    -0.273 OA
ATOM     16  N   UNL     1       4.389  -0.153  -0.178  0.00  0.00    -0.311 N 
ATOM     17  H   UNL     1       4.768   0.617  -0.629  0.00  0.00    +0.149 HD
BRANCH  16  18
ATOM     18  C   UNL     1       5.200  -0.918   0.773  0.00  0.00    +0.073 C 
ATOM     19  C   UNL     1       4.933  -0.414   2.192  0.00  0.00    +0.022 C 
ATOM     20  C   UNL     1       5.780  -1.213   3.185  0.00  0.00    +0.002 C 
ATOM     21  C   UNL     1       7.262  -1.034   2.850  0.00  0.00    +0.000 C 
ATOM     22  C   UNL     1       7.529  -1.538   1.430  0.00  0.00    +0.002 C 
ATOM     23  C   UNL     1       6.682  -0.739   0.438  0.00  0.00    +0.022 C 
ENDBRANCH  16  18
ENDBRANCH   1  14
BRANCH   1  24
ATOM     24  N   UNL     1       1.121  -0.531  -1.808  0.00  0.00    -0.280 N 
ATOM     25  C   UNL     1      -0.125  -0.077  -1.570  0.00  0.00    +0.221 C 
ATOM     26  O   UNL     1      -0.291   1.051  -1.155  0.00  0.00    -0.275 OA
BRANCH  24  28
ATOM     27  C   UNL     1       2.810  -2.148  -2.526  0.00  0.00    +0.031 C 
ATOM     28  C   UNL     1       1.316  -1.822  -2.472  0.00  0.00    +0.030 C 
ATOM     29  C   UNL     1       0.758  -1.753  -3.895  0.00  0.00    +0.031 C 
ATOM     30  C   UNL     1       0.584  -2.914  -1.689  0.00  0.00    +0.031 C 
ENDBRANCH  24  28
BRANCH  25  31
ATOM     31  C   UNL     1      -1.313  -0.970  -1.820  0.00  0.00    +0.131 C 
BRANCH  31  32
ATOM     32  C   UNL     1      -2.561  -0.131  -1.919  0.00  0.00    -0.035 A 
ATOM     33  C   UNL     1      -3.295   0.149  -0.782  0.00  0.00    +0.008 A 
ATOM     34  C   UNL     1      -4.440   0.919  -0.867  0.00  0.00    +0.050 A 
ATOM     35  C   UNL     1      -4.855   1.412  -2.094  0.00  0.00    +0.166 A 
ATOM     36  C   UNL     1      -4.115   1.130  -3.240  0.00  0.00    +0.166 A 
ATOM     37  C   UNL     1      -2.965   0.362  -3.146  0.00  0.00    +0.053 A 
ATOM     38  O   UNL     1      -4.723   1.721  -4.309  0.00  0.00    -0.453 OA
ATOM     39  C   UNL     1      -6.061   2.025  -3.870  0.00  0.00    +0.466 C 
ATOM     40  O   UNL     1      -5.926   2.180  -2.445  0.00  0.00    -0.453 OA
ENDBRANCH  31  32
ENDBRANCH  25  31
ENDBRANCH   1  24
TORSDOF 10
