REMARK  Name = ZINC33508204
REMARK  7 active torsions:
REMARK  status: ('A' for Active; 'I' for Inactive)
REMARK    1  A    between atoms: C_6  and  S_7
REMARK    2  A    between atoms: S_7  and  N_10
REMARK    3  A    between atoms: N_10  and  C_11
REMARK    4  A    between atoms: N_10  and  C_26
REMARK    5  A    between atoms: C_11  and  C_12
REMARK    6  A    between atoms: N_14  and  N_15
REMARK    7  A    between atoms: C_16  and  C_17
REMARK                            x       y       z     vdW  Elec       q    Type
REMARK                         _______ _______ _______ _____ _____    ______ ____
ROOT
ATOM      1  N   UNL     1      -0.138   2.429   1.137  0.00  0.00    -0.165 NA
ENDROOT
BRANCH   1   2
ATOM      2  C   UNL     1      -0.389   3.818   1.527  0.00  0.00    +0.080 C 
ATOM      3  C   UNL     1      -1.228   4.507   0.448  0.00  0.00    +0.020 C 
ATOM      4  C   UNL     1      -1.490   5.958   0.855  0.00  0.00    +0.002 C 
ATOM      5  C   UNL     1      -0.157   6.693   1.011  0.00  0.00    +0.000 C 
ATOM      6  C   UNL     1       0.681   6.005   2.089  0.00  0.00    +0.002 C 
ATOM      7  C   UNL     1       0.944   4.553   1.683  0.00  0.00    +0.020 C 
ENDBRANCH   1   2
BRANCH   1   8
ATOM      8  S   UNL     1      -0.661   1.190   2.104  0.00  0.00    +0.062 S 
ATOM      9  O   UNL     1      -1.742   1.703   2.871  0.00  0.00    -0.153 OA
ATOM     10  O   UNL     1      -0.794   0.050   1.267  0.00  0.00    -0.153 OA
BRANCH   8  16
ATOM     11  C   UNL     1       1.599  -0.107   2.916  0.00  0.00    +0.029 A 
ATOM     12  C   UNL     1       2.621  -0.385   3.805  0.00  0.00    +0.017 A 
ATOM     13  C   UNL     1       2.675   0.269   5.022  0.00  0.00    +0.018 A 
ATOM     14  C   UNL     1       1.710   1.205   5.348  0.00  0.00    +0.017 A 
ATOM     15  C   UNL     1       0.692   1.486   4.457  0.00  0.00    +0.029 A 
ATOM     16  C   UNL     1       0.638   0.832   3.240  0.00  0.00    +0.106 A 
ATOM     17 BR   UNL     1       4.069  -0.116   6.241  0.00  0.00    -0.050 Br
ENDBRANCH   8  16
ENDBRANCH   1   8
BRANCH   1  18
ATOM     18  C   UNL     1       0.576   2.135  -0.108  0.00  0.00    +0.207 C 
BRANCH  18  19
ATOM     19  C   UNL     1      -0.399   2.129  -1.257  0.00  0.00    +0.248 C 
ATOM     20  O   UNL     1      -1.575   2.349  -1.055  0.00  0.00    -0.273 OA
ATOM     21  N   UNL     1       0.035   1.879  -2.508  0.00  0.00    -0.206 N 
ATOM     22  H   UNL     1       1.101   1.680  -2.691  0.00  0.00    +0.177 HD
BRANCH  21  23
ATOM     23  N   UNL     1      -0.872   1.874  -3.576  0.00  0.00    -0.188 NA
ATOM     24  C   UNL     1      -0.477   1.518  -4.760  0.00  0.00    +0.138 C 
BRANCH  24  25
ATOM     25  C   UNL     1       0.731   0.688  -4.916  0.00  0.00    -0.002 A 
ATOM     26  C   UNL     1       1.316   0.532  -6.176  0.00  0.00    +0.013 A 
ATOM     27  C   UNL     1       2.449  -0.241  -6.318  0.00  0.00    +0.050 A 
ATOM     28  C   UNL     1       3.006  -0.874  -5.216  0.00  0.00    +0.166 A 
ATOM     29  C   UNL     1       2.424  -0.727  -3.958  0.00  0.00    +0.167 A 
ATOM     30  C   UNL     1       1.291   0.050  -3.807  0.00  0.00    +0.059 A 
ATOM     31  O   UNL     1       3.155  -1.443  -3.054  0.00  0.00    -0.453 OA
ATOM     32  C   UNL     1       4.419  -1.695  -3.695  0.00  0.00    +0.466 C 
ATOM     33  O   UNL     1       4.100  -1.682  -5.098  0.00  0.00    -0.453 OA
ENDBRANCH  24  25
ENDBRANCH  21  23
ENDBRANCH  18  19
ENDBRANCH   1  18
TORSDOF 7
