REMARK  Name = ZINC64953696
REMARK  12 active torsions:
REMARK  status: ('A' for Active; 'I' for Inactive)
REMARK    1  A    between atoms: C_1  and  C_2
REMARK    2  A    between atoms: C_2  and  C_3
REMARK    3  A    between atoms: C_3  and  N_4
REMARK    4  A    between atoms: C_8  and  C_23
REMARK    5  A    between atoms: C_13  and  C_14
REMARK    6  A    between atoms: C_13  and  C_15
REMARK    7  A    between atoms: N_17  and  C_18
REMARK    8  A    between atoms: N_25  and  C_26
REMARK    9  A    between atoms: C_26  and  C_27
REMARK   10  A    between atoms: C_27  and  C_28
REMARK   11  A    between atoms: C_31  and  S_34
REMARK   12  A    between atoms: S_34  and  N_37
REMARK                            x       y       z     vdW  Elec       q    Type
REMARK                         _______ _______ _______ _____ _____    ______ ____
ROOT
ATOM      1  N   UNL     1       0.920  -2.118  -1.609  0.00  0.00    -0.281 N 
ATOM      2  C   UNL     1       1.967  -2.877  -1.204  0.00  0.00    +0.266 C 
ATOM      3  O   UNL     1       3.020  -2.382  -0.848  0.00  0.00    -0.268 OA
ATOM      4  C   UNL     1       1.759  -4.334  -1.219  0.00  0.00    +0.137 A 
ATOM      5  C   UNL     1       2.505  -5.374  -0.730  0.00  0.00    +0.155 A 
ATOM      6  N   UNL     1       1.827  -6.507  -1.008  0.00  0.00    -0.230 NA
ATOM      7  C   UNL     1       0.718  -6.211  -1.640  0.00  0.00    +0.200 A 
ATOM      8  N   UNL     1       0.637  -4.889  -1.802  0.00  0.00    -0.323 N 
ATOM      9  C   UNL     1      -0.375  -4.062  -2.462  0.00  0.00    +0.158 C 
ATOM     10  C   UNL     1      -0.411  -2.683  -1.795  0.00  0.00    +0.128 C 
ATOM     11  C   UNL     1      -1.090  -2.807  -0.430  0.00  0.00    +0.043 C 
ENDROOT
BRANCH  10  12
ATOM     12  C   UNL     1      -1.221  -1.748  -2.655  0.00  0.00    +0.238 C 
ATOM     13  O   UNL     1      -2.348  -1.443  -2.325  0.00  0.00    -0.273 OA
ATOM     14  N   UNL     1      -0.693  -1.249  -3.791  0.00  0.00    -0.311 N 
ATOM     15  H   UNL     1       0.178  -1.549  -4.093  0.00  0.00    +0.149 HD
BRANCH  14  16
ATOM     16  C   UNL     1      -1.436  -0.254  -4.568  0.00  0.00    +0.073 C 
ATOM     17  C   UNL     1      -2.373  -0.959  -5.571  0.00  0.00    +0.022 C 
ATOM     18  C   UNL     1      -2.325  -0.061  -6.832  0.00  0.00    +0.002 C 
ATOM     19  C   UNL     1      -0.842   0.380  -6.881  0.00  0.00    +0.002 C 
ATOM     20  C   UNL     1      -0.462   0.597  -5.402  0.00  0.00    +0.022 C 
ENDBRANCH  14  16
ENDBRANCH  10  12
BRANCH   5  21
ATOM     21  C   UNL     1       3.805  -5.274  -0.032  0.00  0.00    +0.265 C 
ATOM     22  O   UNL     1       4.312  -4.186   0.156  0.00  0.00    -0.268 OA
ATOM     23  N   UNL     1       4.428  -6.391   0.396  0.00  0.00    -0.310 N 
ATOM     24  H   UNL     1       4.023  -7.259   0.245  0.00  0.00    +0.149 HD
BRANCH  23  25
ATOM     25  C   UNL     1       5.715  -6.292   1.087  0.00  0.00    +0.109 C 
BRANCH  25  26
ATOM     26  C   UNL     1       6.201  -7.693   1.463  0.00  0.00    +0.054 C 
BRANCH  26  27
ATOM     27  C   UNL     1       7.526  -7.591   2.175  0.00  0.00    -0.046 A 
ATOM     28  C   UNL     1       8.703  -7.623   1.451  0.00  0.00    +0.005 A 
ATOM     29  C   UNL     1       9.918  -7.530   2.103  0.00  0.00    +0.029 A 
ATOM     30  C   UNL     1       9.956  -7.404   3.480  0.00  0.00    +0.105 A 
ATOM     31  C   UNL     1       8.778  -7.372   4.203  0.00  0.00    +0.029 A 
ATOM     32  C   UNL     1       7.563  -7.461   3.550  0.00  0.00    +0.005 A 
BRANCH  30  33
ATOM     33  S   UNL     1      11.505  -7.287   4.312  0.00  0.00    +0.056 S 
ATOM     34  O   UNL     1      11.284  -7.726   5.645  0.00  0.00    -0.153 OA
ATOM     35  O   UNL     1      12.470  -7.890   3.461  0.00  0.00    -0.153 OA
BRANCH  33  36
ATOM     36  N   UNL     1      11.892  -5.679   4.401  0.00  0.00    -0.204 NA
ATOM     37  H   UNL     1      11.293  -5.014   4.025  0.00  0.00    +0.144 HD
ATOM     38  H   UNL     1      12.717  -5.402   4.828  0.00  0.00    +0.144 HD
ENDBRANCH  33  36
ENDBRANCH  30  33
ENDBRANCH  26  27
ENDBRANCH  25  26
ENDBRANCH  23  25
ENDBRANCH   5  21
BRANCH   1  39
ATOM     39  C   UNL     1       1.130  -0.690  -1.861  0.00  0.00    +0.109 C 
BRANCH  39  41
ATOM     40  C   UNL     1       0.973   1.600  -0.874  0.00  0.00    +0.005 C 
ATOM     41  C   UNL     1       0.754   0.109  -0.611  0.00  0.00    +0.016 C 
ENDBRANCH  39  41
ENDBRANCH   1  39
TORSDOF 10
