REMARK  Name = ZINC40291884
REMARK  6 active torsions:
REMARK  status: ('A' for Active; 'I' for Inactive)
REMARK    1  A    between atoms: C_1  and  C_2
REMARK    2  A    between atoms: C_3  and  C_20
REMARK    3  A    between atoms: C_6  and  O_12
REMARK    4  A    between atoms: C_7  and  C_8
REMARK    5  A    between atoms: N_9  and  O_10
REMARK    6  A    between atoms: O_12  and  C_13
REMARK                            x       y       z     vdW  Elec       q    Type
REMARK                         _______ _______ _______ _____ _____    ______ ____
ROOT
ATOM      1  C   UNL     1      -0.098   1.507   0.023  0.00  0.00    +0.046 C 
ATOM      2  C   UNL     1      -0.076   0.000   0.011  0.00  0.00    -0.012 A 
ATOM      3  C   UNL     1      -0.110  -0.705  -1.181  0.00  0.00    +0.064 A 
ATOM      4  N   UNL     1      -0.090  -2.024  -1.169  0.00  0.00    -0.151 NA
ATOM      5  N   UNL     1      -0.038  -2.705  -0.084  0.00  0.00    -0.110 NA
ATOM      6  C   UNL     1      -0.001  -2.132   1.108  0.00  0.00    +0.251 A 
ATOM      7  C   UNL     1      -0.014  -0.730   1.203  0.00  0.00    +0.086 A 
ATOM      8  C   UNL     1      -0.171   0.035  -2.492  0.00  0.00    +0.068 C 
ENDROOT
BRANCH   7   9
ATOM      9  C   UNL     1       0.032  -0.051   2.516  0.00  0.00    +0.168 C 
ATOM     10  N   UNL     1      -1.073   0.231   3.142  0.00  0.00    -0.071 NA
ATOM     11  N   UNL     1       1.252   0.285   3.080  0.00  0.00    -0.340 N 
ATOM     12  H   UNL     1       2.076   0.075   2.613  0.00  0.00    +0.144 HD
ATOM     13  H   UNL     1       1.282   0.731   3.941  0.00  0.00    +0.144 HD
BRANCH  10  14
ATOM     14  O   UNL     1      -1.029   0.882   4.399  0.00  0.00    -0.408 OA
ATOM     15  H   UNL     1      -1.899   1.049   4.786  0.00  0.00    +0.328 HD
ENDBRANCH  10  14
ENDBRANCH   7   9
BRANCH   6  16
ATOM     16  O   UNL     1       0.052  -2.891   2.230  0.00  0.00    -0.436 OA
BRANCH  16  17
ATOM     17  C   UNL     1      -0.035  -4.240   2.092  0.00  0.00    +0.131 A 
ATOM     18  C   UNL     1       1.064  -4.967   1.656  0.00  0.00    +0.047 A 
ATOM     19  C   UNL     1       0.973  -6.338   1.517  0.00  0.00    +0.019 A 
ATOM     20  C   UNL     1      -0.212  -6.987   1.811  0.00  0.00    +0.018 A 
ATOM     21  C   UNL     1      -1.310  -6.265   2.246  0.00  0.00    +0.019 A 
ATOM     22  C   UNL     1      -1.221  -4.894   2.392  0.00  0.00    +0.047 A 
ATOM     23 BR   UNL     1      -0.334  -8.865   1.620  0.00  0.00    -0.050 Br
ENDBRANCH  16  17
ENDBRANCH   6  16
TORSDOF 4
