REMARK  Name = ZINC04517238
REMARK  8 active torsions:
REMARK  status: ('A' for Active; 'I' for Inactive)
REMARK    1  A    between atoms: C_1  and  C_2
REMARK    2  A    between atoms: C_3  and  C_20
REMARK    3  A    between atoms: C_12  and  N_16
REMARK    4  A    between atoms: C_13  and  C_14
REMARK    5  A    between atoms: C_20  and  O_22
REMARK    6  A    between atoms: O_22  and  C_23
REMARK    7  A    between atoms: C_23  and  C_24
REMARK    8  A    between atoms: C_23  and  C_25
REMARK                            x       y       z     vdW  Elec       q    Type
REMARK                         _______ _______ _______ _____ _____    ______ ____
ROOT
ATOM      1  C   UNL     1       4.238  -3.648  -2.322  0.00  0.00    +0.061 C 
ATOM      2  C   UNL     1       4.007  -2.652  -1.215  0.00  0.00    +0.019 C 
ATOM      3  C   UNL     1       3.950  -1.319  -1.403  0.00  0.00    +0.078 C 
ATOM      4  C   UNL     1       3.704  -0.719  -0.038  0.00  0.00    +0.148 C 
ATOM      5  C   UNL     1       2.398   0.023  -0.021  0.00  0.00    +0.020 A 
ATOM      6  C   UNL     1       1.208  -0.679  -0.013  0.00  0.00    +0.009 A 
ATOM      7  C   UNL     1       0.002  -0.004   0.002  0.00  0.00    +0.001 A 
ATOM      8  C   UNL     1      -0.017   1.379   0.010  0.00  0.00    +0.004 A 
ATOM      9  C   UNL     1       1.169   2.086   0.002  0.00  0.00    +0.046 A 
ATOM     10  C   UNL     1       2.383   1.410  -0.014  0.00  0.00    +0.135 A 
ATOM     11  O   UNL     1       3.540   2.117  -0.022  0.00  0.00    -0.441 OA
ATOM     12  C   UNL     1       4.694   1.530   0.338  0.00  0.00    +0.199 C 
ATOM     13  C   UNL     1       4.838   0.182   0.351  0.00  0.00    +0.110 C 
ATOM     14  C   UNL     1       3.641  -1.918   0.880  0.00  0.00    +0.238 C 
ATOM     15  O   UNL     1       3.458  -1.912   2.079  0.00  0.00    -0.274 OA
ATOM     16  N   UNL     1       3.829  -2.995   0.092  0.00  0.00    -0.288 N 
ATOM     17  H   UNL     1       3.837  -3.909   0.418  0.00  0.00    +0.155 HD
ENDROOT
BRANCH  12  18
ATOM     18  N   UNL     1       5.757   2.318   0.703  0.00  0.00    -0.328 N 
ATOM     19  H   UNL     1       6.596   1.909   0.965  0.00  0.00    +0.145 HD
ATOM     20  H   UNL     1       5.668   3.284   0.699  0.00  0.00    +0.145 HD
ENDBRANCH  12  18
BRANCH  13  21
ATOM     21  C   UNL     1       6.092  -0.390   0.741  0.00  0.00    +0.102 C 
ATOM     22  N   UNL     1       7.086  -0.844   1.050  0.00  0.00    -0.191 NA
ENDBRANCH  13  21
BRANCH   3  23
ATOM     23  C   UNL     1       4.092  -0.624  -2.628  0.00  0.00    +0.339 C 
ATOM     24  O   UNL     1       4.288  -1.240  -3.658  0.00  0.00    -0.245 OA
BRANCH  23  25
ATOM     25  O   UNL     1       4.010   0.723  -2.652  0.00  0.00    -0.459 OA
BRANCH  25  26
ATOM     26  C   UNL     1       4.162   1.359  -3.923  0.00  0.00    +0.171 C 
ATOM     27  C   UNL     1       2.793   1.495  -4.593  0.00  0.00    +0.052 C 
ATOM     28  C   UNL     1       4.775   2.747  -3.728  0.00  0.00    +0.052 C 
ENDBRANCH  25  26
ENDBRANCH  23  25
ENDBRANCH   3  23
TORSDOF 5
