REMARK  Name = ZINC36301694
REMARK  16 active torsions:
REMARK  status: ('A' for Active; 'I' for Inactive)
REMARK    1  A    between atoms: C_1  and  C_2
REMARK    2  A    between atoms: C_3  and  C_23
REMARK    3  A    between atoms: C_4  and  O_14
REMARK    4  A    between atoms: N_5  and  C_7
REMARK    5  A    between atoms: O_14  and  C_15
REMARK    6  A    between atoms: C_18  and  O_21
REMARK    7  A    between atoms: O_21  and  C_22
REMARK    8  A    between atoms: C_23  and  N_24
REMARK    9  A    between atoms: N_24  and  C_25
REMARK   10  A    between atoms: N_24  and  C_29
REMARK   11  A    between atoms: C_25  and  C_26
REMARK   12  A    between atoms: C_29  and  C_30
REMARK   13  A    between atoms: C_30  and  C_32
REMARK   14  A    between atoms: C_30  and  O_35
REMARK   15  A    between atoms: C_32  and  C_33
REMARK   16  A    between atoms: C_32  and  C_34
REMARK                            x       y       z     vdW  Elec       q    Type
REMARK                         _______ _______ _______ _____ _____    ______ ____
ROOT
ATOM      1  C   UNL     1       1.022   2.339  -0.562  0.00  0.00    +0.068 C 
ATOM      2  C   UNL     1       0.931   0.840  -0.438  0.00  0.00    +0.065 A 
ATOM      3  C   UNL     1       0.590  -0.046  -1.464  0.00  0.00    +0.021 A 
ATOM      4  C   UNL     1       0.619  -1.307  -0.955  0.00  0.00    +0.225 A 
ATOM      5  N   UNL     1       0.969  -1.210   0.355  0.00  0.00    -0.200 N 
ATOM      6  N   UNL     1       1.162   0.146   0.648  0.00  0.00    -0.168 NA
ENDROOT
BRANCH   5   7
ATOM      7  C   UNL     1       1.115  -2.277   1.252  0.00  0.00    +0.070 A 
ATOM      8  C   UNL     1       0.194  -3.317   1.252  0.00  0.00    +0.028 A 
ATOM      9  C   UNL     1       0.340  -4.367   2.137  0.00  0.00    +0.003 A 
ATOM     10  C   UNL     1       1.402  -4.385   3.022  0.00  0.00    +0.020 A 
ATOM     11  C   UNL     1       2.322  -3.351   3.025  0.00  0.00    +0.043 A 
ATOM     12  C   UNL     1       2.184  -2.300   2.138  0.00  0.00    +0.048 A 
ATOM     13 CL   UNL     1       3.654  -3.378   4.138  0.00  0.00    -0.083 Cl
ENDBRANCH   5   7
BRANCH   4  14
ATOM     14  O   UNL     1       0.348  -2.452  -1.632  0.00  0.00    -0.438 OA
BRANCH  14  15
ATOM     15  C   UNL     1      -0.950  -2.845  -1.726  0.00  0.00    +0.131 A 
ATOM     16  C   UNL     1      -1.960  -2.030  -1.237  0.00  0.00    +0.050 A 
ATOM     17  C   UNL     1      -3.278  -2.429  -1.333  0.00  0.00    +0.049 A 
ATOM     18  C   UNL     1      -3.593  -3.647  -1.919  0.00  0.00    +0.120 A 
ATOM     19  C   UNL     1      -2.583  -4.463  -2.407  0.00  0.00    +0.049 A 
ATOM     20  C   UNL     1      -1.265  -4.061  -2.317  0.00  0.00    +0.050 A 
BRANCH  18  21
ATOM     21  O   UNL     1      -4.891  -4.041  -2.013  0.00  0.00    -0.495 OA
ATOM     22  C   UNL     1      -5.142  -5.307  -2.627  0.00  0.00    +0.277 C 
ENDBRANCH  18  21
ENDBRANCH  14  15
ENDBRANCH   4  14
BRANCH   3  23
ATOM     23  C   UNL     1       0.249   0.330  -2.884  0.00  0.00    -0.036 C 
BRANCH  23  24
ATOM     24  N   UNL     1       1.474   0.342  -3.694  0.00  0.00    +0.384 N 
ATOM     25  H   UNL     1       2.154   0.954  -3.268  0.00  0.00    -0.081 HD
BRANCH  24  26
ATOM     26  C   UNL     1       2.023  -1.019  -3.773  0.00  0.00    -0.075 C 
BRANCH  26  27
ATOM     27  C   UNL     1       3.367  -0.985  -4.503  0.00  0.00    -0.028 C 
ATOM     28  C   UNL     1       3.461  -1.715  -5.844  0.00  0.00    +0.002 C 
ATOM     29  C   UNL     1       4.147  -2.297  -4.607  0.00  0.00    +0.002 C 
ENDBRANCH  26  27
ENDBRANCH  24  26
BRANCH  24  30
ATOM     30  C   UNL     1       1.162   0.824  -5.046  0.00  0.00    -0.046 C 
BRANCH  30  31
ATOM     31  C   UNL     1       0.733   2.290  -4.979  0.00  0.00    +0.101 C 
BRANCH  31  32
ATOM     32  C   UNL     1       0.364   2.779  -6.381  0.00  0.00    +0.010 C 
ATOM     33  C   UNL     1      -0.065   4.246  -6.314  0.00  0.00    +0.010 C 
ATOM     34  C   UNL     1       1.578   2.645  -7.303  0.00  0.00    +0.010 C 
ENDBRANCH  31  32
BRANCH  31  35
ATOM     35  O   UNL     1       1.809   3.079  -4.467  0.00  0.00    -0.393 OA
ATOM     36  H   UNL     1       2.592   3.090  -5.034  0.00  0.00    +0.210 HD
ENDBRANCH  31  35
ENDBRANCH  30  31
ENDBRANCH  24  30
ENDBRANCH  23  24
ENDBRANCH   3  23
TORSDOF 12
