REMARK  Name = ZINC16044868
REMARK  4 active torsions:
REMARK  status: ('A' for Active; 'I' for Inactive)
REMARK    1  A    between atoms: C_1  and  C_2
REMARK    2  A    between atoms: C_2  and  C_35
REMARK    3  A    between atoms: C_6  and  C_19
REMARK    4  A    between atoms: C_22  and  C_24
REMARK                            x       y       z     vdW  Elec       q    Type
REMARK                         _______ _______ _______ _____ _____    ______ ____
ROOT
ATOM      1  C   UNL     1       4.973  -5.285   2.702  0.00  0.00    +0.011 C 
ATOM      2  C   UNL     1       3.867  -4.460   3.362  0.00  0.00    -0.023 C 
ATOM      3  C   UNL     1       2.685  -4.321   2.400  0.00  0.00    +0.058 C 
ATOM      4  C   UNL     1       3.129  -3.596   1.153  0.00  0.00    +0.017 C 
ATOM      5  C   UNL     1       4.111  -2.671   1.198  0.00  0.00    +0.027 C 
ATOM      6  C   UNL     1       4.544  -1.939  -0.046  0.00  0.00    +0.128 C 
ATOM      7  C   UNL     1       4.091  -2.657  -1.284  0.00  0.00    +0.070 A 
ATOM      8  C   UNL     1       3.105  -3.594  -1.229  0.00  0.00    +0.111 A 
ATOM      9  N   UNL     1       2.707  -4.229  -2.381  0.00  0.00    -0.323 N 
ATOM     10  H   UNL     1       2.002  -4.894  -2.346  0.00  0.00    +0.169 HD
ATOM     11  C   UNL     1       3.289  -3.931  -3.557  0.00  0.00    +0.159 A 
ATOM     12  S   UNL     1       2.776  -4.734  -4.979  0.00  0.00    -0.013 S 
ATOM     13  N   UNL     1       4.270  -3.012  -3.631  0.00  0.00    -0.302 N 
ATOM     14  H   UNL     1       4.679  -2.814  -4.488  0.00  0.00    +0.171 HD
ATOM     15  C   UNL     1       4.688  -2.366  -2.525  0.00  0.00    +0.258 A 
ATOM     16  O   UNL     1       5.577  -1.535  -2.600  0.00  0.00    -0.267 OA
ATOM     17  N   UNL     1       2.511  -3.900  -0.030  0.00  0.00    -0.304 N 
ATOM     18  C   UNL     1       4.761  -2.363   2.406  0.00  0.00    +0.162 C 
ATOM     19  O   UNL     1       5.635  -1.518   2.415  0.00  0.00    -0.292 OA
ATOM     20  C   UNL     1       4.395  -3.059   3.689  0.00  0.00    +0.086 C 
ATOM     21  C   UNL     1       3.404  -5.148   4.648  0.00  0.00    +0.011 C 
ATOM     22  H   UNL     1       1.645  -4.337  -0.021  0.00  0.00    +0.153 HD
ENDROOT
BRANCH   6  23
ATOM     23  C   UNL     1       3.951  -0.553  -0.035  0.00  0.00    +0.118 A 
ATOM     24  C   UNL     1       4.649   0.600  -0.036  0.00  0.00    +0.046 A 
ATOM     25  C   UNL     1       3.709   1.650  -0.023  0.00  0.00    +0.050 A 
ATOM     26  C   UNL     1       2.478   1.075  -0.015  0.00  0.00    +0.135 A 
ATOM     27  O   UNL     1       2.640  -0.262  -0.017  0.00  0.00    -0.459 OA
BRANCH  26  28
ATOM     28  C   UNL     1       1.185   1.792   0.000  0.00  0.00    +0.019 A 
ATOM     29  C   UNL     1       1.159   3.187   0.008  0.00  0.00    +0.013 A 
ATOM     30  C   UNL     1      -0.050   3.852   0.022  0.00  0.00    +0.022 A 
ATOM     31  C   UNL     1      -1.236   3.137   0.030  0.00  0.00    +0.059 A 
ATOM     32  C   UNL     1      -1.217   1.751   0.017  0.00  0.00    +0.060 A 
ATOM     33  C   UNL     1      -0.013   1.076   0.008  0.00  0.00    +0.033 A 
ATOM     34 CL   UNL     1      -2.708   0.864   0.019  0.00  0.00    -0.082 Cl
ATOM     35 CL   UNL     1      -2.754   3.980   0.049  0.00  0.00    -0.082 Cl
ENDBRANCH  26  28
ENDBRANCH   6  23
TORSDOF 2
