REMARK  Name = ZINC51123160
REMARK  9 active torsions:
REMARK  status: ('A' for Active; 'I' for Inactive)
REMARK    1  A    between atoms: C_1  and  C_2
REMARK    2  A    between atoms: C_2  and  C_4
REMARK    3  A    between atoms: C_2  and  N_7
REMARK    4  A    between atoms: C_4  and  C_5
REMARK    5  A    between atoms: C_4  and  C_6
REMARK    6  A    between atoms: C_8  and  C_10
REMARK    7  A    between atoms: C_12  and  N_19
REMARK    8  A    between atoms: C_13  and  N_17
REMARK    9  A    between atoms: N_17  and  N_18
REMARK                            x       y       z     vdW  Elec       q    Type
REMARK                         _______ _______ _______ _____ _____    ______ ____
ROOT
ATOM      1  C   UNL     1       0.804  -1.097  -3.489  0.00  0.00    +0.040 A 
ATOM      2  C   UNL     1       0.071  -1.211  -4.674  0.00  0.00    +0.047 A 
ATOM      3  C   UNL     1       0.715  -1.505  -5.854  0.00  0.00    +0.150 A 
ATOM      4  C   UNL     1       2.095  -1.687  -5.870  0.00  0.00    +0.090 A 
ATOM      5  C   UNL     1       2.829  -1.575  -4.691  0.00  0.00    +0.066 A 
ATOM      6  C   UNL     1       2.191  -1.275  -3.508  0.00  0.00    +0.035 A 
ATOM      7 CL   UNL     1       4.549  -1.804  -4.715  0.00  0.00    -0.081 Cl
ENDROOT
BRANCH   1   9
ATOM      8  N   UNL     1       0.825  -0.667  -1.081  0.00  0.00    -0.309 N 
ATOM      9  C   UNL     1       0.117  -0.782  -2.222  0.00  0.00    +0.244 C 
ATOM     10  O   UNL     1      -1.089  -0.628  -2.207  0.00  0.00    -0.270 OA
ATOM     11  H   UNL     1       1.787  -0.790  -1.093  0.00  0.00    +0.149 HD
BRANCH   8  13
ATOM     12  C   UNL     1      -0.029   1.160   0.302  0.00  0.00    +0.028 C 
ATOM     13  C   UNL     1       0.142  -0.355   0.176  0.00  0.00    +0.073 C 
BRANCH  13  14
ATOM     14  C   UNL     1       0.975  -0.873   1.351  0.00  0.00    +0.003 C 
ATOM     15  C   UNL     1       0.262  -0.547   2.665  0.00  0.00    +0.009 C 
ATOM     16  C   UNL     1       1.145  -2.388   1.226  0.00  0.00    +0.009 C 
ENDBRANCH  13  14
ENDBRANCH   8  13
ENDBRANCH   1   9
BRANCH   3  17
ATOM     17  N   UNL     1      -0.060  -1.626  -7.109  0.00  0.00    +0.058 N 
ATOM     18  O   UNL     1      -1.240  -1.364  -7.118  0.00  0.00    -0.126 OA
ATOM     19  O   UNL     1       0.486  -1.988  -8.125  0.00  0.00    -0.126 OA
ENDBRANCH   3  17
BRANCH   4  20
ATOM     20  N   UNL     1       2.743  -1.984  -7.065  0.00  0.00    -0.280 N 
ATOM     21  H   UNL     1       2.433  -1.590  -7.895  0.00  0.00    +0.166 HD
BRANCH  20  22
ATOM     22  N   UNL     1       3.816  -2.829  -7.068  0.00  0.00    -0.256 NA
ATOM     23  H   UNL     1       3.542  -3.762  -6.799  0.00  0.00    +0.140 HD
ATOM     24  H   UNL     1       4.271  -2.832  -7.969  0.00  0.00    +0.140 HD
ENDBRANCH  20  22
ENDBRANCH   4  20
TORSDOF 6
