REMARK  Name = ZINC02654248
REMARK  11 active torsions:
REMARK  status: ('A' for Active; 'I' for Inactive)
REMARK    1  A    between atoms: C_1  and  C_2
REMARK    2  A    between atoms: C_4  and  C_22
REMARK    3  A    between atoms: C_6  and  C_17
REMARK    4  A    between atoms: N_9  and  C_11
REMARK    5  A    between atoms: C_22  and  O_24
REMARK    6  A    between atoms: O_24  and  C_25
REMARK    7  A    between atoms: C_25  and  C_26
REMARK    8  A    between atoms: C_26  and  C_28
REMARK    9  A    between atoms: C_29  and  N_38
REMARK   10  A    between atoms: N_30  and  C_37
REMARK   11  A    between atoms: N_33  and  C_36
REMARK                            x       y       z     vdW  Elec       q    Type
REMARK                         _______ _______ _______ _____ _____    ______ ____
ROOT
ATOM      1  C   UNL     1      -0.560   1.627   0.125  0.00  0.00    +0.068 C 
ATOM      2  C   UNL     1      -0.514   0.121   0.157  0.00  0.00    +0.070 A 
ATOM      3  C   UNL     1      -0.446  -0.724  -0.970  0.00  0.00    +0.056 A 
ATOM      4  C   UNL     1      -0.403  -0.491  -2.366  0.00  0.00    +0.073 A 
ATOM      5  C   UNL     1      -0.338  -1.593  -3.209  0.00  0.00    +0.044 A 
ATOM      6  C   UNL     1      -0.318  -2.880  -2.653  0.00  0.00    +0.081 A 
ATOM      7  N   UNL     1      -0.360  -3.065  -1.342  0.00  0.00    -0.227 NA
ATOM      8  C   UNL     1      -0.422  -2.050  -0.494  0.00  0.00    +0.165 A 
ATOM      9  N   UNL     1      -0.475  -1.970   0.877  0.00  0.00    -0.214 N 
ATOM     10  N   UNL     1      -0.525  -0.617   1.232  0.00  0.00    -0.169 NA
ENDROOT
BRANCH   9  11
ATOM     11  C   UNL     1      -0.474  -3.053   1.764  0.00  0.00    +0.068 A 
ATOM     12  C   UNL     1      -1.110  -4.238   1.417  0.00  0.00    +0.028 A 
ATOM     13  C   UNL     1      -1.107  -5.304   2.295  0.00  0.00    +0.002 A 
ATOM     14  C   UNL     1      -0.472  -5.193   3.518  0.00  0.00    +0.000 A 
ATOM     15  C   UNL     1       0.162  -4.014   3.867  0.00  0.00    +0.002 A 
ATOM     16  C   UNL     1       0.168  -2.946   2.991  0.00  0.00    +0.028 A 
ENDBRANCH   9  11
BRANCH   6  17
ATOM     17  C   UNL     1      -0.250  -4.052  -3.547  0.00  0.00    +0.038 A 
ATOM     18  C   UNL     1      -0.226  -5.384  -3.225  0.00  0.00    +0.017 A 
ATOM     19  C   UNL     1      -0.160  -6.309  -4.241  0.00  0.00    +0.008 A 
ATOM     20  C   UNL     1      -0.120  -5.877  -5.529  0.00  0.00    +0.046 A 
ATOM     21  S   UNL     1      -0.185  -4.104  -5.331  0.00  0.00    -0.095 S 
ENDBRANCH   6  17
BRANCH   4  22
ATOM     22  C   UNL     1      -0.426   0.883  -2.909  0.00  0.00    +0.340 C 
ATOM     23  O   UNL     1       0.244   1.753  -2.390  0.00  0.00    -0.245 OA
BRANCH  22  24
ATOM     24  O   UNL     1      -1.190   1.171  -3.981  0.00  0.00    -0.453 OA
BRANCH  24  25
ATOM     25  C   UNL     1      -1.165   2.519  -4.453  0.00  0.00    +0.312 C 
BRANCH  25  26
ATOM     26  C   UNL     1      -2.073   2.650  -5.648  0.00  0.00    +0.209 C 
ATOM     27  O   UNL     1      -2.684   1.683  -6.056  0.00  0.00    -0.288 OA
BRANCH  26  28
ATOM     28  C   UNL     1      -2.215   3.897  -6.293  0.00  0.00    +0.123 A 
ATOM     29  C   UNL     1      -3.102   4.059  -7.372  0.00  0.00    +0.116 A 
ATOM     30  N   UNL     1      -3.204   5.286  -7.964  0.00  0.00    -0.284 N 
ATOM     31  C   UNL     1      -2.478   6.330  -7.536  0.00  0.00    +0.333 A 
ATOM     32  O   UNL     1      -2.605   7.401  -8.097  0.00  0.00    -0.246 OA
ATOM     33  N   UNL     1      -1.615   6.235  -6.512  0.00  0.00    -0.263 N 
ATOM     34  C   UNL     1      -1.445   5.069  -5.856  0.00  0.00    +0.269 A 
ATOM     35  O   UNL     1      -0.666   4.987  -4.924  0.00  0.00    -0.267 OA
ATOM     36  C   UNL     1      -0.853   7.416  -6.097  0.00  0.00    +0.157 C 
ATOM     37  C   UNL     1      -4.126   5.465  -9.088  0.00  0.00    +0.155 C 
BRANCH  29  38
ATOM     38  N   UNL     1      -3.846   3.012  -7.819  0.00  0.00    -0.344 N 
ATOM     39  H   UNL     1      -3.689   2.121  -7.468  0.00  0.00    +0.144 HD
ATOM     40  H   UNL     1      -4.533   3.155  -8.488  0.00  0.00    +0.144 HD
ENDBRANCH  29  38
ENDBRANCH  26  28
ENDBRANCH  25  26
ENDBRANCH  24  25
ENDBRANCH  22  24
ENDBRANCH   4  22
TORSDOF 8
