REMARK  Name = ZINC26294165
REMARK  4 active torsions:
REMARK  status: ('A' for Active; 'I' for Inactive)
REMARK    1  A    between atoms: C_6  and  C_7
REMARK    2  A    between atoms: C_7  and  N_8
REMARK    3  A    between atoms: N_11  and  C_12
REMARK    4  A    between atoms: C_17  and  C_20
REMARK                            x       y       z     vdW  Elec       q    Type
REMARK                         _______ _______ _______ _____ _____    ______ ____
ROOT
ATOM      1  N   UNL     1      -1.727  -1.016  -1.368  0.00  0.00    -0.295 N 
ATOM      2  C   UNL     1      -2.868  -1.691  -1.607  0.00  0.00    +0.300 C 
ATOM      3  O   UNL     1      -3.539  -2.099  -0.679  0.00  0.00    -0.253 OA
ATOM      4  N   UNL     1      -3.267  -1.913  -2.875  0.00  0.00    -0.297 N 
ATOM      5  H   UNL     1      -1.192  -0.690  -2.109  0.00  0.00    +0.151 HD
ATOM      6  H   UNL     1      -2.732  -1.588  -3.616  0.00  0.00    +0.151 HD
ENDROOT
BRANCH   4   7
ATOM      7  C   UNL     1      -4.508  -2.648  -3.135  0.00  0.00    +0.075 C 
ATOM      8  C   UNL     1      -4.224  -4.151  -3.116  0.00  0.00    +0.022 C 
ATOM      9  C   UNL     1      -3.195  -4.490  -4.196  0.00  0.00    +0.002 C 
ATOM     10  C   UNL     1      -3.745  -4.093  -5.567  0.00  0.00    +0.012 C 
ATOM     11  C   UNL     1      -4.029  -2.589  -5.587  0.00  0.00    +0.095 C 
ATOM     12  C   UNL     1      -5.058  -2.250  -4.506  0.00  0.00    +0.034 C 
BRANCH  11  13
ATOM     13  C   UNL     1      -4.579  -2.192  -6.958  0.00  0.00    +0.393 C 
ATOM     14  F   UNL     1      -5.764  -2.893  -7.206  0.00  0.00    -0.170 F 
ATOM     15  F   UNL     1      -4.838  -0.817  -6.976  0.00  0.00    -0.170 F 
ATOM     16  F   UNL     1      -3.638  -2.502  -7.946  0.00  0.00    -0.170 F 
ENDBRANCH  11  13
ENDBRANCH   4   7
BRANCH   1  17
ATOM     17  C   UNL     1      -1.294  -0.774   0.010  0.00  0.00    +0.141 C 
BRANCH  17  23
ATOM     18  C   UNL     1      -0.017   1.378   0.010  0.00  0.00    +0.009 A 
ATOM     19  C   UNL     1       1.170   2.088   0.002  0.00  0.00    +0.050 A 
ATOM     20  C   UNL     1       2.380   1.416  -0.013  0.00  0.00    +0.166 A 
ATOM     21  C   UNL     1       2.399   0.023  -0.021  0.00  0.00    +0.167 A 
ATOM     22  C   UNL     1       1.207  -0.682  -0.014  0.00  0.00    +0.054 A 
ATOM     23  C   UNL     1       0.002  -0.004   0.002  0.00  0.00    -0.027 A 
ATOM     24  O   UNL     1       3.698  -0.395  -0.036  0.00  0.00    -0.453 OA
ATOM     25  C   UNL     1       4.466   0.750  -0.450  0.00  0.00    +0.466 C 
ATOM     26  O   UNL     1       3.668   1.870  -0.024  0.00  0.00    -0.453 OA
ENDBRANCH  17  23
ENDBRANCH   1  17
TORSDOF 4
