REMARK  Name = ZINC00647946
REMARK  12 active torsions:
REMARK  status: ('A' for Active; 'I' for Inactive)
REMARK    1  A    between atoms: C_1  and  C_2
REMARK    2  A    between atoms: C_3  and  C_33
REMARK    3  A    between atoms: C_4  and  C_25
REMARK    4  A    between atoms: C_10  and  C_15
REMARK    5  A    between atoms: C_18  and  O_23
REMARK    6  A    between atoms: C_19  and  O_21
REMARK    7  A    between atoms: O_21  and  C_22
REMARK    8  A    between atoms: O_23  and  C_24
REMARK    9  A    between atoms: C_28  and  S_31
REMARK   10  A    between atoms: S_31  and  C_32
REMARK   11  A    between atoms: C_33  and  O_35
REMARK   12  A    between atoms: O_35  and  C_36
REMARK                            x       y       z     vdW  Elec       q    Type
REMARK                         _______ _______ _______ _____ _____    ______ ____
ROOT
ATOM      1  C   UNL     1       6.541  -1.274   3.706  0.00  0.00    +0.061 C 
ATOM      2  C   UNL     1       5.795  -1.327   2.398  0.00  0.00    +0.016 C 
ATOM      3  C   UNL     1       6.434  -1.711   1.280  0.00  0.00    +0.065 C 
ATOM      4  C   UNL     1       5.722  -1.782  -0.039  0.00  0.00    +0.092 C 
ATOM      5  C   UNL     1       4.439  -0.990  -0.004  0.00  0.00    +0.024 C 
ATOM      6  C   UNL     1       3.877  -0.640   1.172  0.00  0.00    +0.016 C 
ATOM      7  N   UNL     1       4.473  -0.983   2.356  0.00  0.00    -0.321 N 
ATOM      8  C   UNL     1       2.585   0.138   1.215  0.00  0.00    +0.059 C 
ATOM      9  C   UNL     1       2.489   1.043  -0.016  0.00  0.00    +0.032 C 
ATOM     10  C   UNL     1       2.572   0.168  -1.271  0.00  0.00    +0.088 C 
ATOM     11  C   UNL     1       3.846  -0.631  -1.227  0.00  0.00    +0.162 C 
ATOM     12  O   UNL     1       4.372  -0.973  -2.268  0.00  0.00    -0.292 OA
ATOM     13  H   UNL     1       3.876  -0.979   3.280  0.00  0.00    +0.152 HD
ENDROOT
BRANCH   9  14
ATOM     14  C   UNL     1       1.176   1.782   0.000  0.00  0.00    -0.040 A 
ATOM     15  C   UNL     1      -0.013   1.076   0.008  0.00  0.00    +0.008 A 
ATOM     16  C   UNL     1      -1.220   1.749   0.017  0.00  0.00    +0.049 A 
ATOM     17  C   UNL     1      -1.240   3.135   0.030  0.00  0.00    +0.161 A 
ATOM     18  C   UNL     1      -0.044   3.845   0.022  0.00  0.00    +0.162 A 
ATOM     19  C   UNL     1       1.163   3.164   0.007  0.00  0.00    +0.053 A 
BRANCH  18  20
ATOM     20  O   UNL     1      -0.059   5.205   0.029  0.00  0.00    -0.491 OA
ATOM     21  C   UNL     1       1.207   5.868   0.020  0.00  0.00    +0.277 C 
ENDBRANCH  18  20
BRANCH  17  22
ATOM     22  O   UNL     1      -2.427   3.799   0.044  0.00  0.00    -0.491 OA
ATOM     23  C   UNL     1      -3.615   3.004   0.052  0.00  0.00    +0.277 C 
ENDBRANCH  17  22
ENDBRANCH   9  14
BRANCH   4  24
ATOM     24  C   UNL     1       5.406  -3.222  -0.354  0.00  0.00    -0.035 A 
ATOM     25  C   UNL     1       4.587  -3.949   0.490  0.00  0.00    +0.005 A 
ATOM     26  C   UNL     1       4.291  -5.267   0.203  0.00  0.00    +0.015 A 
ATOM     27  C   UNL     1       4.827  -5.865  -0.931  0.00  0.00    +0.008 A 
ATOM     28  C   UNL     1       5.654  -5.133  -1.774  0.00  0.00    +0.015 A 
ATOM     29  C   UNL     1       5.941  -3.815  -1.483  0.00  0.00    +0.005 A 
BRANCH  27  30
ATOM     30  S   UNL     1       4.458  -7.549  -1.298  0.00  0.00    -0.129 S 
ATOM     31  C   UNL     1       3.369  -8.066   0.057  0.00  0.00    +0.090 C 
ENDBRANCH  27  30
ENDBRANCH   4  24
BRANCH   3  32
ATOM     32  C   UNL     1       7.805  -2.055   1.348  0.00  0.00    +0.338 C 
ATOM     33  O   UNL     1       8.393  -2.002   2.411  0.00  0.00    -0.245 OA
BRANCH  32  34
ATOM     34  O   UNL     1       8.459  -2.443   0.233  0.00  0.00    -0.458 OA
BRANCH  34  35
ATOM     35  C   UNL     1       9.841  -2.776   0.375  0.00  0.00    +0.177 C 
ATOM     36  C   UNL     1      10.716  -1.538   0.090  0.00  0.00    +0.044 C 
ATOM     37  C   UNL     1      11.952  -2.107  -0.650  0.00  0.00    +0.004 C 
ATOM     38  C   UNL     1      11.336  -3.213  -1.543  0.00  0.00    +0.004 C 
ATOM     39  C   UNL     1      10.236  -3.841  -0.663  0.00  0.00    +0.044 C 
ENDBRANCH  34  35
ENDBRANCH  32  34
ENDBRANCH   3  32
TORSDOF 8
