REMARK  Name = ZINC04809732
REMARK  7 active torsions:
REMARK  status: ('A' for Active; 'I' for Inactive)
REMARK    1  A    between atoms: C_1  and  C_2
REMARK    2  A    between atoms: C_4  and  C_10
REMARK    3  A    between atoms: C_5  and  O_9
REMARK    4  A    between atoms: C_7  and  C_8
REMARK    5  A    between atoms: N_18  and  C_27
REMARK    6  A    between atoms: C_19  and  C_21
REMARK    7  A    between atoms: C_27  and  C_28
REMARK                            x       y       z     vdW  Elec       q    Type
REMARK                         _______ _______ _______ _____ _____    ______ ____
ROOT
ATOM      1  C   UNL     1      -0.263  -2.972  -2.930  0.00  0.00    +0.102 A 
ATOM      2  C   UNL     1       0.018  -4.341  -2.869  0.00  0.00    +0.035 A 
ATOM      3  C   UNL     1       0.062  -4.775  -4.179  0.00  0.00    +0.126 A 
ATOM      4  N   UNL     1      -0.187  -3.676  -4.952  0.00  0.00    -0.272 N 
ATOM      5  H   UNL     1      -0.221  -3.673  -5.921  0.00  0.00    +0.189 HD
ATOM      6  N   UNL     1      -0.376  -2.649  -4.203  0.00  0.00    -0.173 NA
ATOM      7  C   UNL     1       0.354  -6.213  -4.185  0.00  0.00    +0.266 C 
ATOM      8  O   UNL     1       0.460  -6.896  -5.186  0.00  0.00    -0.268 OA
ATOM      9  N   UNL     1       0.489  -6.669  -2.927  0.00  0.00    -0.278 N 
ATOM     10  C   UNL     1       0.291  -5.542  -2.005  0.00  0.00    +0.142 C 
ENDROOT
BRANCH   1  14
ATOM     11  C   UNL     1       1.372  -1.257   1.464  0.00  0.00    +0.044 C 
ATOM     12  C   UNL     1       0.370  -1.225   0.339  0.00  0.00    -0.047 A 
ATOM     13  C   UNL     1       0.513  -2.082  -0.734  0.00  0.00    +0.017 A 
ATOM     14  C   UNL     1      -0.412  -2.053  -1.774  0.00  0.00    +0.044 A 
ATOM     15  C   UNL     1      -1.482  -1.155  -1.725  0.00  0.00    +0.126 A 
ATOM     16  C   UNL     1      -1.614  -0.300  -0.642  0.00  0.00    +0.049 A 
ATOM     17  C   UNL     1      -0.693  -0.341   0.388  0.00  0.00    -0.044 A 
ATOM     18  C   UNL     1      -0.844   0.586   1.567  0.00  0.00    +0.044 C 
BRANCH  15  19
ATOM     19  O   UNL     1      -2.389  -1.119  -2.735  0.00  0.00    -0.506 OA
ATOM     20  H   UNL     1      -3.179  -1.655  -2.574  0.00  0.00    +0.292 HD
ENDBRANCH  15  19
ENDBRANCH   1  14
BRANCH  10  21
ATOM     21  C   UNL     1      -0.886  -5.811  -1.103  0.00  0.00    -0.022 A 
ATOM     22  C   UNL     1      -2.046  -6.353  -1.624  0.00  0.00    +0.006 A 
ATOM     23  C   UNL     1      -3.126  -6.600  -0.796  0.00  0.00    +0.000 A 
ATOM     24  C   UNL     1      -3.045  -6.305   0.552  0.00  0.00    +0.000 A 
ATOM     25  C   UNL     1      -1.885  -5.764   1.072  0.00  0.00    +0.000 A 
ATOM     26  C   UNL     1      -0.804  -5.521   0.246  0.00  0.00    +0.006 A 
ENDBRANCH  10  21
BRANCH   9  27
ATOM     27  C   UNL     1       0.782  -8.051  -2.541  0.00  0.00    +0.183 C 
BRANCH  27  28
ATOM     28  C   UNL     1       2.274  -8.243  -2.455  0.00  0.00    +0.122 A 
ATOM     29  C   UNL     1       3.028  -8.060  -1.357  0.00  0.00    +0.046 A 
ATOM     30  C   UNL     1       4.363  -8.350  -1.723  0.00  0.00    +0.041 A 
ATOM     31  C   UNL     1       4.344  -8.693  -3.024  0.00  0.00    +0.195 A 
ATOM     32  O   UNL     1       3.075  -8.632  -3.460  0.00  0.00    -0.466 OA
ENDBRANCH  27  28
ENDBRANCH   9  27
TORSDOF 5
