REMARK  Name = ZINC00875665
REMARK  7 active torsions:
REMARK  status: ('A' for Active; 'I' for Inactive)
REMARK    1  A    between atoms: C_1  and  C_2
REMARK    2  A    between atoms: C_4  and  O_29
REMARK    3  A    between atoms: C_8  and  C_21
REMARK    4  A    between atoms: C_14  and  C_19
REMARK    5  A    between atoms: C_14  and  C_20
REMARK    6  A    between atoms: C_24  and  O_27
REMARK    7  A    between atoms: O_27  and  C_28
REMARK                            x       y       z     vdW  Elec       q    Type
REMARK                         _______ _______ _______ _____ _____    ______ ____
ROOT
ATOM      1  C   UNL     1      -1.029   0.424   2.464  0.00  0.00    +0.044 C 
ATOM      2  C   UNL     1      -2.494   0.774   2.512  0.00  0.00    -0.040 A 
ATOM      3  C   UNL     1      -3.158   0.781   3.722  0.00  0.00    +0.049 A 
ATOM      4  C   UNL     1      -4.507   1.102   3.769  0.00  0.00    +0.121 A 
ATOM      5  C   UNL     1      -5.181   1.413   2.602  0.00  0.00    +0.091 A 
ATOM      6  C   UNL     1      -4.511   1.408   1.384  0.00  0.00    +0.131 A 
ATOM      7  C   UNL     1      -3.165   1.086   1.341  0.00  0.00    +0.005 A 
ATOM      8  C   UNL     1      -2.402   1.062   0.041  0.00  0.00    +0.058 C 
ATOM      9  C   UNL     1      -3.180   1.835  -1.028  0.00  0.00    +0.081 C 
ATOM     10  C   UNL     1      -4.638   1.362  -0.997  0.00  0.00    +0.182 C 
ATOM     11  O   UNL     1      -5.207   1.724   0.261  0.00  0.00    -0.468 OA
ATOM     12  C   UNL     1      -4.684  -0.159  -1.165  0.00  0.00    +0.094 C 
ATOM     13  C   UNL     1      -6.150  -0.597  -1.244  0.00  0.00    +0.036 C 
ATOM     14  N   UNL     1      -6.814   0.141  -2.320  0.00  0.00    -0.294 N 
ATOM     15  C   UNL     1      -6.415   1.371  -2.675  0.00  0.00    +0.303 C 
ATOM     16  O   UNL     1      -7.009   1.944  -3.568  0.00  0.00    -0.253 OA
ATOM     17  N   UNL     1      -5.384   1.994  -2.083  0.00  0.00    -0.262 N 
ATOM     18  C   UNL     1      -6.221  -2.097  -1.532  0.00  0.00    +0.031 C 
ATOM     19  C   UNL     1      -6.846  -0.297   0.086  0.00  0.00    +0.031 C 
ATOM     20  H   UNL     1      -7.559  -0.270  -2.787  0.00  0.00    +0.151 HD
ATOM     21  H   UNL     1      -5.130   2.881  -2.382  0.00  0.00    +0.154 HD
ENDROOT
BRANCH   8  22
ATOM     22  C   UNL     1      -1.052   1.702   0.240  0.00  0.00    -0.039 A 
ATOM     23  C   UNL     1      -0.962   2.960   0.806  0.00  0.00    +0.008 A 
ATOM     24  C   UNL     1       0.275   3.546   0.995  0.00  0.00    +0.046 A 
ATOM     25  C   UNL     1       1.426   2.874   0.610  0.00  0.00    +0.120 A 
ATOM     26  C   UNL     1       1.332   1.615   0.037  0.00  0.00    +0.046 A 
ATOM     27  C   UNL     1       0.093   1.032  -0.150  0.00  0.00    +0.008 A 
BRANCH  25  28
ATOM     28  O   UNL     1       2.643   3.450   0.794  0.00  0.00    -0.495 OA
ATOM     29  C   UNL     1       3.785   2.700   0.374  0.00  0.00    +0.277 C 
ENDBRANCH  25  28
ENDBRANCH   8  22
BRANCH   4  30
ATOM     30  O   UNL     1      -5.165   1.109   4.958  0.00  0.00    -0.507 OA
ATOM     31  H   UNL     1      -5.149   1.963   5.412  0.00  0.00    +0.292 HD
ENDBRANCH   4  30
TORSDOF 3
