REMARK  Name = ZINC36028156
REMARK  11 active torsions:
REMARK  status: ('A' for Active; 'I' for Inactive)
REMARK    1  A    between atoms: C_1  and  C_2
REMARK    2  A    between atoms: C_2  and  C_3
REMARK    3  A    between atoms: C_3  and  C_5
REMARK    4  A    between atoms: C_3  and  C_6
REMARK    5  A    between atoms: N_10  and  C_29
REMARK    6  A    between atoms: N_15  and  S_18
REMARK    7  A    between atoms: S_18  and  C_21
REMARK    8  A    between atoms: C_29  and  C_30
REMARK    9  A    between atoms: C_30  and  C_31
REMARK   10  A    between atoms: C_31  and  O_32
REMARK   11  A    between atoms: O_32  and  C_33
REMARK                            x       y       z     vdW  Elec       q    Type
REMARK                         _______ _______ _______ _____ _____    ______ ____
ROOT
ATOM      1  C   UNL     1       1.060  -2.336   1.710  0.00  0.00    +0.022 C 
ATOM      2  C   UNL     1       1.746  -2.571   0.381  0.00  0.00    +0.201 C 
ATOM      3  O   UNL     1       1.496  -1.996  -0.657  0.00  0.00    -0.277 OA
ATOM      4  N   UNL     1       2.682  -3.528   0.546  0.00  0.00    -0.314 N 
ATOM      5  C   UNL     1       2.678  -3.981   1.940  0.00  0.00    +0.006 C 
ATOM      6  N   UNL     1       1.963  -2.945   2.717  0.00  0.00    +0.401 N 
ATOM      7  C   UNL     1       1.941  -5.313   2.060  0.00  0.00    +0.023 C 
ATOM      8  C   UNL     1       2.665  -6.372   1.221  0.00  0.00    +0.109 C 
ATOM      9  N   UNL     1       4.076  -6.414   1.628  0.00  0.00    -0.177 NA
ATOM     10  C   UNL     1       4.852  -5.166   1.619  0.00  0.00    +0.109 C 
ATOM     11  C   UNL     1       4.110  -4.118   2.455  0.00  0.00    +0.023 C 
ATOM     12  H   UNL     1       2.610  -2.259   3.076  0.00  0.00    -0.082 HD
ATOM     13  H   UNL     1       1.431  -3.362   3.466  0.00  0.00    -0.082 HD
ENDROOT
BRANCH   9  14
ATOM     14  S   UNL     1       4.778  -7.841   2.090  0.00  0.00    +0.062 S 
ATOM     15  O   UNL     1       5.880  -7.501   2.920  0.00  0.00    -0.153 OA
ATOM     16  O   UNL     1       3.726  -8.688   2.529  0.00  0.00    -0.153 OA
BRANCH  14  17
ATOM     17  C   UNL     1       5.451  -8.583   0.640  0.00  0.00    +0.125 A 
ATOM     18  C   UNL     1       6.818  -8.752   0.521  0.00  0.00    +0.030 A 
ATOM     19  C   UNL     1       7.346  -9.334  -0.616  0.00  0.00    +0.003 A 
ATOM     20  C   UNL     1       6.508  -9.747  -1.636  0.00  0.00    +0.021 A 
ATOM     21  C   UNL     1       5.141  -9.578  -1.518  0.00  0.00    +0.061 A 
ATOM     22  C   UNL     1       4.611  -9.001  -0.376  0.00  0.00    +0.086 A 
ATOM     23 CL   UNL     1       2.894  -8.795  -0.224  0.00  0.00    -0.080 Cl
ATOM     24 CL   UNL     1       4.088 -10.097  -2.798  0.00  0.00    -0.082 Cl
ENDBRANCH  14  17
ENDBRANCH   9  14
BRANCH   1  25
ATOM     25  C   UNL     1       0.905  -0.836   1.971  0.00  0.00    -0.020 C 
ATOM     26  C   UNL     1       0.278  -0.621   3.350  0.00  0.00    +0.006 C 
BRANCH  25  28
ATOM     27  C   UNL     1      -0.053   1.295   1.086  0.00  0.00    +0.004 C 
ATOM     28  C   UNL     1       0.002  -0.222   0.899  0.00  0.00    -0.001 C 
ENDBRANCH  25  28
ENDBRANCH   1  25
BRANCH   4  29
ATOM     29  C   UNL     1       3.566  -4.037  -0.506  0.00  0.00    +0.108 C 
BRANCH  29  30
ATOM     30  C   UNL     1       4.830  -3.177  -0.570  0.00  0.00    +0.047 C 
BRANCH  30  31
ATOM     31  C   UNL     1       5.812  -3.788  -1.572  0.00  0.00    +0.161 C 
BRANCH  31  32
ATOM     32  O   UNL     1       6.992  -2.985  -1.631  0.00  0.00    -0.383 OA
ATOM     33  C   UNL     1       7.980  -3.470  -2.543  0.00  0.00    +0.193 C 
ENDBRANCH  31  32
ENDBRANCH  30  31
ENDBRANCH  29  30
ENDBRANCH   4  29
TORSDOF 8
