REMARK  Name = ZINC13065577
REMARK  7 active torsions:
REMARK  status: ('A' for Active; 'I' for Inactive)
REMARK    1  A    between atoms: C_6  and  C_7
REMARK    2  A    between atoms: C_7  and  N_8
REMARK    3  A    between atoms: C_9  and  C_13
REMARK    4  A    between atoms: C_13  and  N_63
REMARK    5  A    between atoms: C_14  and  C_15
REMARK    6  A    between atoms: C_14  and  N_63
REMARK    7  A    between atoms: C_30  and  N_63
REMARK                            x       y       z     vdW  Elec       q    Type
REMARK                         _______ _______ _______ _____ _____    ______ ____
ROOT
ATOM      1  N   UNL     1      -2.956   0.935  -1.328  0.00  0.00    +0.389 N 
ATOM      2  H   UNL     1      -2.884   1.906  -1.654  0.00  0.00    -0.080 HD
ENDROOT
BRANCH   1   3
ATOM      3  C   UNL     1      -1.868   0.142  -1.938  0.00  0.00    -0.068 C 
ATOM      4  C   UNL     1      -1.645   0.637  -3.369  0.00  0.00    -0.015 C 
ATOM      5  C   UNL     1      -0.510  -0.161  -4.013  0.00  0.00    -0.002 C 
ATOM      6  C   UNL     1      -0.880  -1.645  -4.039  0.00  0.00    -0.000 C 
ATOM      7  C   UNL     1      -1.103  -2.140  -2.609  0.00  0.00    -0.002 C 
ATOM      8  C   UNL     1      -2.238  -1.343  -1.964  0.00  0.00    -0.015 C 
ENDBRANCH   1   3
BRANCH   1   9
ATOM      9  C   UNL     1      -4.268   0.388  -1.734  0.00  0.00    +0.001 C 
BRANCH   9  11
ATOM     10  N   UNL     1      -4.845   1.712  -3.836  0.00  0.00    -0.227 N 
ATOM     11  C   UNL     1      -4.440   0.587  -3.218  0.00  0.00    +0.135 A 
ATOM     12  N   UNL     1      -4.231  -0.303  -4.156  0.00  0.00    -0.115 NA
ATOM     13  N   UNL     1      -4.488   0.247  -5.292  0.00  0.00    -0.023 NA
ATOM     14  N   UNL     1      -4.856   1.466  -5.103  0.00  0.00    -0.044 NA
BRANCH  10  15
ATOM     15  C   UNL     1      -5.202   2.979  -3.192  0.00  0.00    +0.182 C 
BRANCH  15  21
ATOM     16  C   UNL     1      -3.182   3.765  -1.940  0.00  0.00    +0.008 A 
ATOM     17  C   UNL     1      -2.054   4.555  -1.830  0.00  0.00    +0.038 A 
ATOM     18  C   UNL     1      -1.722   5.433  -2.848  0.00  0.00    +0.123 A 
ATOM     19  C   UNL     1      -2.518   5.515  -3.977  0.00  0.00    +0.038 A 
ATOM     20  C   UNL     1      -3.644   4.721  -4.088  0.00  0.00    +0.008 A 
ATOM     21  C   UNL     1      -3.974   3.844  -3.071  0.00  0.00    -0.026 A 
ATOM     22  F   UNL     1      -0.621   6.209  -2.739  0.00  0.00    -0.205 F 
ENDBRANCH  15  21
ENDBRANCH  10  15
ENDBRANCH   9  11
ENDBRANCH   1   9
BRANCH   1  23
ATOM     23  C   UNL     1      -2.833   0.912   0.145  0.00  0.00    -0.037 C 
BRANCH  23  24
ATOM     24  C   UNL     1      -1.649   1.754   0.545  0.00  0.00    +0.001 A 
ATOM     25  C   UNL     1      -1.822   3.068   0.839  0.00  0.00    +0.017 A 
ATOM     26  C   UNL     1      -0.653   3.860   1.219  0.00  0.00    +0.002 A 
ATOM     27  C   UNL     1      -0.771   5.221   1.526  0.00  0.00    +0.059 A 
ATOM     28  C   UNL     1       0.348   5.940   1.883  0.00  0.00    +0.167 A 
ATOM     29  C   UNL     1       1.601   5.315   1.939  0.00  0.00    +0.168 A 
ATOM     30  C   UNL     1       1.727   3.972   1.636  0.00  0.00    +0.075 A 
ATOM     31  C   UNL     1       0.608   3.233   1.273  0.00  0.00    +0.053 A 
ATOM     32  N   UNL     1       0.715   1.891   0.967  0.00  0.00    -0.322 N 
ATOM     33  H   UNL     1       1.583   1.461   1.004  0.00  0.00    +0.169 HD
ATOM     34  C   UNL     1      -0.367   1.173   0.618  0.00  0.00    +0.251 A 
ATOM     35  O   UNL     1      -0.234  -0.009   0.353  0.00  0.00    -0.268 OA
ATOM     36  O   UNL     1       2.529   6.241   2.316  0.00  0.00    -0.453 OA
ATOM     37  C   UNL     1       1.780   7.330   2.886  0.00  0.00    +0.466 C 
ATOM     38  O   UNL     1       0.503   7.254   2.225  0.00  0.00    -0.453 OA
ENDBRANCH  23  24
ENDBRANCH   1  23
TORSDOF 7
