REMARK  Name = ZINC45870838
REMARK  13 active torsions:
REMARK  status: ('A' for Active; 'I' for Inactive)
REMARK    1  A    between atoms: C_1  and  C_2
REMARK    2  A    between atoms: C_2  and  C_3
REMARK    3  A    between atoms: C_6  and  C_9
REMARK    4  A    between atoms: C_9  and  C_11
REMARK    5  A    between atoms: C_9  and  N_32
REMARK    6  A    between atoms: C_11  and  N_12
REMARK    7  A    between atoms: C_13  and  C_15
REMARK    8  A    between atoms: C_15  and  C_17
REMARK    9  A    between atoms: C_15  and  N_20
REMARK   10  A    between atoms: C_17  and  C_18
REMARK   11  A    between atoms: C_17  and  C_19
REMARK   12  A    between atoms: N_32  and  C_33
REMARK   13  A    between atoms: N_32  and  C_34
REMARK                            x       y       z     vdW  Elec       q    Type
REMARK                         _______ _______ _______ _____ _____    ______ ____
ROOT
ATOM      1  N   UNL     1      -7.214  -3.837  -0.486  0.00  0.00    -0.315 N 
ATOM      2  C   UNL     1      -7.456  -5.160  -0.406  0.00  0.00    +0.234 C 
ATOM      3  O   UNL     1      -6.535  -5.948  -0.437  0.00  0.00    -0.274 OA
ATOM      4  H   UNL     1      -7.953  -3.210  -0.535  0.00  0.00    +0.149 HD
ENDROOT
BRANCH   1   5
ATOM      5  C   UNL     1      -5.835  -3.344  -0.499  0.00  0.00    +0.093 C 
BRANCH   5   6
ATOM      6  C   UNL     1      -5.840  -1.814  -0.492  0.00  0.00    -0.021 C 
BRANCH   6  10
ATOM      7  C   UNL     1      -7.393  -0.415   3.233  0.00  0.00    -0.048 A 
ATOM      8  C   UNL     1      -8.204  -0.445   2.114  0.00  0.00    +0.004 A 
ATOM      9  C   UNL     1      -7.701  -0.898   0.908  0.00  0.00    +0.002 A 
ATOM     10  C   UNL     1      -6.387  -1.319   0.822  0.00  0.00    -0.059 A 
ATOM     11  C   UNL     1      -5.576  -1.288   1.941  0.00  0.00    +0.002 A 
ATOM     12  C   UNL     1      -6.078  -0.832   3.145  0.00  0.00    +0.004 A 
BRANCH   7  14
ATOM     13  C   UNL     1      -7.723   1.589   4.656  0.00  0.00    +0.009 C 
ATOM     14  C   UNL     1      -7.941   0.079   4.547  0.00  0.00    +0.032 C 
ENDBRANCH   7  14
ENDBRANCH   6  10
BRANCH   6  15
ATOM     15  N   UNL     1      -4.468  -1.319  -0.668  0.00  0.00    +0.382 N 
ATOM     16  C   UNL     1      -3.960  -1.738  -1.981  0.00  0.00    -0.096 C 
ATOM     17  C   UNL     1      -4.462   0.148  -0.587  0.00  0.00    -0.096 C 
ATOM     18  H   UNL     1      -3.878  -1.698   0.058  0.00  0.00    -0.082 HD
ENDBRANCH   6  15
ENDBRANCH   5   6
ENDBRANCH   1   5
BRANCH   2  19
ATOM     19  C   UNL     1      -8.872  -5.661  -0.279  0.00  0.00    +0.160 C 
BRANCH  19  20
ATOM     20  N   UNL     1      -8.946  -7.043  -0.758  0.00  0.00    -0.316 N 
ATOM     21  C   UNL     1     -10.139  -7.547  -1.226  0.00  0.00    +0.150 C 
ATOM     22  N   UNL     1     -11.199  -6.804  -1.252  0.00  0.00    -0.113 NA
ATOM     23  S   UNL     1     -12.418  -7.765  -1.877  0.00  0.00    +0.101 S 
ATOM     24  O   UNL     1     -12.771  -7.243  -3.151  0.00  0.00    -0.146 OA
ATOM     25  O   UNL     1     -13.359  -8.002  -0.839  0.00  0.00    -0.146 OA
ATOM     26  C   UNL     1     -11.515  -9.267  -2.140  0.00  0.00    +0.123 A 
ATOM     27  C   UNL     1     -10.223  -8.934  -1.709  0.00  0.00    +0.043 A 
ATOM     28  C   UNL     1      -9.238  -9.931  -1.792  0.00  0.00    +0.013 A 
ATOM     29  C   UNL     1      -9.551 -11.177  -2.286  0.00  0.00    +0.001 A 
ATOM     30  C   UNL     1     -10.834 -11.475  -2.709  0.00  0.00    +0.002 A 
ATOM     31  C   UNL     1     -11.823 -10.504  -2.625  0.00  0.00    +0.030 A 
ATOM     32  H   UNL     1      -8.154  -7.604  -0.745  0.00  0.00    +0.148 HD
ENDBRANCH  19  20
BRANCH  19  33
ATOM     33  C   UNL     1      -9.302  -5.606   1.188  0.00  0.00    +0.012 C 
ATOM     34  C   UNL     1      -9.338  -4.149   1.655  0.00  0.00    +0.009 C 
ATOM     35  C   UNL     1     -10.695  -6.222   1.335  0.00  0.00    +0.009 C 
ENDBRANCH  19  33
ENDBRANCH   2  19
TORSDOF 8
