REMARK  Name = ZINC52565307
REMARK  4 active torsions:
REMARK  status: ('A' for Active; 'I' for Inactive)
REMARK    1  A    between atoms: C_4  and  C_10
REMARK    2  A    between atoms: C_15  and  N_17
REMARK    3  A    between atoms: N_17  and  C_18
REMARK    4  A    between atoms: C_18  and  C_19
REMARK                            x       y       z     vdW  Elec       q    Type
REMARK                         _______ _______ _______ _____ _____    ______ ____
ROOT
ATOM      1  C   UNL     1       4.185   3.104  -0.022  0.00  0.00    +0.034 C 
ATOM      2  C   UNL     1       5.542   3.334  -0.033  0.00  0.00    +0.098 C 
ATOM      3  C   UNL     1       6.238   4.645  -0.027  0.00  0.00    +0.284 C 
ATOM      4  O   UNL     1       5.720   5.749  -0.009  0.00  0.00    -0.267 OA
ATOM      5  N   UNL     1       7.549   4.372  -0.043  0.00  0.00    -0.144 NA
ATOM      6  C   UNL     1       7.744   3.070  -0.059  0.00  0.00    +0.196 C 
ATOM      7  N   UNL     1       6.559   2.392  -0.048  0.00  0.00    -0.284 N 
ATOM      8  H   UNL     1       6.449   1.429  -0.051  0.00  0.00    +0.155 HD
ENDROOT
BRANCH   1  12
ATOM      9  C   UNL     1      -0.017   1.393   0.010  0.00  0.00    +0.020 A 
ATOM     10  C   UNL     1       1.146   2.102   0.002  0.00  0.00    +0.013 A 
ATOM     11  C   UNL     1       2.366   1.387  -0.013  0.00  0.00    +0.022 A 
ATOM     12  C   UNL     1       3.697   1.790  -0.024  0.00  0.00    -0.016 C 
ATOM     13  C   UNL     1       4.507   0.513  -0.038  0.00  0.00    +0.150 C 
ATOM     14  N   UNL     1       3.535  -0.584  -0.035  0.00  0.00    -0.365 N 
ATOM     15  C   UNL     1       2.319  -0.088  -0.021  0.00  0.00    +0.135 A 
ATOM     16  N   UNL     1       1.111  -0.695  -0.013  0.00  0.00    -0.238 NA
ATOM     17  C   UNL     1       0.002  -0.004   0.002  0.00  0.00    +0.113 A 
ATOM     18  H   UNL     1       3.755  -1.529  -0.042  0.00  0.00    +0.161 HD
ENDBRANCH   1  12
BRANCH   6  19
ATOM     19  N   UNL     1       8.973   2.475  -0.078  0.00  0.00    -0.217 NA
BRANCH  19  20
ATOM     20  C   UNL     1      10.185   3.298  -0.082  0.00  0.00    +0.165 C 
BRANCH  20  21
ATOM     21  C   UNL     1      11.398   2.404  -0.105  0.00  0.00    -0.028 A 
ATOM     22  C   UNL     1      11.964   1.977   1.082  0.00  0.00    +0.006 A 
ATOM     23  C   UNL     1      13.077   1.157   1.062  0.00  0.00    +0.020 A 
ATOM     24  C   UNL     1      13.624   0.764  -0.146  0.00  0.00    +0.041 A 
ATOM     25  C   UNL     1      13.058   1.192  -1.333  0.00  0.00    +0.020 A 
ATOM     26  C   UNL     1      11.942   2.007  -1.312  0.00  0.00    +0.006 A 
ATOM     27 CL   UNL     1      15.022  -0.265  -0.172  0.00  0.00    -0.084 Cl
ENDBRANCH  20  21
ENDBRANCH  19  20
ENDBRANCH   6  19
TORSDOF 4
