REMARK  Name = ZINC08927193
REMARK  19 active torsions:
REMARK  status: ('A' for Active; 'I' for Inactive)
REMARK    1  A    between atoms: C_1  and  C_2
REMARK    2  A    between atoms: C_6  and  C_43
REMARK    3  A    between atoms: C_8  and  O_11
REMARK    4  A    between atoms: O_11  and  P_12
REMARK    5  A    between atoms: P_12  and  C_14
REMARK    6  A    between atoms: P_12  and  O_29
REMARK    7  A    between atoms: C_14  and  C_16
REMARK    8  A    between atoms: C_14  and  C_20
REMARK    9  A    between atoms: C_16  and  N_17
REMARK   10  A    between atoms: C_23  and  N_26
REMARK   11  A    between atoms: N_26  and  C_27
REMARK   12  A    between atoms: N_26  and  C_28
REMARK   13  A    between atoms: O_29  and  C_30
REMARK   14  A    between atoms: C_33  and  C_42
REMARK   15  A    between atoms: C_37  and  C_39
REMARK   16  A    between atoms: C_39  and  C_40
REMARK   17  A    between atoms: C_39  and  C_41
REMARK   18  A    between atoms: C_43  and  C_44
REMARK   19  A    between atoms: C_43  and  C_45
REMARK                            x       y       z     vdW  Elec       q    Type
REMARK                         _______ _______ _______ _____ _____    ______ ____
ROOT
ATOM      1  P   UNL     1       1.367   2.487   5.386  0.00  0.00    +0.343 P 
ATOM      2  O   UNL     1       2.567   3.294   5.070  0.00  0.00    -0.258 OA
ENDROOT
BRANCH   1   3
ATOM      3  O   UNL     1       1.170   1.355   4.258  0.00  0.00    -0.304 OA
BRANCH   3   9
ATOM      4  C   UNL     1      -0.553  -0.436   3.984  0.00  0.00    +0.007 C 
ATOM      5  C   UNL     1      -0.543  -0.130   2.485  0.00  0.00    -0.012 C 
ATOM      6  C   UNL     1       0.504  -1.004   1.793  0.00  0.00    +0.004 C 
ATOM      7  C   UNL     1       1.885  -0.709   2.383  0.00  0.00    +0.006 C 
ATOM      8  C   UNL     1       2.227   0.767   2.166  0.00  0.00    +0.021 C 
ATOM      9  C   UNL     1       1.179   1.641   2.858  0.00  0.00    +0.132 C 
ATOM     10  C   UNL     1      -0.201   1.345   2.268  0.00  0.00    +0.035 C 
BRANCH   8  11
ATOM     11  C   UNL     1       3.608   1.062   2.756  0.00  0.00    -0.012 C 
ATOM     12  C   UNL     1       4.641   0.124   2.129  0.00  0.00    +0.007 C 
ATOM     13  C   UNL     1       3.989   2.514   2.458  0.00  0.00    +0.007 C 
ENDBRANCH   8  11
ENDBRANCH   3   9
ENDBRANCH   1   3
BRANCH   1  14
ATOM     14  C   UNL     1      -0.100   3.569   5.423  0.00  0.00    +0.159 C 
BRANCH  14  15
ATOM     15  C   UNL     1      -0.195   4.330   4.126  0.00  0.00    -0.031 A 
ATOM     16  C   UNL     1       0.877   5.087   3.690  0.00  0.00    +0.006 A 
ATOM     17  C   UNL     1       0.793   5.787   2.502  0.00  0.00    +0.023 A 
ATOM     18  C   UNL     1      -0.371   5.729   1.745  0.00  0.00    +0.029 A 
ATOM     19  C   UNL     1      -1.446   4.968   2.186  0.00  0.00    +0.023 A 
ATOM     20  C   UNL     1      -1.353   4.267   3.372  0.00  0.00    +0.006 A 
BRANCH  18  21
ATOM     21  N   UNL     1      -0.459   6.436   0.543  0.00  0.00    -0.336 N 
ATOM     22  C   UNL     1       0.714   7.140   0.019  0.00  0.00    +0.129 C 
ATOM     23  C   UNL     1      -1.725   6.472  -0.193  0.00  0.00    +0.129 C 
ENDBRANCH  18  21
ENDBRANCH  14  15
BRANCH  14  24
ATOM     24  C   UNL     1       0.023   4.555   6.586  0.00  0.00    +0.231 C 
BRANCH  24  25
ATOM     25  N   UNL     1      -0.377   3.895   7.831  0.00  0.00    +0.024 N 
ATOM     26  O   UNL     1      -0.013   2.764   8.059  0.00  0.00    -0.132 OA
ATOM     27  O   UNL     1      -1.070   4.480   8.630  0.00  0.00    -0.132 OA
ENDBRANCH  24  25
ENDBRANCH  14  24
ENDBRANCH   1  14
BRANCH   1  28
ATOM     28  O   UNL     1       1.554   1.786   6.823  0.00  0.00    -0.304 OA
BRANCH  28  29
ATOM     29  C   UNL     1       2.543   0.788   7.079  0.00  0.00    +0.132 C 
ATOM     30  C   UNL     1       1.864  -0.482   7.597  0.00  0.00    +0.035 C 
ATOM     31  C   UNL     1       2.924  -1.551   7.872  0.00  0.00    -0.012 C 
ATOM     32  C   UNL     1       3.909  -1.035   8.922  0.00  0.00    +0.004 C 
ATOM     33  C   UNL     1       4.588   0.234   8.404  0.00  0.00    +0.006 C 
ATOM     34  C   UNL     1       3.529   1.304   8.130  0.00  0.00    +0.021 C 
ATOM     35  C   UNL     1       3.676  -1.867   6.578  0.00  0.00    +0.007 C 
BRANCH  34  36
ATOM     36  C   UNL     1       4.208   2.573   7.612  0.00  0.00    -0.012 C 
ATOM     37  C   UNL     1       5.079   3.173   8.717  0.00  0.00    +0.007 C 
ATOM     38  C   UNL     1       5.082   2.228   6.404  0.00  0.00    +0.007 C 
ENDBRANCH  34  36
ENDBRANCH  28  29
ENDBRANCH   1  28
TORSDOF 11
