REMARK  Name = ZINC00669784
REMARK  8 active torsions:
REMARK  status: ('A' for Active; 'I' for Inactive)
REMARK    1  A    between atoms: C_1  and  C_2
REMARK    2  A    between atoms: C_2  and  C_19
REMARK    3  A    between atoms: C_4  and  N_11
REMARK    4  A    between atoms: C_7  and  C_9
REMARK    5  A    between atoms: C_7  and  C_10
REMARK    6  A    between atoms: C_12  and  C_14
REMARK    7  A    between atoms: C_19  and  N_20
REMARK    8  A    between atoms: C_21  and  C_23
REMARK                            x       y       z     vdW  Elec       q    Type
REMARK                         _______ _______ _______ _____ _____    ______ ____
ROOT
ATOM      1  C   UNL     1      -0.019   1.527   0.010  0.00  0.00    +0.013 C 
ATOM      2  C   UNL     1       0.002  -0.004   0.002  0.00  0.00    -0.014 C 
ATOM      3  C   UNL     1      -1.418  -0.544  -0.123  0.00  0.00    +0.030 C 
ATOM      4  C   UNL     1      -2.191  -0.343   1.179  0.00  0.00    +0.074 C 
ATOM      5  C   UNL     1      -1.490  -1.119   2.293  0.00  0.00    +0.028 C 
ATOM      6  C   UNL     1      -0.073  -0.599   2.505  0.00  0.00    -0.033 C 
ATOM      7  C   UNL     1       0.729  -0.548   1.218  0.00  0.00    +0.014 C 
ATOM      8  C   UNL     1       0.641  -1.570   3.472  0.00  0.00    +0.011 C 
ATOM      9  C   UNL     1      -0.114   0.773   3.185  0.00  0.00    +0.011 C 
ENDROOT
BRANCH   4  10
ATOM     10  N   UNL     1      -3.554  -0.865   1.014  0.00  0.00    -0.312 N 
ATOM     11  C   UNL     1      -4.556  -0.385   1.776  0.00  0.00    +0.216 C 
ATOM     12  O   UNL     1      -4.333   0.478   2.599  0.00  0.00    -0.276 OA
ATOM     13  H   UNL     1      -3.733  -1.556   0.357  0.00  0.00    +0.149 HD
BRANCH  11  14
ATOM     14  C   UNL     1      -5.955  -0.920   1.607  0.00  0.00    +0.075 C 
ATOM     15  C   UNL     1      -6.471  -0.610   0.187  0.00  0.00    +0.013 C 
ATOM     16  C   UNL     1      -7.972  -0.287   0.391  0.00  0.00    +0.001 C 
ATOM     17  C   UNL     1      -7.975   0.497   1.726  0.00  0.00    +0.001 C 
ATOM     18  C   UNL     1      -6.911  -0.216   2.586  0.00  0.00    +0.013 C 
ENDBRANCH  11  14
ENDBRANCH   4  10
BRANCH   2  19
ATOM     19  C   UNL     1       0.782  -0.446  -1.256  0.00  0.00    +0.111 C 
BRANCH  19  20
ATOM     20  N   UNL     1       0.110   0.066  -2.453  0.00  0.00    -0.315 N 
ATOM     21  C   UNL     1       0.615  -0.197  -3.674  0.00  0.00    +0.216 C 
ATOM     22  O   UNL     1       1.627  -0.857  -3.783  0.00  0.00    -0.276 OA
ATOM     23  H   UNL     1      -0.699   0.594  -2.366  0.00  0.00    +0.149 HD
BRANCH  21  24
ATOM     24  C   UNL     1      -0.077   0.329  -4.905  0.00  0.00    +0.075 C 
ATOM     25  C   UNL     1      -1.490  -0.279  -5.018  0.00  0.00    +0.013 C 
ATOM     26  C   UNL     1      -1.688  -0.500  -6.538  0.00  0.00    +0.001 C 
ATOM     27  C   UNL     1      -0.283  -0.960  -7.002  0.00  0.00    +0.001 C 
ATOM     28  C   UNL     1       0.691  -0.103  -6.167  0.00  0.00    +0.013 C 
ENDBRANCH  21  24
ENDBRANCH  19  20
ENDBRANCH   2  19
TORSDOF 5
