REMARK  Name = ZINC35870935
REMARK  5 active torsions:
REMARK  status: ('A' for Active; 'I' for Inactive)
REMARK    1  A    between atoms: C_2  and  C_3
REMARK    2  A    between atoms: C_3  and  N_4
REMARK    3  A    between atoms: C_5  and  C_7
REMARK    4  A    between atoms: C_12  and  N_30
REMARK    5  A    between atoms: N_20  and  C_23
REMARK                            x       y       z     vdW  Elec       q    Type
REMARK                         _______ _______ _______ _____ _____    ______ ____
ROOT
ATOM      1  C   UNL     1       2.498  -3.401   2.431  0.00  0.00    +0.101 C 
ATOM      2  C   UNL     1       2.347  -2.629   3.741  0.00  0.00    +0.051 C 
ATOM      3  C   UNL     1       3.533  -1.713   3.901  0.00  0.00    -0.023 A 
ATOM      4  C   UNL     1       3.392  -0.531   4.606  0.00  0.00    +0.038 A 
ATOM      5  C   UNL     1       4.471   0.321   4.750  0.00  0.00    +0.127 A 
ATOM      6  C   UNL     1       5.692  -0.006   4.190  0.00  0.00    +0.034 A 
ATOM      7  C   UNL     1       5.838  -1.187   3.489  0.00  0.00    +0.025 A 
ATOM      8  C   UNL     1       4.754  -2.049   3.347  0.00  0.00    +0.033 A 
ATOM      9  N   UNL     1       4.943  -3.255   2.651  0.00  0.00    -0.323 N 
ATOM     10  C   UNL     1       3.830  -4.157   2.422  0.00  0.00    +0.103 C 
ATOM     11  C   UNL     1       3.937  -4.923   1.113  0.00  0.00    +0.128 C 
ATOM     12  N   UNL     1       5.305  -5.215   0.737  0.00  0.00    -0.327 N 
ATOM     13  C   UNL     1       6.382  -4.251   0.895  0.00  0.00    +0.124 C 
ATOM     14  C   UNL     1       6.310  -3.561   2.234  0.00  0.00    +0.124 C 
ENDROOT
BRANCH  12  15
ATOM     15  C   UNL     1       5.602  -6.471   0.200  0.00  0.00    +0.030 A 
ATOM     16  C   UNL     1       6.878  -6.742  -0.274  0.00  0.00    +0.026 A 
ATOM     17  C   UNL     1       7.169  -7.984  -0.803  0.00  0.00    +0.040 A 
ATOM     18  C   UNL     1       6.189  -8.960  -0.860  0.00  0.00    +0.124 A 
ATOM     19  C   UNL     1       4.915  -8.693  -0.387  0.00  0.00    +0.040 A 
ATOM     20  C   UNL     1       4.621  -7.454   0.147  0.00  0.00    +0.026 A 
ATOM     21  F   UNL     1       6.475 -10.174  -1.378  0.00  0.00    -0.205 F 
ENDBRANCH  12  15
BRANCH   1  23
ATOM     22  N   UNL     1       1.380  -1.658   1.077  0.00  0.00    -0.311 N 
ATOM     23  C   UNL     1       2.464  -2.435   1.274  0.00  0.00    +0.219 C 
ATOM     24  O   UNL     1       3.411  -2.357   0.521  0.00  0.00    -0.275 OA
ATOM     25  H   UNL     1       0.623  -1.720   1.679  0.00  0.00    +0.149 HD
BRANCH  22  26
ATOM     26  C   UNL     1       1.347  -0.719  -0.047  0.00  0.00    +0.131 C 
BRANCH  26  28
ATOM     27  C   UNL     1       0.024   1.333  -0.033  0.00  0.00    +0.005 C 
ATOM     28  C   UNL     1       0.035   0.023  -0.043  0.00  0.00    -0.016 C 
ENDBRANCH  26  28
ENDBRANCH  22  26
ENDBRANCH   1  23
BRANCH   5  29
ATOM     29  N   UNL     1       4.319   1.584   5.505  0.00  0.00    +0.056 N 
ATOM     30  O   UNL     1       3.252   1.871   5.996  0.00  0.00    -0.126 OA
ATOM     31  O   UNL     1       5.262   2.330   5.632  0.00  0.00    -0.126 OA
ENDBRANCH   5  29
TORSDOF 5
