REMARK  Name = ZINC14670107
REMARK  12 active torsions:
REMARK  status: ('A' for Active; 'I' for Inactive)
REMARK    1  A    between atoms: C_1  and  C_2
REMARK    2  A    between atoms: C_2  and  C_3
REMARK    3  A    between atoms: C_3  and  C_4
REMARK    4  A    between atoms: C_4  and  N_5
REMARK    5  A    between atoms: C_6  and  N_33
REMARK    6  A    between atoms: C_7  and  N_14
REMARK    7  A    between atoms: N_14  and  C_15
REMARK    8  A    between atoms: C_15  and  C_16
REMARK    9  A    between atoms: C_16  and  C_17
REMARK   10  A    between atoms: C_16  and  C_18
REMARK   11  A    between atoms: C_19  and  C_21
REMARK   12  A    between atoms: C_24  and  C_27
REMARK                            x       y       z     vdW  Elec       q    Type
REMARK                         _______ _______ _______ _____ _____    ______ ____
ROOT
ATOM      1  N   UNL     1       2.567   3.891  -0.270  0.00  0.00    -0.260 N 
ATOM      2  C   UNL     1       2.667   5.201   0.034  0.00  0.00    +0.251 C 
ATOM      3  O   UNL     1       3.763   5.720   0.132  0.00  0.00    -0.270 OA
ENDROOT
BRANCH   1   6
ATOM      4  N   UNL     1      -0.355   1.694   0.088  0.00  0.00    -0.280 N 
ATOM      5  C   UNL     1       0.888   2.241   0.305  0.00  0.00    +0.127 A 
ATOM      6  C   UNL     1       1.299   3.308  -0.468  0.00  0.00    +0.140 A 
ATOM      7  C   UNL     1       0.429   3.805  -1.457  0.00  0.00    +0.277 A 
ATOM      8  O   UNL     1       0.767   4.747  -2.155  0.00  0.00    -0.266 OA
ATOM      9  N   UNL     1      -0.778   3.232  -1.629  0.00  0.00    -0.273 N 
ATOM     10  H   UNL     1      -1.395   3.581  -2.335  0.00  0.00    +0.173 HD
ATOM     11  C   UNL     1      -1.163   2.196  -0.863  0.00  0.00    +0.331 A 
ATOM     12  O   UNL     1      -2.260   1.701  -1.037  0.00  0.00    -0.246 OA
BRANCH   5  13
ATOM     13  N   UNL     1       1.712   1.731   1.280  0.00  0.00    -0.343 N 
ATOM     14  H   UNL     1       2.551   2.171   1.484  0.00  0.00    +0.144 HD
ATOM     15  H   UNL     1       1.453   0.931   1.764  0.00  0.00    +0.144 HD
ENDBRANCH   5  13
BRANCH   4  16
ATOM     16  C   UNL     1      -0.804   0.560   0.901  0.00  0.00    +0.128 C 
BRANCH  16  17
ATOM     17  C   UNL     1      -1.530   1.080   2.143  0.00  0.00    +0.021 C 
BRANCH  17  19
ATOM     18  C   UNL     1      -2.725   0.416   4.234  0.00  0.00    +0.004 C 
ATOM     19  C   UNL     1      -1.999  -0.104   2.992  0.00  0.00    -0.002 C 
ENDBRANCH  17  19
ENDBRANCH  16  17
ENDBRANCH   4  16
ENDBRANCH   1   6
BRANCH   2  20
ATOM     20  C   UNL     1       1.447   6.005   0.247  0.00  0.00    +0.037 A 
ATOM     21  C   UNL     1       0.240   5.374   0.559  0.00  0.00    +0.013 A 
ATOM     22  C   UNL     1      -0.896   6.125   0.763  0.00  0.00    +0.009 A 
ATOM     23  C   UNL     1      -0.845   7.514   0.648  0.00  0.00    -0.018 A 
ATOM     24  C   UNL     1       0.359   8.145   0.331  0.00  0.00    +0.009 A 
ATOM     25  C   UNL     1       1.497   7.396   0.132  0.00  0.00    +0.013 A 
BRANCH  23  26
ATOM     26  C   UNL     1      -2.070   8.321   0.862  0.00  0.00    -0.018 A 
ATOM     27  C   UNL     1      -2.021   9.710   0.752  0.00  0.00    +0.008 A 
ATOM     28  C   UNL     1      -3.166  10.456   0.947  0.00  0.00    +0.001 A 
ATOM     29  C   UNL     1      -4.358   9.828   1.261  0.00  0.00    +0.000 A 
ATOM     30  C   UNL     1      -4.411   8.450   1.376  0.00  0.00    +0.001 A 
ATOM     31  C   UNL     1      -3.274   7.694   1.179  0.00  0.00    +0.008 A 
ENDBRANCH  23  26
ENDBRANCH   2  20
BRANCH   1  32
ATOM     32  C   UNL     1       3.776   3.074  -0.393  0.00  0.00    +0.117 C 
BRANCH  32  33
ATOM     33  C   UNL     1       4.190   2.995  -1.864  0.00  0.00    +0.001 C 
ATOM     34  C   UNL     1       4.595   4.386  -2.356  0.00  0.00    +0.009 C 
ATOM     35  C   UNL     1       5.375   2.038  -2.010  0.00  0.00    +0.009 C 
ENDBRANCH  32  33
ENDBRANCH   1  32
TORSDOF 9
