REMARK  Name = ZINC35099176
REMARK  12 active torsions:
REMARK  status: ('A' for Active; 'I' for Inactive)
REMARK    1  A    between atoms: C_1  and  N_2
REMARK    2  A    between atoms: N_2  and  C_3
REMARK    3  A    between atoms: N_2  and  C_10
REMARK    4  A    between atoms: C_3  and  C_4
REMARK    5  A    between atoms: C_10  and  C_11
REMARK    6  A    between atoms: C_11  and  C_13
REMARK    7  A    between atoms: C_11  and  O_38
REMARK    8  A    between atoms: C_13  and  N_14
REMARK    9  A    between atoms: C_22  and  C_23
REMARK   10  A    between atoms: C_23  and  C_25
REMARK   11  A    between atoms: C_23  and  S_31
REMARK   12  A    between atoms: S_31  and  C_32
REMARK                            x       y       z     vdW  Elec       q    Type
REMARK                         _______ _______ _______ _____ _____    ______ ____
ROOT
ATOM      1  N   UNL     1      -4.247  -0.041  -2.413  0.00  0.00    -0.324 N 
ATOM      2  C   UNL     1      -4.880   1.179  -2.546  0.00  0.00    +0.069 A 
ATOM      3  C   UNL     1      -5.068   2.268  -1.705  0.00  0.00    +0.028 A 
ATOM      4  C   UNL     1      -5.768   3.366  -2.157  0.00  0.00    +0.002 A 
ATOM      5  C   UNL     1      -6.285   3.390  -3.444  0.00  0.00    +0.002 A 
ATOM      6  C   UNL     1      -6.110   2.329  -4.285  0.00  0.00    +0.030 A 
ATOM      7  C   UNL     1      -5.403   1.204  -3.850  0.00  0.00    +0.089 A 
ATOM      8  N   UNL     1      -5.070   0.024  -4.433  0.00  0.00    -0.231 NA
ATOM      9  C   UNL     1      -4.389  -0.701  -3.594  0.00  0.00    +0.129 A 
ENDROOT
BRANCH   1  10
ATOM     10  C   UNL     1      -3.548  -0.531  -1.223  0.00  0.00    +0.153 C 
BRANCH  10  11
ATOM     11  C   UNL     1      -2.078  -0.110  -1.286  0.00  0.00    +0.118 C 
BRANCH  11  12
ATOM     12  O   UNL     1      -1.444  -0.758  -2.391  0.00  0.00    -0.392 OA
ATOM     13  H   UNL     1      -1.463  -1.724  -2.344  0.00  0.00    +0.210 HD
ENDBRANCH  11  12
BRANCH  11  14
ATOM     14  C   UNL     1      -1.376  -0.512   0.012  0.00  0.00    -0.045 C 
BRANCH  14  16
ATOM     15  C   UNL     1      -0.018   1.465   0.010  0.00  0.00    -0.096 C 
ATOM     16  N   UNL     1       0.002  -0.004   0.002  0.00  0.00    +0.382 N 
ATOM     17  H   UNL     1       0.474  -0.330  -0.828  0.00  0.00    -0.082 HD
BRANCH  16  18
ATOM     18  C   UNL     1       0.713  -0.491   1.192  0.00  0.00    -0.043 C 
BRANCH  18  19
ATOM     19  C   UNL     1       2.158  -0.072   1.120  0.00  0.00    -0.064 A 
ATOM     20  C   UNL     1       3.086  -0.894   0.508  0.00  0.00    +0.002 A 
ATOM     21  C   UNL     1       4.413  -0.510   0.442  0.00  0.00    +0.000 A 
ATOM     22  C   UNL     1       4.811   0.696   0.988  0.00  0.00    +0.000 A 
ATOM     23  C   UNL     1       3.883   1.518   1.599  0.00  0.00    +0.000 A 
ATOM     24  C   UNL     1       2.556   1.136   1.661  0.00  0.00    +0.002 A 
ENDBRANCH  18  19
ENDBRANCH  16  18
ENDBRANCH  14  16
ENDBRANCH  11  14
ENDBRANCH  10  11
ENDBRANCH   1  10
BRANCH   9  25
ATOM     25  C   UNL     1      -3.841  -2.074  -3.887  0.00  0.00    +0.147 C 
BRANCH  25  26
ATOM     26  C   UNL     1      -4.964  -3.078  -3.869  0.00  0.00    -0.027 A 
ATOM     27  C   UNL     1      -6.020  -2.950  -4.753  0.00  0.00    +0.005 A 
ATOM     28  C   UNL     1      -7.050  -3.871  -4.736  0.00  0.00    +0.000 A 
ATOM     29  C   UNL     1      -7.025  -4.920  -3.837  0.00  0.00    +0.000 A 
ATOM     30  C   UNL     1      -5.969  -5.049  -2.954  0.00  0.00    +0.000 A 
ATOM     31  C   UNL     1      -4.936  -4.130  -2.973  0.00  0.00    +0.005 A 
ENDBRANCH  25  26
BRANCH  25  32
ATOM     32  S   UNL     1      -3.054  -2.075  -5.521  0.00  0.00    -0.109 S 
BRANCH  32  33
ATOM     33  C   UNL     1      -2.343  -3.682  -5.652  0.00  0.00    +0.009 A 
ATOM     34  C   UNL     1      -2.483  -4.592  -4.611  0.00  0.00    +0.015 A 
ATOM     35  C   UNL     1      -1.925  -5.850  -4.716  0.00  0.00    +0.001 A 
ATOM     36  C   UNL     1      -1.226  -6.205  -5.856  0.00  0.00    +0.000 A 
ATOM     37  C   UNL     1      -1.085  -5.302  -6.894  0.00  0.00    +0.001 A 
ATOM     38  C   UNL     1      -1.646  -4.044  -6.798  0.00  0.00    +0.015 A 
ENDBRANCH  32  33
ENDBRANCH  25  32
ENDBRANCH   9  25
TORSDOF 11
