REMARK  Name = ZINC00718039
REMARK  6 active torsions:
REMARK  status: ('A' for Active; 'I' for Inactive)
REMARK    1  A    between atoms: C_1  and  C_2
REMARK    2  A    between atoms: C_2  and  C_3
REMARK    3  A    between atoms: C_23  and  C_26
REMARK    4  A    between atoms: C_26  and  C_27
REMARK    5  A    between atoms: C_26  and  C_28
REMARK    6  A    between atoms: C_26  and  C_29
REMARK                            x       y       z     vdW  Elec       q    Type
REMARK                         _______ _______ _______ _____ _____    ______ ____
ROOT
ATOM      1  C   UNL     1      -8.174  -2.025   2.074  0.00  0.00    +0.218 C 
ATOM      2  O   UNL     1      -7.265  -2.504   1.430  0.00  0.00    -0.275 OA
ATOM      3  N   UNL     1      -7.988  -0.876   2.752  0.00  0.00    -0.270 N 
ATOM      4  C   UNL     1      -6.754  -0.239   2.714  0.00  0.00    +0.140 A 
ATOM      5  C   UNL     1      -6.530   0.955   3.405  0.00  0.00    +0.107 A 
ATOM      6  C   UNL     1      -5.213   1.477   3.454  0.00  0.00    +0.008 A 
ATOM      7  C   UNL     1      -4.969   2.628   4.342  0.00  0.00    +0.026 A 
ATOM      8  C   UNL     1      -3.690   3.065   4.674  0.00  0.00    +0.012 A 
ATOM      9  C   UNL     1      -3.510   4.178   5.470  0.00  0.00    +0.001 A 
ATOM     10  C   UNL     1      -4.603   4.859   5.976  0.00  0.00    +0.004 A 
ATOM     11  C   UNL     1      -5.878   4.407   5.710  0.00  0.00    +0.047 A 
ATOM     12  C   UNL     1      -6.073   3.280   4.921  0.00  0.00    +0.140 A 
ATOM     13  O   UNL     1      -7.333   2.833   4.728  0.00  0.00    -0.422 OA
ATOM     14  C   UNL     1      -7.609   1.709   4.047  0.00  0.00    +0.348 A 
ATOM     15  O   UNL     1      -8.765   1.340   3.973  0.00  0.00    -0.244 OA
ATOM     16  C   UNL     1      -4.237   0.880   2.653  0.00  0.00    -0.017 A 
ATOM     17  C   UNL     1      -4.558  -0.251   1.935  0.00  0.00    +0.047 A 
ATOM     18  N   UNL     1      -5.777  -0.777   2.007  0.00  0.00    -0.236 NA
ATOM     19  C   UNL     1      -3.578  -0.971   1.045  0.00  0.00    +0.056 C 
ATOM     20  C   UNL     1      -2.151  -0.483   1.269  0.00  0.00    +0.010 C 
ATOM     21  C   UNL     1      -2.164   1.050   1.278  0.00  0.00    -0.001 C 
ATOM     22  C   UNL     1      -2.870   1.502   2.557  0.00  0.00    +0.041 C 
ATOM     23  H   UNL     1      -8.715  -0.493   3.267  0.00  0.00    +0.156 HD
ENDROOT
BRANCH  21  24
ATOM     24  C   UNL     1      -0.729   1.579   1.267  0.00  0.00    -0.035 C 
ATOM     25  C   UNL     1      -0.013   1.086   0.008  0.00  0.00    +0.011 C 
ATOM     26  C   UNL     1       0.011   1.072   2.506  0.00  0.00    +0.011 C 
ATOM     27  C   UNL     1      -0.750   3.109   1.275  0.00  0.00    +0.011 C 
ENDBRANCH  21  24
BRANCH   1  29
ATOM     28  C   UNL     1      -9.457  -3.989   1.268  0.00  0.00    +0.013 C 
ATOM     29  C   UNL     1      -9.513  -2.716   2.116  0.00  0.00    +0.093 C 
ENDBRANCH   1  29
TORSDOF 2
