REMARK  Name = ZINC33413164
REMARK  6 active torsions:
REMARK  status: ('A' for Active; 'I' for Inactive)
REMARK    1  A    between atoms: C_1  and  C_2
REMARK    2  A    between atoms: N_5  and  C_7
REMARK    3  A    between atoms: C_14  and  N_34
REMARK    4  A    between atoms: C_15  and  C_32
REMARK    5  A    between atoms: C_16  and  C_18
REMARK    6  A    between atoms: C_21  and  C_23
REMARK                            x       y       z     vdW  Elec       q    Type
REMARK                         _______ _______ _______ _____ _____    ______ ____
ROOT
ATOM      1  C   UNL     1       5.876   4.428   0.903  0.00  0.00    +0.068 C 
ATOM      2  C   UNL     1       4.454   4.437   0.403  0.00  0.00    +0.068 A 
ATOM      3  C   UNL     1       3.875   5.425  -0.382  0.00  0.00    +0.053 A 
ATOM      4  C   UNL     1       2.579   5.066  -0.627  0.00  0.00    +0.230 A 
ATOM      5  N   UNL     1       2.358   3.890  -0.001  0.00  0.00    -0.200 N 
ATOM      6  N   UNL     1       3.551   3.514   0.636  0.00  0.00    -0.168 NA
ATOM      7  O   UNL     1       1.734   5.826  -1.367  0.00  0.00    -0.423 OA
ATOM      8  C   UNL     1       2.273   6.820  -2.103  0.00  0.00    +0.201 C 
ATOM      9  C   UNL     1       3.539   7.269  -1.949  0.00  0.00    +0.101 C 
ATOM     10  C   UNL     1       4.481   6.695  -0.920  0.00  0.00    +0.137 C 
ENDROOT
BRANCH   5  11
ATOM     11  C   UNL     1       1.155   3.170   0.008  0.00  0.00    +0.069 A 
ATOM     12  C   UNL     1       1.174   1.782   0.000  0.00  0.00    +0.028 A 
ATOM     13  C   UNL     1      -0.013   1.076   0.008  0.00  0.00    +0.002 A 
ATOM     14  C   UNL     1      -1.220   1.750   0.017  0.00  0.00    +0.000 A 
ATOM     15  C   UNL     1      -1.242   3.133   0.030  0.00  0.00    +0.002 A 
ATOM     16  C   UNL     1      -0.059   3.844   0.022  0.00  0.00    +0.028 A 
ENDBRANCH   5  11
BRANCH  10  17
ATOM     17  C   UNL     1       4.672   7.683   0.202  0.00  0.00    +0.119 A 
ATOM     18  C   UNL     1       5.851   8.208   0.595  0.00  0.00    +0.046 A 
ATOM     19  C   UNL     1       5.579   9.080   1.664  0.00  0.00    +0.052 A 
ATOM     20  C   UNL     1       4.233   9.034   1.875  0.00  0.00    +0.160 A 
ATOM     21  O   UNL     1       3.698   8.181   0.979  0.00  0.00    -0.457 OA
BRANCH  20  22
ATOM     22  C   UNL     1       3.493   9.784   2.901  0.00  0.00    +0.144 A 
ATOM     23  N   UNL     1       3.955  10.624   3.805  0.00  0.00    -0.236 NA
ATOM     24  C   UNL     1       3.153  11.249   4.688  0.00  0.00    +0.079 A 
ATOM     25  C   UNL     1       3.517  12.170   5.700  0.00  0.00    +0.029 A 
ATOM     26  C   UNL     1       2.577  12.711   6.520  0.00  0.00    +0.002 A 
ATOM     27  C   UNL     1       1.232  12.386   6.403  0.00  0.00    +0.001 A 
ATOM     28  C   UNL     1       0.835  11.490   5.428  0.00  0.00    +0.017 A 
ATOM     29  C   UNL     1       1.776  10.938   4.594  0.00  0.00    +0.040 A 
ATOM     30  S   UNL     1       1.739   9.783   3.244  0.00  0.00    -0.064 S 
ENDBRANCH  20  22
ENDBRANCH  10  17
BRANCH   8  31
ATOM     31  N   UNL     1       1.491   7.410  -3.064  0.00  0.00    -0.328 N 
ATOM     32  H   UNL     1       1.899   8.223  -3.682  0.00  0.00    +0.145 HD
ATOM     33  H   UNL     1       0.456   7.069  -3.216  0.00  0.00    +0.145 HD
ENDBRANCH   8  31
BRANCH   9  34
ATOM     34  C   UNL     1       4.002   8.328  -2.794  0.00  0.00    +0.101 C 
ATOM     35  N   UNL     1       4.370   9.168  -3.464  0.00  0.00    -0.191 NA
ENDBRANCH   9  34
TORSDOF 5
