REMARK  Name = ZINC02051734
REMARK  5 active torsions:
REMARK  status: ('A' for Active; 'I' for Inactive)
REMARK    1  A    between atoms: C_7  and  C_11
REMARK    2  A    between atoms: C_11  and  C_12
REMARK    3  A    between atoms: C_12  and  N_13
REMARK    4  A    between atoms: N_13  and  C_14
REMARK    5  A    between atoms: N_21  and  C_24
REMARK                            x       y       z     vdW  Elec       q    Type
REMARK                         _______ _______ _______ _____ _____    ______ ____
ROOT
ATOM      1  C   UNL     1      -1.140  -5.227  -2.615  0.00  0.00    +0.085 C 
ATOM      2  C   UNL     1      -1.939  -6.355  -2.623  0.00  0.00    +0.113 C 
ATOM      3  C   UNL     1      -2.444  -6.931  -3.882  0.00  0.00    +0.258 C 
ATOM      4  O   UNL     1      -2.169  -6.426  -4.955  0.00  0.00    -0.270 OA
ATOM      5  N   UNL     1      -3.219  -8.033  -3.813  0.00  0.00    -0.235 N 
ATOM      6  C   UNL     1      -3.529  -8.599  -2.639  0.00  0.00    +0.320 C 
ATOM      7  O   UNL     1      -4.232  -9.591  -2.646  0.00  0.00    -0.251 OA
ATOM      8  N   UNL     1      -3.105  -8.130  -1.457  0.00  0.00    -0.190 N 
ATOM      9  C   UNL     1      -2.318  -7.037  -1.373  0.00  0.00    +0.265 C 
ATOM     10  O   UNL     1      -1.935  -6.624  -0.295  0.00  0.00    -0.269 OA
ATOM     11  H   UNL     1      -3.560  -8.424  -4.633  0.00  0.00    +0.159 HD
ENDROOT
BRANCH   8  12
ATOM     12  C   UNL     1      -3.483  -8.793  -0.281  0.00  0.00    +0.046 A 
ATOM     13  C   UNL     1      -4.325  -8.168   0.629  0.00  0.00    +0.025 A 
ATOM     14  C   UNL     1      -4.696  -8.824   1.787  0.00  0.00    +0.017 A 
ATOM     15  C   UNL     1      -4.230 -10.101   2.040  0.00  0.00    +0.018 A 
ATOM     16  C   UNL     1      -3.391 -10.726   1.134  0.00  0.00    +0.017 A 
ATOM     17  C   UNL     1      -3.022 -10.077  -0.028  0.00  0.00    +0.025 A 
ATOM     18 BR   UNL     1      -4.740 -10.996   3.626  0.00  0.00    -0.050 Br
ENDBRANCH   8  12
BRANCH   1  19
ATOM     19  N   UNL     1      -0.581  -4.804  -1.464  0.00  0.00    -0.349 N 
ATOM     20  H   UNL     1      -0.799  -5.247  -0.628  0.00  0.00    +0.146 HD
BRANCH  19  21
ATOM     21  C   UNL     1       0.354  -3.677  -1.473  0.00  0.00    +0.105 C 
BRANCH  21  22
ATOM     22  C   UNL     1       0.839  -3.404  -0.048  0.00  0.00    +0.056 C 
BRANCH  22  29
ATOM     23  C   UNL     1       0.260   1.246   0.102  0.00  0.00    +0.001 A 
ATOM     24  C   UNL     1       1.461   1.941   0.070  0.00  0.00    +0.002 A 
ATOM     25  C   UNL     1       2.661   1.268   0.001  0.00  0.00    +0.026 A 
ATOM     26  C   UNL     1       2.673  -0.122  -0.038  0.00  0.00    +0.047 A 
ATOM     27  C   UNL     1       1.453  -0.822  -0.005  0.00  0.00    +0.003 A 
ATOM     28  C   UNL     1       0.248  -0.120   0.065  0.00  0.00    +0.010 A 
ATOM     29  C   UNL     1       1.801  -2.244  -0.058  0.00  0.00    -0.021 A 
ATOM     30  C   UNL     1       3.140  -2.319  -0.117  0.00  0.00    +0.087 A 
ATOM     31  N   UNL     1       3.678  -1.060  -0.106  0.00  0.00    -0.360 N 
ATOM     32  H   UNL     1       4.626  -0.860  -0.141  0.00  0.00    +0.165 HD
ENDBRANCH  22  29
ENDBRANCH  21  22
ENDBRANCH  19  21
ENDBRANCH   1  19
TORSDOF 5
