REMARK  Name = ZINC59114007
REMARK  16 active torsions:
REMARK  status: ('A' for Active; 'I' for Inactive)
REMARK    1  A    between atoms: C_1  and  C_2
REMARK    2  A    between atoms: C_2  and  C_23
REMARK    3  A    between atoms: C_4  and  N_11
REMARK    4  A    between atoms: C_7  and  C_9
REMARK    5  A    between atoms: C_7  and  C_10
REMARK    6  A    between atoms: N_11  and  C_12
REMARK    7  A    between atoms: C_12  and  N_14
REMARK    8  A    between atoms: N_14  and  C_15
REMARK    9  A    between atoms: C_18  and  O_21
REMARK   10  A    between atoms: O_21  and  C_22
REMARK   11  A    between atoms: C_23  and  N_24
REMARK   12  A    between atoms: N_24  and  C_25
REMARK   13  A    between atoms: C_25  and  N_27
REMARK   14  A    between atoms: N_27  and  C_28
REMARK   15  A    between atoms: C_31  and  O_34
REMARK   16  A    between atoms: O_34  and  C_35
REMARK                            x       y       z     vdW  Elec       q    Type
REMARK                         _______ _______ _______ _____ _____    ______ ____
ROOT
ATOM      1  C   UNL     1      -0.338   0.815  -0.749  0.00  0.00    +0.013 C 
ATOM      2  C   UNL     1      -0.074  -0.683  -0.924  0.00  0.00    -0.014 C 
ATOM      3  C   UNL     1       0.605  -0.940  -2.264  0.00  0.00    +0.030 C 
ATOM      4  C   UNL     1       2.056  -0.466  -2.236  0.00  0.00    +0.073 C 
ATOM      5  C   UNL     1       2.812  -1.254  -1.169  0.00  0.00    +0.028 C 
ATOM      6  C   UNL     1       2.213  -1.008   0.211  0.00  0.00    -0.033 C 
ATOM      7  C   UNL     1       0.714  -1.241   0.247  0.00  0.00    +0.014 C 
ATOM      8  C   UNL     1       2.563   0.404   0.690  0.00  0.00    +0.011 C 
ATOM      9  C   UNL     1       2.873  -2.003   1.191  0.00  0.00    +0.011 C 
ENDROOT
BRANCH   4  10
ATOM     10  N   UNL     1       2.670  -0.720  -3.547  0.00  0.00    -0.323 N 
ATOM     11  H   UNL     1       2.320  -1.421  -4.118  0.00  0.00    +0.148 HD
BRANCH  10  12
ATOM     12  C   UNL     1       3.719   0.021  -3.954  0.00  0.00    +0.135 C 
ATOM     13  S   UNL     1       4.337   1.258  -2.945  0.00  0.00    -0.019 S 
BRANCH  12  14
ATOM     14  N   UNL     1       4.283  -0.212  -5.156  0.00  0.00    -0.297 N 
ATOM     15  H   UNL     1       3.993  -0.970  -5.689  0.00  0.00    +0.154 HD
BRANCH  14  16
ATOM     16  C   UNL     1       5.287   0.638  -5.636  0.00  0.00    +0.033 A 
ATOM     17  C   UNL     1       6.369   0.114  -6.331  0.00  0.00    +0.027 A 
ATOM     18  C   UNL     1       7.358   0.953  -6.804  0.00  0.00    +0.047 A 
ATOM     19  C   UNL     1       7.271   2.320  -6.586  0.00  0.00    +0.120 A 
ATOM     20  C   UNL     1       6.190   2.845  -5.892  0.00  0.00    +0.047 A 
ATOM     21  C   UNL     1       5.197   2.007  -5.423  0.00  0.00    +0.027 A 
BRANCH  19  22
ATOM     22  O   UNL     1       8.245   3.146  -7.052  0.00  0.00    -0.495 OA
ATOM     23  C   UNL     1       8.091   4.543  -6.791  0.00  0.00    +0.277 C 
ENDBRANCH  19  22
ENDBRANCH  14  16
ENDBRANCH  12  14
ENDBRANCH  10  12
ENDBRANCH   4  10
BRANCH   2  24
ATOM     24  C   UNL     1      -1.448  -1.391  -0.953  0.00  0.00    +0.110 C 
BRANCH  24  25
ATOM     25  N   UNL     1      -2.240  -0.873  -2.071  0.00  0.00    -0.326 N 
ATOM     26  H   UNL     1      -1.871  -0.189  -2.651  0.00  0.00    +0.148 HD
BRANCH  25  27
ATOM     27  C   UNL     1      -3.482  -1.347  -2.294  0.00  0.00    +0.135 C 
ATOM     28  S   UNL     1      -4.133  -2.555  -1.269  0.00  0.00    -0.019 S 
BRANCH  27  29
ATOM     29  N   UNL     1      -4.211  -0.872  -3.322  0.00  0.00    -0.297 N 
ATOM     30  H   UNL     1      -3.818  -0.237  -3.942  0.00  0.00    +0.154 HD
BRANCH  29  31
ATOM     31  C   UNL     1      -5.535  -1.294  -3.497  0.00  0.00    +0.033 A 
ATOM     32  C   UNL     1      -6.528  -0.366  -3.781  0.00  0.00    +0.027 A 
ATOM     33  C   UNL     1      -7.833  -0.783  -3.954  0.00  0.00    +0.047 A 
ATOM     34  C   UNL     1      -8.152  -2.129  -3.843  0.00  0.00    +0.120 A 
ATOM     35  C   UNL     1      -7.161  -3.056  -3.559  0.00  0.00    +0.047 A 
ATOM     36  C   UNL     1      -5.854  -2.641  -3.393  0.00  0.00    +0.027 A 
BRANCH  34  37
ATOM     37  O   UNL     1      -9.438  -2.538  -4.013  0.00  0.00    -0.495 OA
ATOM     38  C   UNL     1      -9.694  -3.938  -3.885  0.00  0.00    +0.277 C 
ENDBRANCH  34  37
ENDBRANCH  29  31
ENDBRANCH  27  29
ENDBRANCH  25  27
ENDBRANCH  24  25
ENDBRANCH   2  24
TORSDOF 11
