REMARK  Name = ZINC39359785
REMARK  9 active torsions:
REMARK  status: ('A' for Active; 'I' for Inactive)
REMARK    1  A    between atoms: C_1  and  C_2
REMARK    2  A    between atoms: C_2  and  C_3
REMARK    3  A    between atoms: C_3  and  C_14
REMARK    4  A    between atoms: N_6  and  C_10
REMARK    5  A    between atoms: C_10  and  C_11
REMARK    6  A    between atoms: C_11  and  C_13
REMARK    7  A    between atoms: N_17  and  C_20
REMARK    8  A    between atoms: C_20  and  C_21
REMARK    9  A    between atoms: C_26  and  C_27
REMARK                            x       y       z     vdW  Elec       q    Type
REMARK                         _______ _______ _______ _____ _____    ______ ____
ROOT
ATOM      1  C   UNL     1      -1.441  -2.063   0.058  0.00  0.00    +0.018 C 
ATOM      2  C   UNL     1      -0.726  -2.615  -1.179  0.00  0.00    -0.013 C 
ATOM      3  C   UNL     1      -0.807  -4.143  -1.168  0.00  0.00    -0.078 C 
ATOM      4  N   UNL     1      -2.213  -4.563  -1.185  0.00  0.00    +0.380 N 
ATOM      5  C   UNL     1      -2.887  -4.098   0.033  0.00  0.00    -0.078 C 
ATOM      6  C   UNL     1      -2.886  -2.568   0.068  0.00  0.00    -0.013 C 
ATOM      7  H   UNL     1      -2.671  -4.168  -1.993  0.00  0.00    -0.082 HD
ENDROOT
BRANCH   1   8
ATOM      8  C   UNL     1      -1.433  -0.534   0.013  0.00  0.00    +0.115 C 
ATOM      9  C   UNL     1      -2.205   0.042   1.184  0.00  0.00    +0.247 C 
ATOM     10  O   UNL     1      -1.958  -0.098   2.363  0.00  0.00    -0.273 OA
ATOM     11  N   UNL     1      -3.222   0.740   0.642  0.00  0.00    -0.220 N 
ATOM     12  C   UNL     1      -3.200   0.687  -0.695  0.00  0.00    +0.310 C 
ATOM     13  O   UNL     1      -4.016   1.240  -1.406  0.00  0.00    -0.252 OA
ATOM     14  N   UNL     1      -2.175  -0.046  -1.163  0.00  0.00    -0.285 N 
ATOM     15  H   UNL     1      -1.964  -0.220  -2.094  0.00  0.00    +0.151 HD
BRANCH   8  17
ATOM     16  C   UNL     1      -0.019   1.526   0.010  0.00  0.00    +0.006 C 
ATOM     17  C   UNL     1       0.002  -0.004   0.002  0.00  0.00    +0.032 C 
ENDBRANCH   8  17
BRANCH  11  18
ATOM     18  C   UNL     1      -4.228   1.468   1.421  0.00  0.00    +0.148 C 
BRANCH  18  19
ATOM     19  C   UNL     1      -3.756   2.880   1.656  0.00  0.00    -0.062 C 
ATOM     20  C   UNL     1      -4.138   3.840   0.851  0.00  0.00    +0.009 C 
ATOM     21  C   UNL     1      -2.845   3.187   2.816  0.00  0.00    +0.040 C 
ENDBRANCH  18  19
ENDBRANCH  11  18
ENDBRANCH   1   8
BRANCH   4  22
ATOM     22  C   UNL     1      -2.284  -6.029  -1.253  0.00  0.00    -0.063 C 
BRANCH  22  23
ATOM     23  C   UNL     1      -3.745  -6.462  -1.397  0.00  0.00    +0.066 C 
ATOM     24  C   UNL     1      -4.289  -6.062  -2.754  0.00  0.00    +0.115 C 
ATOM     25  N   UNL     1      -4.617  -7.164  -3.348  0.00  0.00    -0.161 NA
ATOM     26  N   UNL     1      -4.366  -8.286  -2.565  0.00  0.00    -0.153 NA
ATOM     27  C   UNL     1      -3.855  -7.974  -1.402  0.00  0.00    +0.077 C 
BRANCH  27  28
ATOM     28  C   UNL     1      -3.467  -8.895  -0.323  0.00  0.00    -0.001 A 
ATOM     29  C   UNL     1      -2.935  -8.395   0.870  0.00  0.00    +0.012 A 
ATOM     30  C   UNL     1      -2.573  -9.264   1.877  0.00  0.00    +0.039 A 
ATOM     31  C   UNL     1      -2.736 -10.631   1.710  0.00  0.00    +0.123 A 
ATOM     32  C   UNL     1      -3.263 -11.133   0.529  0.00  0.00    +0.039 A 
ATOM     33  C   UNL     1      -3.634 -10.275  -0.483  0.00  0.00    +0.012 A 
ATOM     34  F   UNL     1      -2.379 -11.477   2.700  0.00  0.00    -0.205 F 
ENDBRANCH  27  28
ENDBRANCH  22  23
ENDBRANCH   4  22
TORSDOF 7
