REMARK  Name = ZINC02278015
REMARK  3 active torsions:
REMARK  status: ('A' for Active; 'I' for Inactive)
REMARK    1  A    between atoms: C_10  and  C_18
REMARK    2  A    between atoms: C_12  and  C_16
REMARK    3  A    between atoms: C_13  and  N_15
REMARK                            x       y       z     vdW  Elec       q    Type
REMARK                         _______ _______ _______ _____ _____    ______ ____
ROOT
ATOM      1  C   UNL     1      -1.215   3.144   0.029  0.00  0.00    +0.001 A 
ATOM      2  C   UNL     1      -1.214   1.755   0.017  0.00  0.00    +0.001 A 
ATOM      3  C   UNL     1      -0.013   1.076   0.008  0.00  0.00    +0.016 A 
ATOM      4  C   UNL     1       1.169   1.787   0.001  0.00  0.00    +0.023 A 
ATOM      5  C   UNL     1       1.196   3.197   0.006  0.00  0.00    +0.032 A 
ATOM      6  C   UNL     1      -0.056   3.855   0.022  0.00  0.00    +0.013 A 
ATOM      7  C   UNL     1       2.532   3.799  -0.004  0.00  0.00    +0.149 A 
ATOM      8  C   UNL     1       3.589   2.956  -0.016  0.00  0.00    +0.046 A 
ATOM      9  S   UNL     1       2.885   1.333  -0.016  0.00  0.00    -0.088 S 
ATOM     10  C   UNL     1       5.030   3.359  -0.027  0.00  0.00    +0.106 C 
ATOM     11  C   UNL     1       5.099   4.836   0.287  0.00  0.00    +0.099 C 
ATOM     12  C   UNL     1       3.987   5.607   0.278  0.00  0.00    +0.199 C 
ATOM     13  O   UNL     1       2.752   5.160  -0.001  0.00  0.00    -0.440 OA
ENDROOT
BRANCH  10  14
ATOM     14  C   UNL     1       5.623   3.098  -1.387  0.00  0.00    -0.016 A 
ATOM     15  C   UNL     1       5.094   3.719  -2.503  0.00  0.00    +0.007 A 
ATOM     16  C   UNL     1       5.641   3.484  -3.750  0.00  0.00    +0.020 A 
ATOM     17  C   UNL     1       6.711   2.618  -3.885  0.00  0.00    +0.042 A 
ATOM     18  C   UNL     1       7.238   1.992  -2.769  0.00  0.00    +0.040 A 
ATOM     19  C   UNL     1       6.693   2.232  -1.520  0.00  0.00    +0.046 A 
ATOM     20 CL   UNL     1       7.353   1.445  -0.120  0.00  0.00    -0.083 Cl
ATOM     21 CL   UNL     1       7.394   2.318  -5.452  0.00  0.00    -0.083 Cl
ENDBRANCH  10  14
BRANCH  12  22
ATOM     22  N   UNL     1       4.131   6.939   0.577  0.00  0.00    -0.328 N 
ATOM     23  H   UNL     1       5.008   7.297   0.785  0.00  0.00    +0.145 HD
ATOM     24  H   UNL     1       3.356   7.522   0.580  0.00  0.00    +0.145 HD
ENDBRANCH  12  22
BRANCH  11  25
ATOM     25  C   UNL     1       6.364   5.431   0.601  0.00  0.00    +0.101 C 
ATOM     26  N   UNL     1       7.367   5.902   0.849  0.00  0.00    -0.191 NA
ENDBRANCH  11  25
TORSDOF 3
