REMARK  Name = ZINC67318276
REMARK  7 active torsions:
REMARK  status: ('A' for Active; 'I' for Inactive)
REMARK    1  A    between atoms: C_1  and  C_2
REMARK    2  A    between atoms: C_2  and  C_4
REMARK    3  A    between atoms: C_2  and  N_11
REMARK    4  A    between atoms: C_12  and  C_14
REMARK    5  A    between atoms: C_14  and  N_15
REMARK    6  A    between atoms: C_22  and  C_26
REMARK    7  A    between atoms: C_28  and  C_31
REMARK                            x       y       z     vdW  Elec       q    Type
REMARK                         _______ _______ _______ _____ _____    ______ ____
ROOT
ATOM      1  N   UNL     1      -0.240  -1.150  -4.711  0.00  0.00    -0.299 N 
ATOM      2  C   UNL     1      -0.955  -2.308  -4.932  0.00  0.00    +0.053 A 
ATOM      3  C   UNL     1      -0.785  -3.420  -4.113  0.00  0.00    +0.026 A 
ATOM      4  C   UNL     1      -1.513  -4.565  -4.355  0.00  0.00    +0.002 A 
ATOM      5  C   UNL     1      -2.415  -4.621  -5.409  0.00  0.00    +0.001 A 
ATOM      6  C   UNL     1      -2.597  -3.541  -6.225  0.00  0.00    +0.011 A 
ATOM      7  C   UNL     1      -1.870  -2.370  -5.998  0.00  0.00    +0.011 A 
ATOM      8  C   UNL     1      -2.042  -1.188  -6.858  0.00  0.00    +0.054 A 
ATOM      9  C   UNL     1      -1.300  -0.072  -6.583  0.00  0.00    +0.084 A 
ATOM     10  C   UNL     1      -0.403  -0.070  -5.494  0.00  0.00    +0.253 A 
ATOM     11  O   UNL     1       0.246   0.935  -5.261  0.00  0.00    -0.268 OA
ENDROOT
BRANCH   8  12
ATOM     12  C   UNL     1      -2.992  -1.207  -7.991  0.00  0.00    +0.260 A 
ATOM     13  N   UNL     1      -3.219  -0.216  -8.820  0.00  0.00    -0.187 NA
ATOM     14  C   UNL     1      -4.140  -0.579  -9.726  0.00  0.00    +0.202 A 
ATOM     15  N   UNL     1      -4.512  -1.812  -9.481  0.00  0.00    -0.056 NA
ATOM     16  O   UNL     1      -3.768  -2.244  -8.352  0.00  0.00    -0.332 OA
BRANCH  14  17
ATOM     17  C   UNL     1      -4.655   0.277 -10.825  0.00  0.00    +0.025 A 
ATOM     18  C   UNL     1      -4.185   1.580 -10.999  0.00  0.00    +0.031 A 
ATOM     19  C   UNL     1      -4.690   2.342 -12.034  0.00  0.00    +0.111 A 
ATOM     20  N   UNL     1      -5.603   1.853 -12.851  0.00  0.00    -0.263 NA
ATOM     21  C   UNL     1      -6.073   0.628 -12.721  0.00  0.00    +0.111 A 
ATOM     22  C   UNL     1      -5.619  -0.203 -11.716  0.00  0.00    +0.031 A 
ENDBRANCH  14  17
ENDBRANCH   8  12
BRANCH   1  23
ATOM     23  C   UNL     1       0.712  -1.094  -3.598  0.00  0.00    +0.221 C 
BRANCH  23  25
ATOM     24  N   UNL     1       0.688  -0.476  -1.203  0.00  0.00    -0.307 N 
ATOM     25  C   UNL     1       0.006  -0.608  -2.358  0.00  0.00    +0.233 C 
ATOM     26  O   UNL     1      -1.175  -0.336  -2.400  0.00  0.00    -0.274 OA
ATOM     27  H   UNL     1       1.632  -0.695  -1.170  0.00  0.00    +0.149 HD
BRANCH  24  29
ATOM     28  C   UNL     1      -0.019   1.526   0.010  0.00  0.00    +0.033 C 
ATOM     29  C   UNL     1       0.002  -0.004   0.002  0.00  0.00    +0.100 C 
BRANCH  29  30
ATOM     30  C   UNL     1       0.731  -0.503   1.223  0.00  0.00    -0.027 A 
ATOM     31  C   UNL     1       2.113  -0.513   1.246  0.00  0.00    +0.008 A 
ATOM     32  C   UNL     1       2.783  -0.971   2.365  0.00  0.00    +0.038 A 
ATOM     33  C   UNL     1       2.068  -1.419   3.464  0.00  0.00    +0.123 A 
ATOM     34  C   UNL     1       0.684  -1.408   3.439  0.00  0.00    +0.038 A 
ATOM     35  C   UNL     1       0.017  -0.945   2.321  0.00  0.00    +0.008 A 
ATOM     36  F   UNL     1       2.722  -1.866   4.558  0.00  0.00    -0.205 F 
ENDBRANCH  29  30
ENDBRANCH  24  29
ENDBRANCH  23  25
ENDBRANCH   1  23
TORSDOF 6
