REMARK  Name = ZINC38487723
REMARK  6 active torsions:
REMARK  status: ('A' for Active; 'I' for Inactive)
REMARK    1  A    between atoms: C_1  and  C_2
REMARK    2  A    between atoms: C_5  and  C_9
REMARK    3  A    between atoms: C_7  and  C_8
REMARK    4  A    between atoms: C_11  and  C_14
REMARK    5  A    between atoms: N_24  and  C_27
REMARK    6  A    between atoms: C_27  and  C_28
REMARK                            x       y       z     vdW  Elec       q    Type
REMARK                         _______ _______ _______ _____ _____    ______ ____
ROOT
ATOM      1  C   UNL     1       0.104  -7.449  -1.697  0.00  0.00    +0.041 A 
ATOM      2  C   UNL     1       0.105  -7.231  -3.079  0.00  0.00    +0.014 A 
ATOM      3  C   UNL     1       0.118  -8.287  -3.946  0.00  0.00    +0.016 A 
ATOM      4  C   UNL     1       0.131  -9.590  -3.451  0.00  0.00    +0.063 A 
ATOM      5  C   UNL     1       0.130  -9.821  -2.064  0.00  0.00    +0.056 A 
ATOM      6  C   UNL     1       0.122  -8.747  -1.190  0.00  0.00    +0.039 A 
ATOM      7  N   UNL     1       0.143 -11.131  -1.604  0.00  0.00    -0.307 N 
ATOM      8  H   UNL     1       0.143 -11.305  -0.650  0.00  0.00    +0.170 HD
ATOM      9  C   UNL     1       0.156 -12.160  -2.468  0.00  0.00    +0.330 A 
ATOM     10  O   UNL     1       0.167 -13.292  -2.025  0.00  0.00    -0.246 OA
ATOM     11  N   UNL     1       0.157 -11.992  -3.800  0.00  0.00    -0.256 N 
ATOM     12  C   UNL     1       0.146 -10.759  -4.351  0.00  0.00    +0.265 A 
ATOM     13  O   UNL     1       0.148 -10.616  -5.558  0.00  0.00    -0.267 OA
ENDROOT
BRANCH   1  16
ATOM     14  C   UNL     1       0.061  -4.256  -0.021  0.00  0.00    +0.202 A 
ATOM     15  N   UNL     1       0.071  -5.031  -1.117  0.00  0.00    -0.187 NA
ATOM     16  C   UNL     1       0.089  -6.296  -0.770  0.00  0.00    +0.259 A 
ATOM     17  O   UNL     1       0.090  -6.365   0.572  0.00  0.00    -0.332 OA
ATOM     18  N   UNL     1       0.077  -5.025   1.041  0.00  0.00    -0.056 NA
BRANCH  14  23
ATOM     19  C   UNL     1      -0.018   1.503   0.010  0.00  0.00    +0.044 C 
ATOM     20  C   UNL     1       0.002  -0.004   0.002  0.00  0.00    -0.047 A 
ATOM     21  C   UNL     1       0.006  -0.687  -1.201  0.00  0.00    +0.004 A 
ATOM     22  C   UNL     1       0.025  -2.067  -1.215  0.00  0.00    +0.012 A 
ATOM     23  C   UNL     1       0.041  -2.772  -0.013  0.00  0.00    +0.023 A 
ATOM     24  C   UNL     1       0.037  -2.080   1.196  0.00  0.00    +0.015 A 
ATOM     25  C   UNL     1       0.023  -0.699   1.197  0.00  0.00    -0.047 A 
ATOM     26  C   UNL     1       0.025   0.051   2.504  0.00  0.00    +0.044 C 
ENDBRANCH  14  23
ENDBRANCH   1  16
BRANCH  11  27
ATOM     27  C   UNL     1       0.172 -13.168  -4.673  0.00  0.00    +0.168 C 
BRANCH  27  28
ATOM     28  C   UNL     1      -1.244 -13.587  -4.975  0.00  0.00    +0.008 A 
ATOM     29  C   UNL     1      -1.818 -14.634  -4.279  0.00  0.00    +0.008 A 
ATOM     30  C   UNL     1      -3.117 -15.019  -4.556  0.00  0.00    +0.000 A 
ATOM     31  C   UNL     1      -3.842 -14.356  -5.529  0.00  0.00    +0.003 A 
ATOM     32  C   UNL     1      -3.270 -13.309  -6.225  0.00  0.00    +0.039 A 
ATOM     33  C   UNL     1      -1.971 -12.919  -5.945  0.00  0.00    +0.128 A 
ATOM     34  F   UNL     1      -1.412 -11.892  -6.622  0.00  0.00    -0.205 F 
ENDBRANCH  27  28
ENDBRANCH  11  27
TORSDOF 4
