REMARK  Name = ZINC27500027
REMARK  7 active torsions:
REMARK  status: ('A' for Active; 'I' for Inactive)
REMARK    1  A    between atoms: C_4  and  N_7
REMARK    2  A    between atoms: C_8  and  S_12
REMARK    3  A    between atoms: S_12  and  C_13
REMARK    4  A    between atoms: C_13  and  C_14
REMARK    5  A    between atoms: N_16  and  N_17
REMARK    6  A    between atoms: C_18  and  C_19
REMARK    7  A    between atoms: C_22  and  C_24
REMARK                            x       y       z     vdW  Elec       q    Type
REMARK                         _______ _______ _______ _____ _____    ______ ____
ROOT
ATOM      1  C   UNL     1       0.185   5.728   0.030  0.00  0.00    +0.242 C 
ATOM      2  O   UNL     1       1.290   6.227   0.022  0.00  0.00    -0.273 OA
ATOM      3  N   UNL     1      -0.910   6.515   0.045  0.00  0.00    -0.206 N 
ATOM      4  H   UNL     1      -1.912   6.062   0.053  0.00  0.00    +0.177 HD
ENDROOT
BRANCH   3   5
ATOM      5  N   UNL     1      -0.770   7.909   0.051  0.00  0.00    -0.185 NA
ATOM      6  C   UNL     1      -1.827   8.669   0.065  0.00  0.00    +0.176 C 
BRANCH   6   7
ATOM      7  C   UNL     1      -1.681  10.126   0.071  0.00  0.00    +0.148 A 
ATOM      8  C   UNL     1      -2.710  11.041   0.081  0.00  0.00    +0.051 A 
ATOM      9  C   UNL     1      -2.120  12.312   0.087  0.00  0.00    +0.050 A 
ATOM     10  C   UNL     1      -0.769  12.127   0.072  0.00  0.00    +0.136 A 
ATOM     11  O   UNL     1      -0.516  10.805   0.063  0.00  0.00    -0.454 OA
BRANCH  10  12
ATOM     12  C   UNL     1       0.247  13.198   0.068  0.00  0.00    +0.019 A 
ATOM     13  C   UNL     1       1.606  12.876   0.051  0.00  0.00    +0.011 A 
ATOM     14  C   UNL     1       2.550  13.881   0.046  0.00  0.00    +0.002 A 
ATOM     15  C   UNL     1       2.154  15.207   0.058  0.00  0.00    +0.020 A 
ATOM     16  C   UNL     1       0.809  15.534   0.073  0.00  0.00    +0.042 A 
ATOM     17  C   UNL     1      -0.147  14.538   0.073  0.00  0.00    +0.031 A 
ATOM     18 CL   UNL     1       0.322  17.201   0.087  0.00  0.00    -0.084 Cl
ENDBRANCH  10  12
ENDBRANCH   6   7
ENDBRANCH   3   5
BRANCH   1  19
ATOM     19  C   UNL     1       0.034   4.228   0.024  0.00  0.00    +0.174 C 
BRANCH  19  20
ATOM     20  S   UNL     1       1.672   3.458   0.004  0.00  0.00    -0.075 S 
BRANCH  20  22
ATOM     21  N   UNL     1       2.052   0.693  -0.014  0.00  0.00    -0.187 N 
ATOM     22  C   UNL     1       1.210   1.758  -0.000  0.00  0.00    +0.214 A 
ATOM     23  N   UNL     1      -0.015   1.280   0.009  0.00  0.00    -0.101 NA
ATOM     24  N   UNL     1       0.002  -0.004   0.002  0.00  0.00    -0.022 NA
ATOM     25  N   UNL     1       1.216  -0.437  -0.012  0.00  0.00    -0.038 NA
BRANCH  21  29
ATOM     26  C   UNL     1       6.220   0.760  -0.052  0.00  0.00    +0.000 A 
ATOM     27  C   UNL     1       5.553  -0.236   0.636  0.00  0.00    +0.002 A 
ATOM     28  C   UNL     1       4.172  -0.261   0.650  0.00  0.00    +0.028 A 
ATOM     29  C   UNL     1       3.454   0.716  -0.027  0.00  0.00    +0.070 A 
ATOM     30  C   UNL     1       4.127   1.712  -0.721  0.00  0.00    +0.028 A 
ATOM     31  C   UNL     1       5.508   1.734  -0.728  0.00  0.00    +0.002 A 
ENDBRANCH  21  29
ENDBRANCH  20  22
ENDBRANCH  19  20
ENDBRANCH   1  19
TORSDOF 7
