REMARK  Name = ZINC10259893
REMARK  8 active torsions:
REMARK  status: ('A' for Active; 'I' for Inactive)
REMARK    1  A    between atoms: C_1  and  C_2
REMARK    2  A    between atoms: C_2  and  C_4
REMARK    3  A    between atoms: C_2  and  N_13
REMARK    4  A    between atoms: N_16  and  N_17
REMARK    5  A    between atoms: C_18  and  C_20
REMARK    6  A    between atoms: C_23  and  C_25
REMARK    7  A    between atoms: C_25  and  O_26
REMARK    8  A    between atoms: O_26  and  C_27
REMARK                            x       y       z     vdW  Elec       q    Type
REMARK                         _______ _______ _______ _____ _____    ______ ____
ROOT
ATOM      1  N   UNL     1       0.711  -0.489   1.189  0.00  0.00    -0.289 N 
ATOM      2  C   UNL     1       0.051  -0.633   2.355  0.00  0.00    +0.317 C 
ATOM      3  O   UNL     1      -1.132  -0.361   2.423  0.00  0.00    -0.251 OA
ATOM      4  N   UNL     1       0.703  -1.080   3.447  0.00  0.00    -0.218 N 
ATOM      5  H   UNL     1       1.654  -0.707   1.135  0.00  0.00    +0.151 HD
ATOM      6  H   UNL     1       0.229  -1.184   4.287  0.00  0.00    +0.174 HD
ENDROOT
BRANCH   4   7
ATOM      7  N   UNL     1       2.066  -1.394   3.370  0.00  0.00    -0.227 N 
ATOM      8  C   UNL     1       2.718  -1.841   4.462  0.00  0.00    +0.295 C 
ATOM      9  O   UNL     1       2.123  -1.971   5.515  0.00  0.00    -0.265 OA
ATOM     10  H   UNL     1       2.541  -1.290   2.530  0.00  0.00    +0.173 HD
BRANCH   8  11
ATOM     11  C   UNL     1       4.145  -2.170   4.380  0.00  0.00    +0.191 A 
ATOM     12  C   UNL     1       4.921  -2.634   5.403  0.00  0.00    +0.055 A 
ATOM     13  C   UNL     1       6.212  -2.813   4.882  0.00  0.00    +0.049 A 
ATOM     14  C   UNL     1       6.168  -2.454   3.580  0.00  0.00    +0.143 A 
ATOM     15  O   UNL     1       4.920  -2.072   3.280  0.00  0.00    -0.452 OA
BRANCH  14  16
ATOM     16  C   UNL     1       7.331  -2.483   2.622  0.00  0.00    +0.303 C 
BRANCH  16  17
ATOM     17  O   UNL     1       7.386  -3.759   1.980  0.00  0.00    -0.484 OA
BRANCH  17  18
ATOM     18  C   UNL     1       8.385  -3.953   1.079  0.00  0.00    +0.121 A 
ATOM     19  C   UNL     1       9.295  -2.939   0.822  0.00  0.00    +0.045 A 
ATOM     20  C   UNL     1      10.310  -3.139  -0.095  0.00  0.00    +0.004 A 
ATOM     21  C   UNL     1      10.417  -4.348  -0.756  0.00  0.00    +0.000 A 
ATOM     22  C   UNL     1       9.511  -5.361  -0.501  0.00  0.00    +0.004 A 
ATOM     23  C   UNL     1       8.498  -5.168   0.419  0.00  0.00    +0.045 A 
ENDBRANCH  17  18
ENDBRANCH  16  17
ENDBRANCH  14  16
ENDBRANCH   8  11
ENDBRANCH   4   7
BRANCH   1  25
ATOM     24  C   UNL     1      -0.019   1.526   0.010  0.00  0.00    +0.036 C 
ATOM     25  C   UNL     1       0.002  -0.004   0.002  0.00  0.00    +0.137 C 
BRANCH  25  26
ATOM     26  C   UNL     1       0.707  -0.490  -1.238  0.00  0.00    +0.126 A 
ATOM     27  C   UNL     1       0.096  -0.923  -2.349  0.00  0.00    +0.055 A 
ATOM     28  C   UNL     1       1.163  -1.291  -3.287  0.00  0.00    +0.020 A 
ATOM     29  C   UNL     1       1.188  -1.799  -4.585  0.00  0.00    +0.011 A 
ATOM     30  C   UNL     1       2.387  -2.040  -5.196  0.00  0.00    +0.001 A 
ATOM     31  C   UNL     1       3.578  -1.783  -4.531  0.00  0.00    +0.004 A 
ATOM     32  C   UNL     1       3.573  -1.281  -3.248  0.00  0.00    +0.047 A 
ATOM     33  C   UNL     1       2.365  -1.028  -2.609  0.00  0.00    +0.135 A 
ATOM     34  O   UNL     1       2.042  -0.547  -1.392  0.00  0.00    -0.458 OA
ENDBRANCH  25  26
ENDBRANCH   1  25
TORSDOF 7
