REMARK  Name = ZINC39334954
REMARK  5 active torsions:
REMARK  status: ('A' for Active; 'I' for Inactive)
REMARK    1  A    between atoms: C_1  and  C_2
REMARK    2  A    between atoms: C_2  and  C_3
REMARK    3  A    between atoms: C_5  and  C_17
REMARK    4  A    between atoms: C_7  and  C_15
REMARK    5  A    between atoms: C_8  and  N_14
REMARK                            x       y       z     vdW  Elec       q    Type
REMARK                         _______ _______ _______ _____ _____    ______ ____
ROOT
ATOM      1  C   UNL     1      -1.412  -0.526   0.013  0.00  0.00    +0.068 C 
ATOM      2  C   UNL     1      -2.091  -0.872  -1.054  0.00  0.00    +0.025 C 
ATOM      3  C   UNL     1      -1.734  -1.014  -2.509  0.00  0.00    +0.065 C 
ATOM      4  C   UNL     1      -2.408  -2.293  -2.970  0.00  0.00    +0.093 C 
ATOM      5  C   UNL     1      -3.287  -2.953  -2.188  0.00  0.00    +0.195 C 
ATOM      6  O   UNL     1      -3.663  -2.618  -0.940  0.00  0.00    -0.448 OA
ATOM      7  C   UNL     1      -3.476  -1.259  -0.537  0.00  0.00    +0.342 C 
ATOM      8  N   UNL     1      -3.307  -1.130   0.914  0.00  0.00    -0.138 NA
ATOM      9  N   UNL     1      -2.163  -0.710   1.129  0.00  0.00    -0.155 NA
ATOM     10  C   UNL     1      -2.265   0.182  -3.302  0.00  0.00    +0.018 C 
ENDROOT
BRANCH   5  11
ATOM     11  N   UNL     1      -3.858  -4.082  -2.720  0.00  0.00    -0.329 N 
ATOM     12  H   UNL     1      -3.622  -4.368  -3.616  0.00  0.00    +0.145 HD
ATOM     13  H   UNL     1      -4.497  -4.594  -2.200  0.00  0.00    +0.145 HD
ENDBRANCH   5  11
BRANCH   1  15
ATOM     14  C   UNL     1      -0.019   1.526   0.010  0.00  0.00    +0.010 C 
ATOM     15  C   UNL     1       0.002  -0.004   0.002  0.00  0.00    +0.054 C 
ENDBRANCH   1  15
BRANCH   4  16
ATOM     16  C   UNL     1      -2.103  -2.812  -4.269  0.00  0.00    +0.100 C 
ATOM     17  N   UNL     1      -1.861  -3.225  -5.300  0.00  0.00    -0.191 NA
ENDBRANCH   4  16
TORSDOF 3
