REMARK  Name = ZINC39325483
REMARK  10 active torsions:
REMARK  status: ('A' for Active; 'I' for Inactive)
REMARK    1  A    between atoms: C_1  and  C_2
REMARK    2  A    between atoms: C_8  and  C_14
REMARK    3  A    between atoms: C_14  and  N_15
REMARK    4  A    between atoms: N_15  and  C_16
REMARK    5  A    between atoms: N_15  and  S_24
REMARK    6  A    between atoms: C_16  and  C_17
REMARK    7  A    between atoms: S_24  and  C_27
REMARK    8  A    between atoms: C_31  and  C_33
REMARK    9  A    between atoms: C_33  and  O_35
REMARK   10  A    between atoms: O_35  and  C_36
REMARK                            x       y       z     vdW  Elec       q    Type
REMARK                         _______ _______ _______ _____ _____    ______ ____
ROOT
ATOM      1  N   UNL     1      -1.090  -2.071   5.790  0.00  0.00    -0.171 NA
ENDROOT
BRANCH   1   2
ATOM      2  S   UNL     1      -0.255  -2.909   6.949  0.00  0.00    +0.061 S 
ATOM      3  O   UNL     1      -0.722  -2.438   8.205  0.00  0.00    -0.153 OA
ATOM      4  O   UNL     1      -0.313  -4.280   6.580  0.00  0.00    -0.153 OA
BRANCH   2   5
ATOM      5  C   UNL     1       1.435  -2.425   6.825  0.00  0.00    +0.106 A 
ATOM      6  C   UNL     1       2.292  -3.119   5.990  0.00  0.00    +0.028 A 
ATOM      7  C   UNL     1       3.620  -2.746   5.887  0.00  0.00    +0.003 A 
ATOM      8  C   UNL     1       4.099  -1.679   6.618  0.00  0.00    +0.015 A 
ATOM      9  C   UNL     1       3.240  -0.974   7.463  0.00  0.00    +0.061 A 
ATOM     10  C   UNL     1       1.898  -1.352   7.557  0.00  0.00    +0.043 A 
BRANCH   9  11
ATOM     11  C   UNL     1       3.745   0.170   8.249  0.00  0.00    +0.339 C 
ATOM     12  O   UNL     1       2.994   0.781   8.983  0.00  0.00    -0.245 OA
BRANCH  11  13
ATOM     13  O   UNL     1       5.038   0.536   8.152  0.00  0.00    -0.464 OA
ATOM     14  C   UNL     1       5.458   1.651   8.940  0.00  0.00    +0.280 C 
ENDBRANCH  11  13
ENDBRANCH   9  11
ENDBRANCH   2   5
ENDBRANCH   1   2
BRANCH   1  15
ATOM     15  C   UNL     1      -1.251  -2.639   4.449  0.00  0.00    +0.126 C 
BRANCH  15  23
ATOM     16  C   UNL     1       0.155   1.584   0.222  0.00  0.00    +0.045 C 
ATOM     17  C   UNL     1      -0.017   0.090   0.121  0.00  0.00    -0.029 A 
ATOM     18  C   UNL     1      -0.169  -0.490  -1.098  0.00  0.00    +0.005 A 
ATOM     19  C   UNL     1      -0.332  -1.866  -1.262  0.00  0.00    +0.001 A 
ATOM     20  C   UNL     1      -0.347  -2.708  -0.197  0.00  0.00    +0.009 A 
ATOM     21  C   UNL     1      -0.189  -2.150   1.147  0.00  0.00    -0.007 A 
ATOM     22  C   UNL     1      -0.199  -2.956   2.245  0.00  0.00    -0.003 C 
ATOM     23  C   UNL     1      -0.028  -2.292   3.597  0.00  0.00    +0.114 C 
ATOM     24  C   UNL     1       0.138  -0.789   3.617  0.00  0.00    +0.225 C 
ATOM     25  O   UNL     1       0.279  -0.204   4.674  0.00  0.00    -0.275 OA
ATOM     26  N   UNL     1       0.131  -0.113   2.480  0.00  0.00    -0.284 N 
ATOM     27  C   UNL     1      -0.013  -0.694   1.289  0.00  0.00    +0.043 A 
ATOM     28  H   UNL     1       0.239   0.850   2.515  0.00  0.00    +0.155 HD
ENDBRANCH  15  23
ENDBRANCH   1  15
BRANCH   1  29
ATOM     29  C   UNL     1      -1.667  -0.762   6.105  0.00  0.00    +0.144 C 
BRANCH  29  30
ATOM     30  C   UNL     1      -3.102  -0.936   6.532  0.00  0.00    -0.031 A 
ATOM     31  C   UNL     1      -4.113  -0.903   5.590  0.00  0.00    +0.008 A 
ATOM     32  C   UNL     1      -5.428  -1.062   5.981  0.00  0.00    +0.038 A 
ATOM     33  C   UNL     1      -5.734  -1.255   7.317  0.00  0.00    +0.123 A 
ATOM     34  C   UNL     1      -4.721  -1.288   8.261  0.00  0.00    +0.038 A 
ATOM     35  C   UNL     1      -3.406  -1.133   7.867  0.00  0.00    +0.008 A 
ATOM     36  F   UNL     1      -7.021  -1.411   7.701  0.00  0.00    -0.205 F 
ENDBRANCH  29  30
ENDBRANCH   1  29
TORSDOF 8
