REMARK  Name = ZINC12202537
REMARK  8 active torsions:
REMARK  status: ('A' for Active; 'I' for Inactive)
REMARK    1  A    between atoms: C_1  and  C_2
REMARK    2  A    between atoms: C_6  and  C_14
REMARK    3  A    between atoms: C_7  and  C_13
REMARK    4  A    between atoms: C_11  and  C_12
REMARK    5  A    between atoms: C_14  and  C_15
REMARK    6  A    between atoms: N_17  and  C_18
REMARK    7  A    between atoms: C_18  and  C_19
REMARK    8  A    between atoms: C_21  and  C_24
REMARK                            x       y       z     vdW  Elec       q    Type
REMARK                         _______ _______ _______ _____ _____    ______ ____
ROOT
ATOM      1  C   UNL     1      -0.718   1.572   1.248  0.00  0.00    +0.218 C 
ATOM      2  O   UNL     1      -1.714   2.256   1.150  0.00  0.00    -0.275 OA
ATOM      3  N   UNL     1      -0.242   1.246   2.466  0.00  0.00    -0.306 N 
ATOM      4  H   UNL     1       0.555   0.699   2.544  0.00  0.00    +0.149 HD
ENDROOT
BRANCH   1   5
ATOM      5  C   UNL     1      -0.013   1.086   0.008  0.00  0.00    +0.133 C 
BRANCH   5  11
ATOM      6  C   UNL     1      -0.537   6.183  -4.584  0.00  0.00    +0.044 C 
ATOM      7  C   UNL     1      -0.529   5.002  -3.649  0.00  0.00    -0.046 A 
ATOM      8  C   UNL     1       0.373   4.966  -2.594  0.00  0.00    +0.004 A 
ATOM      9  C   UNL     1       0.395   3.903  -1.736  0.00  0.00    +0.010 A 
ATOM     10  C   UNL     1      -0.496   2.844  -1.920  0.00  0.00    +0.004 A 
ATOM     11  C   UNL     1      -0.742   1.585  -1.213  0.00  0.00    -0.011 A 
ATOM     12  C   UNL     1      -1.735   0.957  -1.862  0.00  0.00    +0.018 A 
ATOM     13  N   UNL     1      -2.152   1.716  -2.922  0.00  0.00    -0.358 N 
ATOM     14  H   UNL     1      -2.861   1.472  -3.537  0.00  0.00    +0.166 HD
ATOM     15  C   UNL     1      -1.412   2.876  -2.987  0.00  0.00    +0.050 A 
ATOM     16  C   UNL     1      -1.417   3.968  -3.849  0.00  0.00    -0.024 A 
ATOM     17  C   UNL     1      -2.391   4.019  -4.998  0.00  0.00    +0.046 C 
ATOM     18  C   UNL     1      -2.308  -0.383  -1.479  0.00  0.00    +0.063 C 
ENDBRANCH   5  11
ENDBRANCH   1   5
BRANCH   3  19
ATOM     19  C   UNL     1      -0.927   1.718   3.671  0.00  0.00    +0.203 C 
BRANCH  19  20
ATOM     20  C   UNL     1      -0.198   1.219   4.892  0.00  0.00    +0.245 A 
ATOM     21  N   UNL     1       0.774   1.830   5.521  0.00  0.00    -0.190 NA
ATOM     22  C   UNL     1       1.112   1.015   6.546  0.00  0.00    +0.202 A 
ATOM     23  N   UNL     1       0.333  -0.033   6.479  0.00  0.00    -0.056 NA
ATOM     24  O   UNL     1      -0.427   0.072   5.540  0.00  0.00    -0.336 OA
BRANCH  22  25
ATOM     25  C   UNL     1       2.170   1.263   7.557  0.00  0.00    +0.022 A 
ATOM     26  C   UNL     1       2.932   2.428   7.500  0.00  0.00    +0.012 A 
ATOM     27  C   UNL     1       3.911   2.656   8.446  0.00  0.00    +0.001 A 
ATOM     28  C   UNL     1       4.144   1.725   9.442  0.00  0.00    +0.000 A 
ATOM     29  C   UNL     1       3.395   0.564   9.500  0.00  0.00    +0.001 A 
ATOM     30  C   UNL     1       2.409   0.329   8.562  0.00  0.00    +0.012 A 
ENDBRANCH  22  25
ENDBRANCH  19  20
ENDBRANCH   3  19
TORSDOF 5
