REMARK  Name = ZINC18197602
REMARK  4 active torsions:
REMARK  status: ('A' for Active; 'I' for Inactive)
REMARK    1  A    between atoms: C_3  and  C_6
REMARK    2  A    between atoms: C_11  and  C_19
REMARK    3  A    between atoms: C_22  and  O_26
REMARK    4  A    between atoms: C_23  and  O_25
REMARK                            x       y       z     vdW  Elec       q    Type
REMARK                         _______ _______ _______ _____ _____    ______ ____
ROOT
ATOM      1  C   UNL     1       1.283  -0.480  -0.692  0.00  0.00    +0.039 C 
ATOM      2  C   UNL     1       2.481   0.131   0.038  0.00  0.00    +0.060 C 
ATOM      3  C   UNL     1       2.376   1.638   0.016  0.00  0.00    +0.020 C 
ATOM      4  C   UNL     1       1.172   2.249   0.003  0.00  0.00    +0.041 C 
ATOM      5  C   UNL     1       1.035   3.755  -0.026  0.00  0.00    +0.176 C 
ATOM      6  N   UNL     1       2.313   4.378   0.295  0.00  0.00    -0.221 N 
ATOM      7  C   UNL     1       3.490   3.704   0.306  0.00  0.00    +0.218 A 
ATOM      8  N   UNL     1       4.434   4.548   0.620  0.00  0.00    -0.201 NA
ATOM      9  C   UNL     1       3.904   5.759   0.821  0.00  0.00    +0.247 A 
ATOM     10  N   UNL     1       2.608   5.698   0.633  0.00  0.00    -0.156 NA
ATOM     11  N   UNL     1       3.550   2.351   0.017  0.00  0.00    -0.287 N 
ATOM     12  C   UNL     1      -0.018   1.499   0.010  0.00  0.00    +0.164 C 
ATOM     13  O   UNL     1      -1.086   2.079   0.018  0.00  0.00    -0.292 OA
ATOM     14  C   UNL     1       0.002  -0.004   0.002  0.00  0.00    +0.088 C 
ATOM     15  H   UNL     1       4.397   1.920  -0.179  0.00  0.00    +0.155 HD
ENDROOT
BRANCH   5  16
ATOM     16  C   UNL     1       0.597   4.192  -1.400  0.00  0.00    -0.015 A 
ATOM     17  C   UNL     1       1.391   3.915  -2.497  0.00  0.00    +0.010 A 
ATOM     18  C   UNL     1       0.993   4.312  -3.760  0.00  0.00    +0.049 A 
ATOM     19  C   UNL     1      -0.204   4.990  -3.928  0.00  0.00    +0.158 A 
ATOM     20  C   UNL     1      -1.003   5.269  -2.824  0.00  0.00    +0.159 A 
ATOM     21  C   UNL     1      -0.601   4.863  -1.561  0.00  0.00    +0.055 A 
BRANCH  20  22
ATOM     22  O   UNL     1      -2.178   5.934  -2.983  0.00  0.00    -0.503 OA
ATOM     23  H   UNL     1      -2.939   5.357  -3.139  0.00  0.00    +0.292 HD
ENDBRANCH  20  22
BRANCH  19  24
ATOM     24  O   UNL     1      -0.597   5.382  -5.170  0.00  0.00    -0.503 OA
ATOM     25  H   UNL     1      -1.131   4.726  -5.639  0.00  0.00    +0.292 HD
ENDBRANCH  19  24
ENDBRANCH   5  16
BRANCH   1  28
ATOM     26  C   UNL     1       1.490  -4.225  -1.357  0.00  0.00    +0.008 A 
ATOM     27  C   UNL     1       1.413  -2.876  -1.651  0.00  0.00    +0.011 A 
ATOM     28  C   UNL     1       1.365  -1.983  -0.633  0.00  0.00    -0.006 A 
ATOM     29  S   UNL     1       1.415  -3.051   0.797  0.00  0.00    -0.101 S 
ATOM     30  C   UNL     1       1.504  -4.615  -0.059  0.00  0.00    +0.045 A 
ENDBRANCH   1  28
TORSDOF 4
