REMARK  Name = ZINC39856171
REMARK  7 active torsions:
REMARK  status: ('A' for Active; 'I' for Inactive)
REMARK    1  A    between atoms: C_1  and  C_2
REMARK    2  A    between atoms: C_6  and  C_7
REMARK    3  A    between atoms: C_20  and  C_28
REMARK    4  A    between atoms: C_20  and  C_29
REMARK    5  A    between atoms: N_23  and  N_24
REMARK    6  A    between atoms: N_24  and  C_25
REMARK    7  A    between atoms: C_25  and  N_27
REMARK                            x       y       z     vdW  Elec       q    Type
REMARK                         _______ _______ _______ _____ _____    ______ ____
ROOT
ATOM      1  C   UNL     1      -0.110   1.479  -0.004  0.00  0.00    +0.048 C 
ATOM      2  C   UNL     1       0.060  -0.018  -0.000  0.00  0.00    +0.009 A 
ATOM      3  C   UNL     1       0.192  -0.852  -1.117  0.00  0.00    +0.042 A 
ATOM      4  C   UNL     1       0.322  -2.141  -0.657  0.00  0.00    +0.116 A 
ATOM      5  O   UNL     1       0.276  -2.110   0.673  0.00  0.00    -0.454 OA
ATOM      6  C   UNL     1       0.121  -0.835   1.095  0.00  0.00    +0.193 A 
ATOM      7  C   UNL     1       0.482  -3.327  -1.574  0.00  0.00    +0.081 C 
ATOM      8  C   UNL     1      -0.028  -2.963  -2.970  0.00  0.00    -0.023 C 
ATOM      9  C   UNL     1       0.637  -1.677  -3.471  0.00  0.00    +0.064 C 
ATOM     10  C   UNL     1       0.208  -0.534  -2.563  0.00  0.00    +0.070 C 
ATOM     11  N   UNL     1      -0.121   0.634  -3.022  0.00  0.00    -0.185 NA
ATOM     12  C   UNL     1       0.291  -4.105  -3.938  0.00  0.00    +0.011 C 
ATOM     13  C   UNL     1      -1.544  -2.759  -2.916  0.00  0.00    +0.011 C 
ENDROOT
BRANCH   6  14
ATOM     14  C   UNL     1       0.031  -0.400   2.493  0.00  0.00    +0.286 C 
ATOM     15  O   UNL     1       0.028   0.787   2.763  0.00  0.00    -0.266 OA
ATOM     16  N   UNL     1      -0.048  -1.315   3.480  0.00  0.00    -0.265 N 
ATOM     17  C   UNL     1      -0.026  -2.751   3.170  0.00  0.00    +0.114 C 
ATOM     18  C   UNL     1      -1.122  -3.428   4.003  0.00  0.00    +0.024 C 
ATOM     19  C   UNL     1      -0.788  -3.263   5.486  0.00  0.00    +0.038 C 
ATOM     20  C   UNL     1      -0.508  -1.818   5.806  0.00  0.00    -0.026 A 
ATOM     21  C   UNL     1      -0.148  -0.913   4.818  0.00  0.00    +0.040 A 
ATOM     22  C   UNL     1       0.114   0.412   5.148  0.00  0.00    +0.024 A 
ATOM     23  C   UNL     1       0.017   0.829   6.460  0.00  0.00    +0.002 A 
ATOM     24  C   UNL     1      -0.339  -0.072   7.446  0.00  0.00    +0.000 A 
ATOM     25  C   UNL     1      -0.608  -1.391   7.119  0.00  0.00    +0.005 A 
ENDBRANCH   6  14
BRANCH  11  26
ATOM     26  N   UNL     1      -0.088   0.879  -4.401  0.00  0.00    -0.218 N 
ATOM     27  H   UNL     1       0.181   0.176  -5.012  0.00  0.00    +0.176 HD
BRANCH  26  28
ATOM     28  C   UNL     1      -0.429   2.093  -4.878  0.00  0.00    +0.147 C 
ATOM     29  S   UNL     1      -0.389   2.393  -6.562  0.00  0.00    -0.017 S 
BRANCH  28  30
ATOM     30  N   UNL     1      -0.803   3.070  -4.028  0.00  0.00    -0.339 N 
ATOM     31  H   UNL     1      -0.826   2.900  -3.073  0.00  0.00    +0.144 HD
ATOM     32  H   UNL     1      -1.048   3.943  -4.371  0.00  0.00    +0.144 HD
ENDBRANCH  28  30
ENDBRANCH  26  28
ENDBRANCH  11  26
TORSDOF 4
