REMARK  Name = ZINC59310140
REMARK  8 active torsions:
REMARK  status: ('A' for Active; 'I' for Inactive)
REMARK    1  A    between atoms: C_1  and  C_2
REMARK    2  A    between atoms: C_2  and  C_4
REMARK    3  A    between atoms: C_7  and  N_10
REMARK    4  A    between atoms: C_11  and  C_13
REMARK    5  A    between atoms: C_13  and  S_14
REMARK    6  A    between atoms: S_14  and  C_15
REMARK    7  A    between atoms: N_20  and  N_21
REMARK    8  A    between atoms: C_22  and  C_23
REMARK                            x       y       z     vdW  Elec       q    Type
REMARK                         _______ _______ _______ _____ _____    ______ ____
ROOT
ATOM      1  C   UNL     1      -7.354  -7.505  -0.477  0.00  0.00    +0.211 A 
ATOM      2  N   UNL     1      -7.595  -8.817  -0.570  0.00  0.00    -0.186 NA
ATOM      3  C   UNL     1      -8.893  -9.027  -0.619  0.00  0.00    +0.232 A 
ATOM      4  N   UNL     1      -9.512  -7.828  -0.557  0.00  0.00    -0.245 N 
ATOM      5  N   UNL     1      -8.498  -6.862  -0.460  0.00  0.00    -0.144 NA
ATOM      6  N   UNL     1      -9.515 -10.258  -0.717  0.00  0.00    -0.205 N 
ATOM      7  H   UNL     1     -10.483 -10.312  -0.747  0.00  0.00    +0.177 HD
ATOM      8  H   UNL     1     -10.468  -7.667  -0.572  0.00  0.00    +0.192 HD
ENDROOT
BRANCH   6   9
ATOM      9  N   UNL     1      -8.746 -11.428  -0.773  0.00  0.00    -0.188 NA
ATOM     10  C   UNL     1      -9.331 -12.588  -0.866  0.00  0.00    +0.139 C 
BRANCH  10  11
ATOM     11  C   UNL     1      -8.527 -13.811  -0.924  0.00  0.00    +0.010 A 
ATOM     12  C   UNL     1      -9.143 -15.059  -1.151  0.00  0.00    -0.009 A 
ATOM     13  C   UNL     1     -10.534 -15.161  -1.326  0.00  0.00    +0.009 A 
ATOM     14  C   UNL     1     -11.097 -16.380  -1.544  0.00  0.00    +0.001 A 
ATOM     15  C   UNL     1     -10.328 -17.541  -1.599  0.00  0.00    +0.001 A 
ATOM     16  C   UNL     1      -8.979 -17.512  -1.438  0.00  0.00    +0.008 A 
ATOM     17  C   UNL     1      -8.333 -16.278  -1.209  0.00  0.00    -0.017 A 
ATOM     18  C   UNL     1      -6.949 -16.213  -1.040  0.00  0.00    +0.017 A 
ATOM     19  C   UNL     1      -6.332 -14.982  -0.815  0.00  0.00    -0.017 A 
ATOM     20  C   UNL     1      -7.128 -13.754  -0.760  0.00  0.00    -0.009 A 
ATOM     21  C   UNL     1      -6.473 -12.530  -0.537  0.00  0.00    +0.009 A 
ATOM     22  C   UNL     1      -5.122 -12.510  -0.383  0.00  0.00    +0.001 A 
ATOM     23  C   UNL     1      -4.361 -13.677  -0.440  0.00  0.00    +0.001 A 
ATOM     24  C   UNL     1      -4.934 -14.892  -0.641  0.00  0.00    +0.008 A 
ENDBRANCH  10  11
ENDBRANCH   6   9
BRANCH   1  25
ATOM     25  S   UNL     1      -5.760  -6.760  -0.385  0.00  0.00    -0.075 S 
BRANCH  25  26
ATOM     26  C   UNL     1      -6.111  -4.984  -0.268  0.00  0.00    +0.173 C 
BRANCH  26  28
ATOM     27  N   UNL     1      -4.830  -2.876  -0.088  0.00  0.00    -0.285 N 
ATOM     28  C   UNL     1      -4.815  -4.221  -0.182  0.00  0.00    +0.227 C 
ATOM     29  O   UNL     1      -3.758  -4.816  -0.198  0.00  0.00    -0.275 OA
ATOM     30  H   UNL     1      -5.673  -2.406   0.002  0.00  0.00    +0.155 HD
BRANCH  27  34
ATOM     31  C   UNL     1      -1.258  -0.744  -0.182  0.00  0.00    +0.017 A 
ATOM     32  C   UNL     1      -1.393  -1.923  -0.926  0.00  0.00    +0.013 A 
ATOM     33  C   UNL     1      -2.571  -2.622  -0.892  0.00  0.00    +0.024 A 
ATOM     34  C   UNL     1      -3.634  -2.162  -0.119  0.00  0.00    +0.033 A 
ATOM     35  C   UNL     1      -3.505  -0.991   0.622  0.00  0.00    +0.024 A 
ATOM     36  C   UNL     1      -2.328  -0.288   0.599  0.00  0.00    +0.013 A 
BRANCH  31  38
ATOM     37  C   UNL     1       1.152  -0.485  -1.055  0.00  0.00    +0.091 C 
ATOM     38  C   UNL     1       0.003   0.008  -0.215  0.00  0.00    +0.160 C 
ATOM     39  O   UNL     1       0.118   1.026   0.435  0.00  0.00    -0.292 OA
ENDBRANCH  31  38
ENDBRANCH  27  34
ENDBRANCH  26  28
ENDBRANCH  25  26
ENDBRANCH   1  25
TORSDOF 7
