REMARK  Name = ZINC01942816
REMARK  10 active torsions:
REMARK  status: ('A' for Active; 'I' for Inactive)
REMARK    1  A    between atoms: C_1  and  C_2
REMARK    2  A    between atoms: C_2  and  O_3
REMARK    3  A    between atoms: O_3  and  C_4
REMARK    4  A    between atoms: C_4  and  C_6
REMARK    5  A    between atoms: C_10  and  N_11
REMARK    6  A    between atoms: C_12  and  C_14
REMARK    7  A    between atoms: C_14  and  N_15
REMARK    8  A    between atoms: C_22  and  C_26
REMARK    9  A    between atoms: C_23  and  C_25
REMARK   10  A    between atoms: C_29  and  C_32
REMARK                            x       y       z     vdW  Elec       q    Type
REMARK                         _______ _______ _______ _____ _____    ______ ____
ROOT
ATOM      1  C   UNL     1      -2.072   1.437   7.290  0.00  0.00    +0.222 C 
ENDROOT
BRANCH   1   2
ATOM      2  N   UNL     1      -2.989   2.303   8.034  0.00  0.00    -0.290 N 
ATOM      3  C   UNL     1      -4.292   1.942   8.158  0.00  0.00    +0.203 A 
ATOM      4  N   UNL     1      -5.140   2.688   8.815  0.00  0.00    -0.230 NA
ATOM      5  C   UNL     1      -4.754   3.826   9.384  0.00  0.00    +0.116 A 
ATOM      6  C   UNL     1      -3.427   4.281   9.309  0.00  0.00    +0.080 A 
ATOM      7  C   UNL     1      -2.523   3.438   8.587  0.00  0.00    +0.263 A 
ATOM      8  O   UNL     1      -1.349   3.746   8.471  0.00  0.00    -0.267 OA
ATOM      9  C   UNL     1      -3.169   5.547   9.985  0.00  0.00    +0.007 A 
ATOM     10  C   UNL     1      -4.193   6.170  10.615  0.00  0.00    -0.003 A 
ATOM     11  S   UNL     1      -5.575   5.081  10.332  0.00  0.00    -0.073 S 
ATOM     12  C   UNL     1      -4.170   7.472  11.374  0.00  0.00    +0.052 C 
BRANCH   9  13
ATOM     13  C   UNL     1      -1.810   6.141   9.982  0.00  0.00    -0.016 A 
ATOM     14  C   UNL     1      -1.233   6.562   8.785  0.00  0.00    +0.009 A 
ATOM     15  C   UNL     1       0.030   7.118   8.790  0.00  0.00    +0.004 A 
ATOM     16  C   UNL     1       0.727   7.249   9.977  0.00  0.00    -0.050 A 
ATOM     17  C   UNL     1       0.161   6.828  11.168  0.00  0.00    +0.004 A 
ATOM     18  C   UNL     1      -1.103   6.275  11.176  0.00  0.00    +0.009 A 
ATOM     19  C   UNL     1       2.108   7.852   9.975  0.00  0.00    +0.044 C 
ENDBRANCH   9  13
ENDBRANCH   1   2
BRANCH   1  21
ATOM     20  N   UNL     1      -1.289   1.180   4.958  0.00  0.00    -0.278 N 
ATOM     21  C   UNL     1      -2.065   1.842   5.838  0.00  0.00    +0.238 C 
ATOM     22  O   UNL     1      -2.759   2.763   5.463  0.00  0.00    -0.273 OA
ATOM     23  H   UNL     1      -0.734   0.443   5.258  0.00  0.00    +0.155 HD
BRANCH  20  28
ATOM     24  C   UNL     1      -0.558   0.998   2.576  0.00  0.00    +0.091 A 
ATOM     25  C   UNL     1      -0.732   1.580   1.257  0.00  0.00    -0.021 A 
ATOM     26  C   UNL     1      -1.601   2.614   1.194  0.00  0.00    -0.004 A 
ATOM     27  S   UNL     1      -2.178   2.821   2.855  0.00  0.00    -0.077 S 
ATOM     28  C   UNL     1      -1.283   1.552   3.623  0.00  0.00    +0.086 A 
ATOM     29  C   UNL     1      -1.979   3.405  -0.021  0.00  0.00    +0.043 C 
ATOM     30  C   UNL     1      -0.956   3.111  -1.127  0.00  0.00    +0.005 C 
ATOM     31  C   UNL     1      -0.758   1.595  -1.227  0.00  0.00    +0.005 C 
ATOM     32  C   UNL     1      -0.013   1.086   0.008  0.00  0.00    +0.037 C 
BRANCH  24  33
ATOM     33  C   UNL     1       0.350  -0.130   2.793  0.00  0.00    +0.342 C 
ATOM     34  O   UNL     1      -0.061  -1.270   2.694  0.00  0.00    -0.245 OA
BRANCH  33  35
ATOM     35  O   UNL     1       1.643   0.096   3.104  0.00  0.00    -0.461 OA
BRANCH  35  37
ATOM     36  C   UNL     1       3.907  -0.617   3.648  0.00  0.00    +0.048 C 
ATOM     37  C   UNL     1       2.486  -1.069   3.306  0.00  0.00    +0.229 C 
ENDBRANCH  35  37
ENDBRANCH  33  35
ENDBRANCH  24  33
ENDBRANCH  20  28
ENDBRANCH   1  21
TORSDOF 7
