REMARK  Name = ZINC16503666
REMARK  13 active torsions:
REMARK  status: ('A' for Active; 'I' for Inactive)
REMARK    1  A    between atoms: C_1  and  C_2
REMARK    2  A    between atoms: C_2  and  C_3
REMARK    3  A    between atoms: C_3  and  C_4
REMARK    4  A    between atoms: C_4  and  N_5
REMARK    5  A    between atoms: N_5  and  C_6
REMARK    6  A    between atoms: C_6  and  C_7
REMARK    7  A    between atoms: C_17  and  C_19
REMARK    8  A    between atoms: C_22  and  C_25
REMARK    9  A    between atoms: C_25  and  C_26
REMARK   10  A    between atoms: C_25  and  C_27
REMARK   11  A    between atoms: C_25  and  C_28
REMARK   12  A    between atoms: C_29  and  C_31
REMARK   13  A    between atoms: C_35  and  N_37
REMARK                            x       y       z     vdW  Elec       q    Type
REMARK                         _______ _______ _______ _____ _____    ______ ____
ROOT
ATOM      1  C   UNL     1       1.560   7.941   1.447  0.00  0.00    +0.234 C 
ATOM      2  O   UNL     1       1.544   7.178   2.390  0.00  0.00    -0.274 OA
ATOM      3  N   UNL     1       1.335   9.256   1.641  0.00  0.00    -0.289 N 
ATOM      4  C   UNL     1       1.272  10.178   0.498  0.00  0.00    +0.114 C 
ATOM      5  C   UNL     1      -0.160  10.745   0.421  0.00  0.00    +0.062 C 
ATOM      6  C   UNL     1      -0.609  11.099   1.801  0.00  0.00    -0.003 A 
ATOM      7  C   UNL     1      -0.067  10.703   2.984  0.00  0.00    -0.012 A 
ATOM      8  C   UNL     1      -0.683  11.173   4.143  0.00  0.00    +0.013 A 
ATOM      9  C   UNL     1      -1.762  11.984   4.054  0.00  0.00    +0.046 A 
ATOM     10  S   UNL     1      -1.970  12.127   2.286  0.00  0.00    -0.101 S 
ATOM     11  C   UNL     1       1.157   9.789   2.999  0.00  0.00    +0.137 C 
ENDROOT
BRANCH  11  12
ATOM     12  C   UNL     1       0.937   8.655   3.967  0.00  0.00    -0.023 A 
ATOM     13  C   UNL     1      -0.216   7.897   3.894  0.00  0.00    +0.006 A 
ATOM     14  C   UNL     1      -0.415   6.854   4.779  0.00  0.00    +0.004 A 
ATOM     15  C   UNL     1       0.534   6.576   5.745  0.00  0.00    -0.042 A 
ATOM     16  C   UNL     1       1.685   7.338   5.821  0.00  0.00    +0.004 A 
ATOM     17  C   UNL     1       1.887   8.377   4.933  0.00  0.00    +0.006 A 
BRANCH  15  18
ATOM     18  C   UNL     1       0.314   5.443   6.714  0.00  0.00    -0.013 C 
ATOM     19  C   UNL     1       0.302   5.990   8.143  0.00  0.00    +0.015 C 
ATOM     20  C   UNL     1      -1.026   4.769   6.414  0.00  0.00    +0.015 C 
ATOM     21  C   UNL     1       1.444   4.421   6.568  0.00  0.00    +0.015 C 
ENDBRANCH  15  18
ENDBRANCH  11  12
BRANCH   1  22
ATOM     22  C   UNL     1       1.830   7.420   0.059  0.00  0.00    +0.204 C 
BRANCH  22  23
ATOM     23  N   UNL     1       2.040   5.971   0.115  0.00  0.00    -0.289 N 
ATOM     24  C   UNL     1       1.008   5.132  -0.102  0.00  0.00    +0.247 C 
ATOM     25  O   UNL     1       1.167   3.932   0.009  0.00  0.00    -0.270 OA
BRANCH  24  26
ATOM     26  C   UNL     1      -0.317   5.670  -0.474  0.00  0.00    +0.039 A 
ATOM     27  C   UNL     1      -0.864   6.740   0.236  0.00  0.00    +0.013 A 
ATOM     28  C   UNL     1      -2.101   7.238  -0.116  0.00  0.00    +0.003 A 
ATOM     29  C   UNL     1      -2.800   6.679  -1.171  0.00  0.00    +0.033 A 
ATOM     30  C   UNL     1      -2.267   5.614  -1.876  0.00  0.00    +0.127 A 
ATOM     31  C   UNL     1      -1.027   5.111  -1.538  0.00  0.00    +0.045 A 
BRANCH  30  32
ATOM     32  N   UNL     1      -3.024   5.018  -2.999  0.00  0.00    +0.056 N 
ATOM     33  O   UNL     1      -4.116   5.464  -3.302  0.00  0.00    -0.126 OA
ATOM     34  O   UNL     1      -2.555   4.081  -3.621  0.00  0.00    -0.126 OA
ENDBRANCH  30  32
ENDBRANCH  24  26
BRANCH  23  35
ATOM     35  C   UNL     1       3.372   5.435   0.405  0.00  0.00    +0.108 C 
BRANCH  35  36
ATOM     36  C   UNL     1       4.181   5.349  -0.891  0.00  0.00    +0.019 C 
BRANCH  36  38
ATOM     37  C   UNL     1       6.381   4.703  -1.883  0.00  0.00    +0.004 C 
ATOM     38  C   UNL     1       5.572   4.789  -0.588  0.00  0.00    -0.002 C 
ENDBRANCH  36  38
ENDBRANCH  35  36
ENDBRANCH  23  35
ENDBRANCH  22  23
ENDBRANCH   1  22
TORSDOF 9
