REMARK  Name = ZINC36128940
REMARK  6 active torsions:
REMARK  status: ('A' for Active; 'I' for Inactive)
REMARK    1  A    between atoms: C_1  and  C_2
REMARK    2  A    between atoms: C_2  and  C_3
REMARK    3  A    between atoms: C_7  and  C_23
REMARK    4  A    between atoms: N_10  and  S_11
REMARK    5  A    between atoms: S_11  and  C_14
REMARK    6  A    between atoms: C_16  and  N_22
REMARK                            x       y       z     vdW  Elec       q    Type
REMARK                         _______ _______ _______ _____ _____    ______ ____
ROOT
ATOM      1  S   UNL     1       2.602   1.160   0.083  0.00  0.00    +0.064 S 
ATOM      2  O   UNL     1       1.697   2.246   0.224  0.00  0.00    -0.153 OA
ATOM      3  O   UNL     1       4.012   1.330   0.139  0.00  0.00    -0.153 OA
ENDROOT
BRANCH   1   4
ATOM      4  C   UNL     1       2.247   0.407  -1.470  0.00  0.00    +0.144 A 
ATOM      5  C   UNL     1       1.249   0.922  -2.275  0.00  0.00    +0.054 A 
ATOM      6  C   UNL     1       0.970   0.329  -3.499  0.00  0.00    +0.028 A 
ATOM      7  C   UNL     1       1.694  -0.782  -3.912  0.00  0.00    +0.045 A 
ATOM      8  C   UNL     1       2.692  -1.294  -3.104  0.00  0.00    +0.080 A 
ATOM      9  C   UNL     1       2.972  -0.697  -1.885  0.00  0.00    +0.168 A 
ATOM     10  F   UNL     1       3.951  -1.195  -1.099  0.00  0.00    -0.202 F 
ATOM     11 CL   UNL     1       3.598  -2.682  -3.619  0.00  0.00    -0.080 Cl
BRANCH   6  12
ATOM     12  N   UNL     1      -0.041   0.848  -4.314  0.00  0.00    -0.358 N 
ATOM     13  H   UNL     1      -0.547   1.624  -4.024  0.00  0.00    +0.142 HD
ATOM     14  H   UNL     1      -0.235   0.433  -5.169  0.00  0.00    +0.142 HD
ENDBRANCH   6  12
ENDBRANCH   1   4
BRANCH   1  20
ATOM     15  C   UNL     1       0.806  -0.230   1.586  0.00  0.00    +0.105 C 
ATOM     16  C   UNL     1       0.611  -1.750   1.571  0.00  0.00    +0.180 C 
ATOM     17  O   UNL     1       1.597  -2.360   2.407  0.00  0.00    -0.374 OA
ATOM     18  C   UNL     1       2.943  -2.150   1.973  0.00  0.00    +0.131 C 
ATOM     19  C   UNL     1       3.257  -0.650   2.010  0.00  0.00    +0.141 C 
ATOM     20  N   UNL     1       2.211   0.062   1.260  0.00  0.00    -0.169 NA
ATOM     21  C   UNL     1       3.902  -2.897   2.903  0.00  0.00    +0.039 C 
BRANCH  15  23
ATOM     22  C   UNL     1      -1.569   0.107   0.887  0.00  0.00    +0.005 C 
ATOM     23  C   UNL     1      -0.110   0.418   0.546  0.00  0.00    +0.019 C 
ENDBRANCH  15  23
ENDBRANCH   1  20
TORSDOF 4
