REMARK  Name = ZINC30551647
REMARK  13 active torsions:
REMARK  status: ('A' for Active; 'I' for Inactive)
REMARK    1  A    between atoms: C_1  and  C_2
REMARK    2  A    between atoms: C_5  and  S_8
REMARK    3  A    between atoms: S_8  and  N_11
REMARK    4  A    between atoms: N_11  and  C_12
REMARK    5  A    between atoms: C_12  and  C_14
REMARK    6  A    between atoms: C_12  and  C_18
REMARK    7  A    between atoms: C_14  and  C_15
REMARK    8  A    between atoms: C_15  and  S_16
REMARK    9  A    between atoms: S_16  and  C_17
REMARK   10  A    between atoms: N_20  and  C_21
REMARK   11  A    between atoms: C_21  and  C_22
REMARK   12  A    between atoms: C_27  and  C_28
REMARK   13  A    between atoms: C_28  and  N_29
REMARK                            x       y       z     vdW  Elec       q    Type
REMARK                         _______ _______ _______ _____ _____    ______ ____
ROOT
ATOM      1  C   UNL     1       0.705   3.954   0.248  0.00  0.00    +0.232 C 
ATOM      2  O   UNL     1      -0.165   4.455   0.928  0.00  0.00    -0.274 OA
ATOM      3  N   UNL     1       0.626   2.653  -0.096  0.00  0.00    -0.310 N 
ATOM      4  H   UNL     1       1.415   2.198  -0.713  0.00  0.00    +0.149 HD
ENDROOT
BRANCH   1   5
ATOM      5  C   UNL     1       1.875   4.785  -0.212  0.00  0.00    +0.163 C 
BRANCH   5   6
ATOM      6  N   UNL     1       1.729   6.154   0.290  0.00  0.00    -0.178 NA
ATOM      7  H   UNL     1       1.020   6.843  -0.192  0.00  0.00    +0.149 HD
BRANCH   6   8
ATOM      8  S   UNL     1       2.795   6.743   1.412  0.00  0.00    +0.059 S 
ATOM      9  O   UNL     1       2.413   8.088   1.668  0.00  0.00    -0.153 OA
ATOM     10  O   UNL     1       2.883   5.767   2.441  0.00  0.00    -0.153 OA
BRANCH   8  15
ATOM     11  C   UNL     1       8.219   6.963  -1.223  0.00  0.00    +0.044 C 
ATOM     12  C   UNL     1       6.864   6.909  -0.565  0.00  0.00    -0.050 A 
ATOM     13  C   UNL     1       6.033   8.012  -0.601  0.00  0.00    +0.005 A 
ATOM     14  C   UNL     1       4.790   7.962   0.003  0.00  0.00    +0.029 A 
ATOM     15  C   UNL     1       4.379   6.807   0.642  0.00  0.00    +0.105 A 
ATOM     16  C   UNL     1       5.212   5.705   0.682  0.00  0.00    +0.029 A 
ATOM     17  C   UNL     1       6.453   5.754   0.075  0.00  0.00    +0.005 A 
ENDBRANCH   8  15
ENDBRANCH   6   8
ENDBRANCH   5   6
BRANCH   5  18
ATOM     18  C   UNL     1       1.918   4.804  -1.741  0.00  0.00    +0.040 C 
BRANCH  18  19
ATOM     19  C   UNL     1       3.174   5.542  -2.207  0.00  0.00    +0.071 C 
BRANCH  19  20
ATOM     20  S   UNL     1       3.165   5.668  -4.017  0.00  0.00    -0.164 S 
ATOM     21  C   UNL     1       4.768   6.419  -4.413  0.00  0.00    +0.084 C 
ENDBRANCH  19  20
ENDBRANCH  18  19
ENDBRANCH   5  18
ENDBRANCH   1   5
BRANCH   3  22
ATOM     22  C   UNL     1      -0.511   1.845   0.351  0.00  0.00    +0.139 C 
BRANCH  22  23
ATOM     23  C   UNL     1      -0.361   0.437  -0.165  0.00  0.00    -0.029 A 
ATOM     24  C   UNL     1      -1.034   0.043  -1.306  0.00  0.00    +0.005 A 
ATOM     25  C   UNL     1      -0.893  -1.246  -1.782  0.00  0.00    +0.000 A 
ATOM     26  C   UNL     1      -0.085  -2.146  -1.111  0.00  0.00    +0.000 A 
ATOM     27  C   UNL     1       0.584  -1.754   0.033  0.00  0.00    +0.002 A 
ATOM     28  C   UNL     1       0.447  -0.462   0.506  0.00  0.00    -0.059 A 
BRANCH  28  29
ATOM     29  C   UNL     1       1.176  -0.034   1.753  0.00  0.00    -0.043 C 
BRANCH  29  30
ATOM     30  N   UNL     1       2.384   0.716   1.382  0.00  0.00    +0.382 N 
ATOM     31  C   UNL     1       3.352  -0.151   0.698  0.00  0.00    -0.078 C 
ATOM     32  C   UNL     1       4.528   0.691   0.198  0.00  0.00    -0.019 C 
ATOM     33  C   UNL     1       5.191   1.390   1.389  0.00  0.00    -0.004 C 
ATOM     34  C   UNL     1       4.150   2.248   2.112  0.00  0.00    -0.019 C 
ATOM     35  C   UNL     1       2.985   1.361   2.556  0.00  0.00    -0.078 C 
ATOM     36  H   UNL     1       2.088   1.508   0.679  0.00  0.00    -0.081 HD
ENDBRANCH  29  30
ENDBRANCH  28  29
ENDBRANCH  22  23
ENDBRANCH   3  22
TORSDOF 11
