REMARK  Name = ZINC39030394
REMARK  10 active torsions:
REMARK  status: ('A' for Active; 'I' for Inactive)
REMARK    1  A    between atoms: C_1  and  C_2
REMARK    2  A    between atoms: C_2  and  O_3
REMARK    3  A    between atoms: O_3  and  C_4
REMARK    4  A    between atoms: C_7  and  C_10
REMARK    5  A    between atoms: N_12  and  C_13
REMARK    6  A    between atoms: C_13  and  C_15
REMARK    7  A    between atoms: C_13  and  C_19
REMARK    8  A    between atoms: C_15  and  C_16
REMARK    9  A    between atoms: C_16  and  S_17
REMARK   10  A    between atoms: S_17  and  C_18
REMARK                            x       y       z     vdW  Elec       q    Type
REMARK                         _______ _______ _______ _____ _____    ______ ____
ROOT
ATOM      1  C   UNL     1      -3.398  -8.094   0.009  0.00  0.00    +0.160 C 
ENDROOT
BRANCH   1   2
ATOM      2  C   UNL     1      -4.721  -8.582   0.540  0.00  0.00    +0.236 C 
ATOM      3  O   UNL     1      -5.716  -7.902   0.407  0.00  0.00    -0.274 OA
ATOM      4  N   UNL     1      -4.798  -9.775   1.163  0.00  0.00    -0.300 N 
ATOM      5  C   UNL     1      -3.584 -10.558   1.433  0.00  0.00    +0.106 C 
ATOM      6  C   UNL     1      -3.539 -10.899   2.926  0.00  0.00    +0.009 C 
ATOM      7  C   UNL     1      -4.841 -11.594   3.327  0.00  0.00    -0.037 C 
ATOM      8  C   UNL     1      -6.025 -10.660   3.078  0.00  0.00    +0.009 C 
ATOM      9  C   UNL     1      -6.096 -10.313   1.592  0.00  0.00    +0.106 C 
ATOM     10  C   UNL     1      -4.786 -11.974   4.807  0.00  0.00    +0.140 C 
ATOM     11  C   UNL     1      -3.666 -13.003   4.927  0.00  0.00    +0.042 C 
ATOM     12  N   UNL     1      -2.853 -12.542   5.795  0.00  0.00    -0.243 NA
ATOM     13  C   UNL     1      -3.215 -11.304   6.213  0.00  0.00    +0.216 C 
ATOM     14  N   UNL     1      -4.333 -10.877   5.663  0.00  0.00    -0.264 NA
ATOM     15  C   UNL     1      -3.608 -14.210   4.026  0.00  0.00    +0.034 C 
ATOM     16  C   UNL     1      -3.820 -13.681   2.594  0.00  0.00    -0.076 C 
ATOM     17  N   UNL     1      -5.006 -12.824   2.538  0.00  0.00    +0.385 N 
ATOM     18  H   UNL     1      -5.799 -13.337   2.894  0.00  0.00    -0.085 HD
ATOM     19  H   UNL     1      -5.185 -12.574   1.576  0.00  0.00    -0.085 HD
ENDBRANCH   1   2
BRANCH   1  22
ATOM     20  C   UNL     1      -2.283  -5.929  -0.077  0.00  0.00    +0.245 C 
ATOM     21  O   UNL     1      -1.221  -6.503   0.063  0.00  0.00    -0.270 OA
ATOM     22  N   UNL     1      -3.431  -6.635  -0.117  0.00  0.00    -0.300 N 
ATOM     23  H   UNL     1      -4.278  -6.176  -0.229  0.00  0.00    +0.150 HD
BRANCH  20  27
ATOM     24  C   UNL     1      -2.378  -1.699  -0.442  0.00  0.00    +0.121 A 
ATOM     25  C   UNL     1      -1.163  -2.353  -0.281  0.00  0.00    +0.046 A 
ATOM     26  C   UNL     1      -1.128  -3.725  -0.162  0.00  0.00    +0.016 A 
ATOM     27  C   UNL     1      -2.316  -4.458  -0.203  0.00  0.00    +0.037 A 
ATOM     28  C   UNL     1      -3.536  -3.796  -0.365  0.00  0.00    +0.016 A 
ATOM     29  C   UNL     1      -3.563  -2.424  -0.478  0.00  0.00    +0.046 A 
BRANCH  24  30
ATOM     30  O   UNL     1      -2.409  -0.347  -0.558  0.00  0.00    -0.492 OA
BRANCH  30  32
ATOM     31  C   UNL     1      -1.388   1.841  -0.659  0.00  0.00    +0.048 C 
ATOM     32  C   UNL     1      -1.154   0.336  -0.513  0.00  0.00    +0.225 C 
ENDBRANCH  30  32
ENDBRANCH  24  30
ENDBRANCH  20  27
ENDBRANCH   1  22
BRANCH   1  33
ATOM     33  C   UNL     1      -3.138  -8.718  -1.364  0.00  0.00    +0.042 C 
BRANCH  33  34
ATOM     34  C   UNL     1      -1.731  -8.344  -1.836  0.00  0.00    +0.071 C 
BRANCH  34  35
ATOM     35  S   UNL     1      -1.423  -9.084  -3.463  0.00  0.00    -0.164 S 
ATOM     36  C   UNL     1       0.262  -8.553  -3.875  0.00  0.00    +0.084 C 
ENDBRANCH  34  35
ENDBRANCH  33  34
ENDBRANCH   1  33
TORSDOF 8
