REMARK  Name = ZINC12455439
REMARK  8 active torsions:
REMARK  status: ('A' for Active; 'I' for Inactive)
REMARK    1  A    between atoms: C_1  and  C_2
REMARK    2  A    between atoms: C_9  and  C_20
REMARK    3  A    between atoms: C_17  and  C_19
REMARK    4  A    between atoms: C_20  and  N_21
REMARK    5  A    between atoms: N_21  and  C_22
REMARK    6  A    between atoms: C_22  and  C_23
REMARK    7  A    between atoms: C_23  and  C_24
REMARK    8  A    between atoms: C_30  and  C_32
REMARK                            x       y       z     vdW  Elec       q    Type
REMARK                         _______ _______ _______ _____ _____    ______ ____
ROOT
ATOM      1  C   UNL     1      -9.323   3.690   0.202  0.00  0.00    +0.044 C 
ATOM      2  C   UNL     1      -8.386   2.768  -0.535  0.00  0.00    -0.050 A 
ATOM      3  C   UNL     1      -8.804   1.480  -0.861  0.00  0.00    +0.005 A 
ATOM      4  C   UNL     1      -7.982   0.622  -1.526  0.00  0.00    +0.026 A 
ATOM      5  C   UNL     1      -6.691   1.038  -1.893  0.00  0.00    +0.048 A 
ATOM      6  C   UNL     1      -6.268   2.348  -1.561  0.00  0.00    -0.001 A 
ATOM      7  C   UNL     1      -7.142   3.205  -0.875  0.00  0.00    +0.013 A 
ATOM      8  C   UNL     1      -4.973   2.765  -1.930  0.00  0.00    +0.018 A 
ATOM      9  C   UNL     1      -4.175   1.883  -2.595  0.00  0.00    +0.008 A 
ATOM     10  C   UNL     1      -4.654   0.601  -2.899  0.00  0.00    +0.104 A 
ATOM     11  N   UNL     1      -3.833  -0.284  -3.582  0.00  0.00    -0.313 N 
ATOM     12  C   UNL     1      -4.334  -0.526  -4.941  0.00  0.00    +0.125 C 
ATOM     13  C   UNL     1      -3.310  -1.359  -5.719  0.00  0.00    +0.126 C 
ATOM     14  N   UNL     1      -3.007  -2.571  -4.943  0.00  0.00    -0.299 N 
ATOM     15  C   UNL     1      -2.629  -2.416  -3.530  0.00  0.00    +0.126 C 
ATOM     16  C   UNL     1      -3.680  -1.541  -2.838  0.00  0.00    +0.125 C 
ATOM     17  C   UNL     1      -3.075  -3.791  -5.511  0.00  0.00    +0.213 C 
ATOM     18  O   UNL     1      -3.291  -3.896  -6.700  0.00  0.00    -0.276 OA
ATOM     19  C   UNL     1      -2.881  -5.026  -4.669  0.00  0.00    +0.109 C 
ATOM     20  N   UNL     1      -5.887   0.144  -2.566  0.00  0.00    -0.343 N 
ATOM     21  H   UNL     1      -6.200  -0.805  -2.799  0.00  0.00    +0.167 HD
ENDROOT
BRANCH   9  22
ATOM     22  C   UNL     1      -2.784   2.288  -3.008  0.00  0.00    +0.146 C 
BRANCH  22  23
ATOM     23  N   UNL     1      -2.480   3.615  -2.468  0.00  0.00    -0.295 N 
ATOM     24  C   UNL     1      -2.004   3.739  -1.213  0.00  0.00    +0.245 C 
ATOM     25  O   UNL     1      -1.836   4.841  -0.734  0.00  0.00    -0.273 OA
BRANCH  24  26
ATOM     26  C   UNL     1      -1.679   2.509  -0.406  0.00  0.00    +0.204 C 
ATOM     27  C   UNL     1      -0.424   1.809  -0.973  0.00  0.00    +0.043 C 
ATOM     28  C   UNL     1       0.319   1.297   0.282  0.00  0.00    +0.031 C 
ATOM     29  C   UNL     1      -0.572   1.749   1.460  0.00  0.00    +0.161 C 
ATOM     30  O   UNL     1      -1.320   2.874   0.945  0.00  0.00    -0.367 OA
ENDBRANCH  24  26
BRANCH  23  31
ATOM     31  C   UNL     1      -2.694   4.808  -3.291  0.00  0.00    +0.112 C 
BRANCH  31  32
ATOM     32  C   UNL     1      -1.463   5.051  -4.167  0.00  0.00    +0.049 C 
BRANCH  32  33
ATOM     33  C   UNL     1      -1.632   6.343  -4.923  0.00  0.00    -0.072 C 
ATOM     34  C   UNL     1      -1.104   7.414  -4.421  0.00  0.00    -0.028 C 
ATOM     35  C   UNL     1      -1.192   8.771  -5.054  0.00  0.00    +0.027 C 
ATOM     36  C   UNL     1      -1.607   8.644  -6.522  0.00  0.00    +0.004 C 
ATOM     37  C   UNL     1      -2.833   7.727  -6.602  0.00  0.00    +0.005 C 
ATOM     38  C   UNL     1      -2.406   6.311  -6.208  0.00  0.00    +0.030 C 
ENDBRANCH  32  33
ENDBRANCH  31  32
ENDBRANCH  23  31
ENDBRANCH  22  23
ENDBRANCH   9  22
TORSDOF 6
