REMARK  Name = ZINC20208058
REMARK  5 active torsions:
REMARK  status: ('A' for Active; 'I' for Inactive)
REMARK    1  A    between atoms: C_1  and  S_2
REMARK    2  A    between atoms: S_2  and  C_5
REMARK    3  A    between atoms: C_11  and  C_12
REMARK    4  A    between atoms: N_14  and  C_21
REMARK    5  A    between atoms: C_21  and  C_22
REMARK                            x       y       z     vdW  Elec       q    Type
REMARK                         _______ _______ _______ _____ _____    ______ ____
ROOT
ATOM      1  C   UNL     1       6.687  -0.900  -3.915  0.00  0.00    +0.001 A 
ATOM      2  C   UNL     1       6.604  -1.283  -2.590  0.00  0.00    +0.095 A 
ATOM      3  N   UNL     1       7.807  -1.136  -2.001  0.00  0.00    -0.342 N 
ATOM      4  C   UNL     1       8.736  -0.653  -2.901  0.00  0.00    +0.050 A 
ATOM      5  C   UNL     1       8.088  -0.488  -4.136  0.00  0.00    +0.007 A 
ATOM      6  C   UNL     1       8.793  -0.014  -5.238  0.00  0.00    +0.010 A 
ATOM      7  C   UNL     1      10.132   0.290  -5.112  0.00  0.00    +0.001 A 
ATOM      8  C   UNL     1      10.775   0.125  -3.895  0.00  0.00    +0.002 A 
ATOM      9  C   UNL     1      10.086  -0.337  -2.794  0.00  0.00    +0.026 A 
ENDROOT
BRANCH   1  16
ATOM     10  C   UNL     1       2.090  -4.605  -1.915  0.00  0.00    +0.235 C 
ATOM     11  N   UNL     1       3.278  -4.177  -2.232  0.00  0.00    -0.145 NA
ATOM     12  N   UNL     1       3.495  -3.461  -3.390  0.00  0.00    -0.152 N 
ATOM     13  C   UNL     1       4.750  -3.029  -3.870  0.00  0.00    +0.132 C 
ATOM     14  N   UNL     1       5.882  -3.587  -3.527  0.00  0.00    -0.385 N 
ATOM     15  C   UNL     1       4.658  -1.876  -4.807  0.00  0.00    +0.079 C 
ATOM     16  C   UNL     1       5.644  -0.908  -4.868  0.00  0.00    +0.026 C 
ATOM     17  C   UNL     1       3.455  -1.820  -5.670  0.00  0.00    +0.273 C 
ATOM     18  O   UNL     1       3.476  -1.230  -6.738  0.00  0.00    -0.268 OA
ATOM     19  N   UNL     1       2.337  -2.440  -5.241  0.00  0.00    -0.152 NA
ATOM     20  C   UNL     1       2.387  -3.170  -4.156  0.00  0.00    +0.182 C 
ATOM     21  S   UNL     1       1.098  -4.018  -3.281  0.00  0.00    -0.015 S 
ATOM     22  H   UNL     1       5.894  -4.281  -2.849  0.00  0.00    +0.157 HD
ATOM     23  H   UNL     1       6.708  -3.308  -3.951  0.00  0.00    +0.157 HD
BRANCH  10  25
ATOM     24  C   UNL     1       1.000  -4.295   0.684  0.00  0.00    +0.202 C 
ATOM     25  S   UNL     1       1.589  -5.534  -0.503  0.00  0.00    +0.019 S 
ATOM     26  O   UNL     1       2.783  -6.141  -0.027  0.00  0.00    -0.168 OA
ATOM     27  O   UNL     1       0.504  -6.330  -0.959  0.00  0.00    -0.168 OA
ENDBRANCH  10  25
ENDBRANCH   1  16
BRANCH   3  28
ATOM     28  C   UNL     1       8.091  -1.445  -0.598  0.00  0.00    +0.157 C 
BRANCH  28  29
ATOM     29  C   UNL     1       7.967  -0.191   0.228  0.00  0.00    -0.024 A 
ATOM     30  C   UNL     1       9.069   0.621   0.419  0.00  0.00    +0.009 A 
ATOM     31  C   UNL     1       8.960   1.773   1.175  0.00  0.00    +0.050 A 
ATOM     32  C   UNL     1       7.745   2.116   1.745  0.00  0.00    +0.166 A 
ATOM     33  C   UNL     1       6.634   1.298   1.553  0.00  0.00    +0.167 A 
ATOM     34  C   UNL     1       6.749   0.148   0.789  0.00  0.00    +0.055 A 
ATOM     35  O   UNL     1       5.570   1.846   2.209  0.00  0.00    -0.453 OA
ATOM     36  C   UNL     1       6.135   2.788   3.139  0.00  0.00    +0.466 C 
ATOM     37  O   UNL     1       7.376   3.177   2.521  0.00  0.00    -0.453 OA
ENDBRANCH  28  29
ENDBRANCH   3  28
TORSDOF 4
