REMARK  Name = ZINC06172283
REMARK  11 active torsions:
REMARK  status: ('A' for Active; 'I' for Inactive)
REMARK    1  A    between atoms: C_1  and  C_2
REMARK    2  A    between atoms: C_3  and  C_29
REMARK    3  A    between atoms: C_4  and  C_21
REMARK    4  A    between atoms: C_10  and  C_11
REMARK    5  A    between atoms: C_26  and  O_27
REMARK    6  A    between atoms: O_27  and  C_28
REMARK    7  A    between atoms: C_29  and  O_31
REMARK    8  A    between atoms: O_31  and  C_32
REMARK    9  A    between atoms: C_32  and  C_33
REMARK   10  A    between atoms: C_33  and  O_34
REMARK   11  A    between atoms: O_34  and  C_35
REMARK                            x       y       z     vdW  Elec       q    Type
REMARK                         _______ _______ _______ _____ _____    ______ ____
ROOT
ATOM      1  C   UNL     1      -5.406   3.315   1.200  0.00  0.00    +0.066 C 
ATOM      2  C   UNL     1      -4.057   2.717   0.895  0.00  0.00    +0.053 C 
ATOM      3  C   UNL     1      -3.822   1.399   1.170  0.00  0.00    +0.085 C 
ATOM      4  C   UNL     1      -2.456   0.838   0.850  0.00  0.00    +0.165 C 
ATOM      5  N   UNL     1      -1.462   1.770   0.248  0.00  0.00    -0.275 N 
ATOM      6  C   UNL     1      -0.204   1.464  -0.098  0.00  0.00    +0.268 A 
ATOM      7  O   UNL     1       0.231   0.338   0.056  0.00  0.00    -0.266 OA
ATOM      8  C   UNL     1       0.631   2.528  -0.675  0.00  0.00    +0.081 A 
ATOM      9  C   UNL     1       1.917   2.477  -1.105  0.00  0.00    +0.030 C 
ATOM     10  S   UNL     1      -0.505   3.905  -0.655  0.00  0.00    -0.046 S 
ATOM     11  C   UNL     1      -1.903   3.060   0.058  0.00  0.00    +0.178 A 
ATOM     12  N   UNL     1      -3.107   3.474   0.361  0.00  0.00    -0.228 NA
ENDROOT
BRANCH   9  13
ATOM     13  C   UNL     1       2.611   1.185  -1.196  0.00  0.00    -0.005 A 
ATOM     14  C   UNL     1       1.959   0.073  -1.743  0.00  0.00    +0.009 A 
ATOM     15  C   UNL     1       2.619  -1.134  -1.829  0.00  0.00    +0.001 A 
ATOM     16  C   UNL     1       3.918  -1.253  -1.366  0.00  0.00    +0.001 A 
ATOM     17  C   UNL     1       4.569  -0.161  -0.819  0.00  0.00    +0.020 A 
ATOM     18  C   UNL     1       3.925   1.057  -0.730  0.00  0.00    +0.048 A 
ATOM     19 CL   UNL     1       4.743   2.425  -0.044  0.00  0.00    -0.083 Cl
ENDBRANCH   9  13
BRANCH   4  20
ATOM     20  C   UNL     1      -1.870   0.288   2.125  0.00  0.00    +0.022 A 
ATOM     21  C   UNL     1      -1.057   1.083   2.910  0.00  0.00    +0.009 A 
ATOM     22  C   UNL     1      -0.520   0.580   4.081  0.00  0.00    +0.001 A 
ATOM     23  C   UNL     1      -0.794  -0.720   4.468  0.00  0.00    +0.004 A 
ATOM     24  C   UNL     1      -1.606  -1.518   3.686  0.00  0.00    +0.046 A 
ATOM     25  C   UNL     1      -2.150  -1.013   2.513  0.00  0.00    +0.126 A 
BRANCH  25  26
ATOM     26  O   UNL     1      -2.954  -1.794   1.745  0.00  0.00    -0.495 OA
ATOM     27  C   UNL     1      -3.100  -3.160   2.139  0.00  0.00    +0.277 C 
ENDBRANCH  25  26
ENDBRANCH   4  20
BRANCH   3  28
ATOM     28  C   UNL     1      -4.821   0.590   1.735  0.00  0.00    +0.339 C 
ATOM     29  O   UNL     1      -5.397  -0.236   1.049  0.00  0.00    -0.245 OA
BRANCH  28  30
ATOM     30  O   UNL     1      -5.144   0.726   3.040  0.00  0.00    -0.459 OA
BRANCH  30  31
ATOM     31  C   UNL     1      -6.088  -0.203   3.575  0.00  0.00    +0.260 C 
BRANCH  31  32
ATOM     32  C   UNL     1      -6.417   0.179   5.020  0.00  0.00    +0.200 C 
BRANCH  32  33
ATOM     33  O   UNL     1      -7.084   1.442   5.038  0.00  0.00    -0.380 OA
ATOM     34  C   UNL     1      -7.338   1.947   6.350  0.00  0.00    +0.194 C 
ENDBRANCH  32  33
ENDBRANCH  31  32
ENDBRANCH  30  31
ENDBRANCH  28  30
ENDBRANCH   3  28
TORSDOF 8
