REMARK  Name = ZINC63572649
REMARK  4 active torsions:
REMARK  status: ('A' for Active; 'I' for Inactive)
REMARK    1  A    between atoms: C_4  and  C_7
REMARK    2  A    between atoms: C_7  and  C_8
REMARK    3  A    between atoms: C_8  and  N_9
REMARK    4  A    between atoms: C_25  and  C_27
REMARK                            x       y       z     vdW  Elec       q    Type
REMARK                         _______ _______ _______ _____ _____    ______ ____
ROOT
ATOM      1  N   UNL     1       4.725  -3.787   1.803  0.00  0.00    -0.299 N 
ATOM      2  C   UNL     1       5.547  -3.384   2.792  0.00  0.00    +0.303 C 
ATOM      3  O   UNL     1       5.087  -2.875   3.796  0.00  0.00    -0.253 OA
ATOM      4  N   UNL     1       6.879  -3.545   2.668  0.00  0.00    -0.276 N 
ATOM      5  C   UNL     1       7.435  -4.044   1.407  0.00  0.00    +0.114 C 
ATOM      6  C   UNL     1       8.447  -3.024   0.853  0.00  0.00    +0.052 C 
ATOM      7  C   UNL     1       9.316  -2.604   2.012  0.00  0.00    -0.035 C 
ATOM      8  C   UNL     1      10.636  -2.569   2.152  0.00  0.00    +0.001 A 
ATOM      9  C   UNL     1      11.729  -2.820   1.199  0.00  0.00    +0.030 A 
ATOM     10  C   UNL     1      12.992  -2.713   1.693  0.00  0.00    +0.042 A 
ATOM     11  C   UNL     1      13.272  -2.386   3.025  0.00  0.00    +0.022 A 
ATOM     12  C   UNL     1      12.329  -2.132   3.966  0.00  0.00    +0.027 A 
ATOM     13  C   UNL     1      10.963  -2.204   3.564  0.00  0.00    +0.043 A 
ATOM     14  N   UNL     1       9.874  -1.989   4.242  0.00  0.00    -0.375 N 
ATOM     15  C   UNL     1       8.733  -2.128   3.337  0.00  0.00    +0.131 C 
ATOM     16  C   UNL     1       7.761  -3.212   3.799  0.00  0.00    +0.134 C 
ATOM     17 CL   UNL     1      14.324  -2.998   0.617  0.00  0.00    -0.084 Cl
ATOM     18  H   UNL     1       5.094  -4.126   0.973  0.00  0.00    +0.150 HD
ATOM     19  H   UNL     1       9.827  -1.773   5.186  0.00  0.00    +0.160 HD
ENDROOT
BRANCH  16  20
ATOM     20  C   UNL     1       6.939  -2.699   4.953  0.00  0.00    -0.025 A 
ATOM     21  C   UNL     1       6.336  -1.458   4.874  0.00  0.00    +0.008 A 
ATOM     22  C   UNL     1       5.582  -0.986   5.931  0.00  0.00    +0.038 A 
ATOM     23  C   UNL     1       5.430  -1.758   7.071  0.00  0.00    +0.123 A 
ATOM     24  C   UNL     1       6.034  -3.001   7.149  0.00  0.00    +0.038 A 
ATOM     25  C   UNL     1       6.784  -3.473   6.088  0.00  0.00    +0.008 A 
ATOM     26  F   UNL     1       4.693  -1.298   8.106  0.00  0.00    -0.205 F 
ENDBRANCH  16  20
BRANCH   1  27
ATOM     27  C   UNL     1       3.272  -3.713   1.982  0.00  0.00    +0.110 C 
BRANCH  27  28
ATOM     28  C   UNL     1       2.576  -4.228   0.721  0.00  0.00    +0.054 C 
BRANCH  28  32
ATOM     29  C   UNL     1      -1.658  -4.013   1.240  0.00  0.00    +0.000 A 
ATOM     30  C   UNL     1      -0.972  -2.939   0.705  0.00  0.00    +0.000 A 
ATOM     31  C   UNL     1       0.398  -3.009   0.537  0.00  0.00    +0.004 A 
ATOM     32  C   UNL     1       1.083  -4.152   0.905  0.00  0.00    -0.046 A 
ATOM     33  C   UNL     1       0.397  -5.225   1.441  0.00  0.00    +0.004 A 
ATOM     34  C   UNL     1      -0.974  -5.156   1.608  0.00  0.00    +0.000 A 
ENDBRANCH  28  32
ENDBRANCH  27  28
ENDBRANCH   1  27
TORSDOF 4
