REMARK  Name = ZINC57831574
REMARK  5 active torsions:
REMARK  status: ('A' for Active; 'I' for Inactive)
REMARK    1  A    between atoms: C_1  and  N_2
REMARK    2  A    between atoms: N_2  and  C_3
REMARK    3  A    between atoms: N_14  and  C_15
REMARK    4  A    between atoms: C_18  and  S_21
REMARK    5  A    between atoms: S_21  and  C_22
REMARK                            x       y       z     vdW  Elec       q    Type
REMARK                         _______ _______ _______ _____ _____    ______ ____
ROOT
ATOM      1  C   UNL     1       0.508  -0.120  -1.976  0.00  0.00    +0.133 C 
ATOM      2  N   UNL     1       0.507   0.119  -3.421  0.00  0.00    -0.292 N 
ATOM      3  C   UNL     1       1.449   1.077  -4.006  0.00  0.00    +0.133 C 
ATOM      4  C   UNL     1      -0.360  -0.542  -4.213  0.00  0.00    +0.304 C 
ATOM      5  O   UNL     1      -1.291  -1.149  -3.721  0.00  0.00    -0.252 OA
ATOM      6  N   UNL     1      -0.195  -0.530  -5.551  0.00  0.00    -0.283 N 
ATOM      7  C   UNL     1      -1.323  -0.823  -6.447  0.00  0.00    +0.128 C 
ATOM      8  C   UNL     1      -1.486   0.345  -7.426  0.00  0.00    +0.128 C 
ATOM      9  N   UNL     1      -0.175   0.651  -8.015  0.00  0.00    -0.282 N 
ATOM     10  C   UNL     1       0.953   0.944  -7.120  0.00  0.00    +0.128 C 
ATOM     11  C   UNL     1       1.115  -0.219  -6.140  0.00  0.00    +0.128 C 
ATOM     12  C   UNL     1      -0.010   0.663  -9.353  0.00  0.00    +0.307 C 
ATOM     13  O   UNL     1      -0.922   0.322 -10.081  0.00  0.00    -0.252 OA
ATOM     14  N   UNL     1       1.167   1.052  -9.883  0.00  0.00    -0.269 N 
ATOM     15  H   UNL     1       1.921   1.242  -9.304  0.00  0.00    +0.156 HD
ENDROOT
BRANCH  14  16
ATOM     16  C   UNL     1       1.300   1.183 -11.273  0.00  0.00    +0.035 A 
ATOM     17  C   UNL     1       0.224   1.615 -12.036  0.00  0.00    +0.024 A 
ATOM     18  C   UNL     1       0.355   1.745 -13.404  0.00  0.00    +0.017 A 
ATOM     19  C   UNL     1       1.564   1.442 -14.017  0.00  0.00    +0.016 A 
ATOM     20  C   UNL     1       2.641   1.010 -13.254  0.00  0.00    +0.017 A 
ATOM     21  C   UNL     1       2.510   0.885 -11.885  0.00  0.00    +0.024 A 
BRANCH  19  22
ATOM     22  S   UNL     1       1.732   1.607 -15.764  0.00  0.00    -0.016 S 
BRANCH  22  23
ATOM     23  C   UNL     1       3.446   1.110 -16.088  0.00  0.00    +0.448 C 
ATOM     24  F   UNL     1       3.638  -0.208 -15.662  0.00  0.00    -0.160 F 
ATOM     25  F   UNL     1       3.705   1.199 -17.460  0.00  0.00    -0.160 F 
ATOM     26  F   UNL     1       4.316   1.956 -15.393  0.00  0.00    -0.160 F 
ENDBRANCH  22  23
ENDBRANCH  19  22
ENDBRANCH  14  16
TORSDOF 3
