REMARK  Name = ZINC50398263
REMARK  3 active torsions:
REMARK  status: ('A' for Active; 'I' for Inactive)
REMARK    1  A    between atoms: C_3  and  N_11
REMARK    2  A    between atoms: C_4  and  C_8
REMARK    3  A    between atoms: N_14  and  C_15
REMARK                            x       y       z     vdW  Elec       q    Type
REMARK                         _______ _______ _______ _____ _____    ______ ____
ROOT
ATOM      1  N   UNL     1       3.428   2.072  -0.040  0.00  0.00    -0.269 N 
ATOM      2  C   UNL     1       3.348   3.410  -0.172  0.00  0.00    +0.304 C 
ATOM      3  O   UNL     1       2.262   3.956  -0.183  0.00  0.00    -0.252 OA
ATOM      4  N   UNL     1       4.472   4.144  -0.293  0.00  0.00    -0.288 N 
ATOM      5  H   UNL     1       4.295   1.645   0.051  0.00  0.00    +0.156 HD
ATOM      6  H   UNL     1       5.339   3.709  -0.285  0.00  0.00    +0.151 HD
ENDROOT
BRANCH   4   7
ATOM      7  C   UNL     1       4.385   5.600  -0.437  0.00  0.00    +0.160 C 
ATOM      8  C   UNL     1       5.632   6.115  -1.159  0.00  0.00    +0.033 C 
ATOM      9  C   UNL     1       5.655   7.645  -1.055  0.00  0.00    +0.021 C 
ATOM     10  C   UNL     1       5.885   8.034   0.406  0.00  0.00    +0.104 C 
ATOM     11  N   UNL     1       4.947   7.332   1.274  0.00  0.00    -0.314 N 
ATOM     12  C   UNL     1       4.286   6.230   0.922  0.00  0.00    +0.233 C 
ATOM     13  O   UNL     1       3.562   5.710   1.745  0.00  0.00    -0.274 OA
ATOM     14  H   UNL     1       4.797   7.689   2.163  0.00  0.00    +0.149 HD
ENDBRANCH   4   7
BRANCH   1  17
ATOM     15  C   UNL     1      -0.029   1.001  -0.657  0.00  0.00    +0.022 A 
ATOM     16  C   UNL     1       1.121   1.766  -0.662  0.00  0.00    +0.025 A 
ATOM     17  C   UNL     1       2.269   1.302  -0.035  0.00  0.00    +0.049 A 
ATOM     18  C   UNL     1       2.255   0.051   0.605  0.00  0.00    +0.086 A 
ATOM     19  C   UNL     1       1.083  -0.712   0.602  0.00  0.00    +0.037 A 
ATOM     20  C   UNL     1      -0.047  -0.234  -0.026  0.00  0.00    +0.042 A 
ATOM     21 CL   UNL     1      -1.501  -1.183  -0.029  0.00  0.00    -0.084 Cl
BRANCH  18  22
ATOM     22  C   UNL     1       3.465  -0.452   1.273  0.00  0.00    +0.388 C 
ATOM     23  O   UNL     1       3.479  -1.581   1.744  0.00  0.00    -0.241 OA
ATOM     24  O   UNL     1       4.457   0.258   1.357  0.00  0.00    -0.241 OA
ENDBRANCH  18  22
ENDBRANCH   1  17
TORSDOF 3
