REMARK  Name = ZINC27519756
REMARK  9 active torsions:
REMARK  status: ('A' for Active; 'I' for Inactive)
REMARK    1  A    between atoms: C_1  and  C_2
REMARK    2  A    between atoms: C_7  and  O_8
REMARK    3  A    between atoms: O_8  and  C_9
REMARK    4  A    between atoms: C_9  and  C_10
REMARK    5  A    between atoms: N_12  and  C_13
REMARK    6  A    between atoms: C_13  and  C_14
REMARK    7  A    between atoms: N_16  and  N_17
REMARK    8  A    between atoms: C_18  and  C_19
REMARK    9  A    between atoms: C_24  and  O_25
REMARK                            x       y       z     vdW  Elec       q    Type
REMARK                         _______ _______ _______ _____ _____    ______ ____
ROOT
ATOM      1  C   UNL     1       3.428   7.812   0.010  0.00  0.00    +0.202 C 
ENDROOT
BRANCH   1   4
ATOM      2  C   UNL     1       5.040   9.639   0.004  0.00  0.00    +0.251 C 
ATOM      3  O   UNL     1       4.112  10.419   0.017  0.00  0.00    -0.272 OA
ATOM      4  N   UNL     1       4.805   8.312  -0.001  0.00  0.00    -0.304 N 
ATOM      5  H   UNL     1       5.647   7.604  -0.012  0.00  0.00    +0.149 HD
BRANCH   2   6
ATOM      6  C   UNL     1       6.457  10.153  -0.007  0.00  0.00    +0.324 C 
BRANCH   6   7
ATOM      7  O   UNL     1       6.445  11.582   0.001  0.00  0.00    -0.483 OA
BRANCH   7  14
ATOM      8  C   UNL     1       6.443  14.406   0.003  0.00  0.00    +0.047 C 
ATOM      9  C   UNL     1       7.713  13.595  -0.007  0.00  0.00    -0.007 A 
ATOM     10  C   UNL     1       8.939  14.230  -0.010  0.00  0.00    +0.027 A 
ATOM     11  C   UNL     1      10.105  13.486  -0.025  0.00  0.00    +0.041 A 
ATOM     12  C   UNL     1      10.045  12.103  -0.031  0.00  0.00    +0.023 A 
ATOM     13  C   UNL     1       8.821  11.464  -0.022  0.00  0.00    +0.047 A 
ATOM     14  C   UNL     1       7.651  12.209  -0.007  0.00  0.00    +0.124 A 
ATOM     15 CL   UNL     1      11.645  14.287  -0.036  0.00  0.00    -0.084 Cl
ENDBRANCH   7  14
ENDBRANCH   6   7
ENDBRANCH   2   6
ENDBRANCH   1   4
BRANCH   1  16
ATOM     16  C   UNL     1       3.441   6.305   0.002  0.00  0.00    +0.249 C 
ATOM     17  O   UNL     1       4.496   5.707  -0.011  0.00  0.00    -0.272 OA
ATOM     18  N   UNL     1       2.279   5.621   0.009  0.00  0.00    -0.206 N 
ATOM     19  H   UNL     1       1.322   6.163   0.021  0.00  0.00    +0.177 HD
BRANCH  18  20
ATOM     20  N   UNL     1       2.291   4.220   0.002  0.00  0.00    -0.188 NA
ATOM     21  C   UNL     1       1.172   3.562   0.009  0.00  0.00    +0.142 C 
BRANCH  21  22
ATOM     22  C   UNL     1       1.185   2.088   0.002  0.00  0.00    +0.037 A 
ATOM     23  C   UNL     1      -0.017   1.376   0.010  0.00  0.00    +0.028 A 
ATOM     24  C   UNL     1       0.002  -0.004   0.002  0.00  0.00    +0.019 A 
ATOM     25  C   UNL     1       1.208  -0.686  -0.013  0.00  0.00    +0.019 A 
ATOM     26  C   UNL     1       2.403   0.008  -0.020  0.00  0.00    +0.047 A 
ATOM     27  C   UNL     1       2.402   1.394  -0.013  0.00  0.00    +0.126 A 
ATOM     28 BR   UNL     1      -1.625  -0.968   0.012  0.00  0.00    -0.050 Br
BRANCH  27  29
ATOM     29  O   UNL     1       3.576   2.076  -0.021  0.00  0.00    -0.506 OA
ATOM     30  H   UNL     1       4.530   1.529  -0.033  0.00  0.00    +0.292 HD
ENDBRANCH  27  29
ENDBRANCH  21  22
ENDBRANCH  18  20
ENDBRANCH   1  16
TORSDOF 8
