REMARK  Name = ZINC36569379
REMARK  9 active torsions:
REMARK  status: ('A' for Active; 'I' for Inactive)
REMARK    1  A    between atoms: C_1  and  O_2
REMARK    2  A    between atoms: O_2  and  C_3
REMARK    3  A    between atoms: C_3  and  C_5
REMARK    4  A    between atoms: C_5  and  C_7
REMARK    5  A    between atoms: C_5  and  N_11
REMARK    6  A    between atoms: C_7  and  C_8
REMARK    7  A    between atoms: C_8  and  S_9
REMARK    8  A    between atoms: S_9  and  C_10
REMARK    9  A    between atoms: C_23  and  C_25
REMARK                            x       y       z     vdW  Elec       q    Type
REMARK                         _______ _______ _______ _____ _____    ______ ____
ROOT
ATOM      1  N   UNL     1      -0.321  -2.421   3.389  0.00  0.00    -0.286 N 
ATOM      2  C   UNL     1       1.004  -2.652   3.481  0.00  0.00    +0.304 C 
ATOM      3  O   UNL     1       1.695  -2.632   2.481  0.00  0.00    -0.253 OA
ATOM      4  N   UNL     1       1.563  -2.905   4.681  0.00  0.00    -0.273 N 
ATOM      5  C   UNL     1       3.020  -3.044   4.819  0.00  0.00    +0.116 C 
ATOM      6  C   UNL     1       3.551  -1.910   5.707  0.00  0.00    +0.074 C 
ATOM      7  C   UNL     1       2.651  -1.771   6.906  0.00  0.00    +0.040 A 
ATOM      8  C   UNL     1       1.398  -2.268   6.993  0.00  0.00    +0.062 A 
ATOM      9  N   UNL     1       0.907  -1.949   8.192  0.00  0.00    -0.348 N 
ATOM     10  C   UNL     1       1.808  -1.274   8.858  0.00  0.00    +0.171 A 
ATOM     11  N   UNL     1       2.912  -1.144   8.087  0.00  0.00    -0.349 N 
ATOM     12  H   UNL     1       3.734  -0.690   8.329  0.00  0.00    +0.166 HD
ATOM     13  C   UNL     1       0.728  -3.042   5.888  0.00  0.00    +0.159 C 
ATOM     14  H   UNL     1      -0.884  -2.510   4.174  0.00  0.00    +0.151 HD
ATOM     15  H   UNL     1       0.023  -2.180   8.518  0.00  0.00    +0.167 HD
ENDROOT
BRANCH  13  16
ATOM     16  C   UNL     1       0.623  -4.494   6.277  0.00  0.00    +0.014 A 
ATOM     17  C   UNL     1       1.365  -4.981   7.337  0.00  0.00    +0.010 A 
ATOM     18  C   UNL     1       1.269  -6.313   7.694  0.00  0.00    +0.020 A 
ATOM     19  C   UNL     1       0.430  -7.160   6.991  0.00  0.00    +0.044 A 
ATOM     20  C   UNL     1      -0.313  -6.674   5.931  0.00  0.00    +0.058 A 
ATOM     21  C   UNL     1      -0.221  -5.339   5.576  0.00  0.00    +0.130 A 
ATOM     22  F   UNL     1      -0.950  -4.862   4.544  0.00  0.00    -0.205 F 
ATOM     23 CL   UNL     1       0.311  -8.833   7.440  0.00  0.00    -0.083 Cl
ENDBRANCH  13  16
BRANCH   1  24
ATOM     24  C   UNL     1      -0.910  -2.036   2.104  0.00  0.00    +0.184 C 
BRANCH  24  25
ATOM     25  C   UNL     1      -1.216  -3.274   1.301  0.00  0.00    +0.327 C 
ATOM     26  O   UNL     1      -0.968  -4.365   1.755  0.00  0.00    -0.249 OA
BRANCH  25  28
ATOM     27  C   UNL     1      -2.028  -4.378  -0.625  0.00  0.00    +0.280 C 
ATOM     28  O   UNL     1      -1.765  -3.163   0.081  0.00  0.00    -0.467 OA
ENDBRANCH  25  28
ENDBRANCH  24  25
BRANCH  24  29
ATOM     29  C   UNL     1      -2.202  -1.255   2.350  0.00  0.00    +0.044 C 
BRANCH  29  30
ATOM     30  C   UNL     1      -1.875   0.062   3.057  0.00  0.00    +0.071 C 
BRANCH  30  31
ATOM     31  S   UNL     1      -3.407   0.989   3.347  0.00  0.00    -0.164 S 
ATOM     32  C   UNL     1      -2.854   2.502   4.180  0.00  0.00    +0.084 C 
ENDBRANCH  30  31
ENDBRANCH  29  30
ENDBRANCH  24  29
ENDBRANCH   1  24
TORSDOF 7
