REMARK  Name = ZINC13805389
REMARK  9 active torsions:
REMARK  status: ('A' for Active; 'I' for Inactive)
REMARK    1  A    between atoms: C_1  and  C_2
REMARK    2  A    between atoms: C_4  and  C_34
REMARK    3  A    between atoms: C_5  and  C_9
REMARK    4  A    between atoms: C_6  and  C_8
REMARK    5  A    between atoms: N_10  and  N_11
REMARK    6  A    between atoms: C_12  and  C_14
REMARK    7  A    between atoms: C_15  and  C_25
REMARK    8  A    between atoms: C_25  and  S_26
REMARK    9  A    between atoms: S_26  and  C_27
REMARK                            x       y       z     vdW  Elec       q    Type
REMARK                         _______ _______ _______ _____ _____    ______ ____
ROOT
ATOM      1  C   UNL     1       0.855   4.420  -1.164  0.00  0.00    +0.173 A 
ATOM      2  C   UNL     1       0.750   3.584  -0.088  0.00  0.00    +0.089 A 
ATOM      3  N   UNL     1       0.556   4.366   0.997  0.00  0.00    -0.191 N 
ATOM      4  N   UNL     1       0.542   5.693   0.542  0.00  0.00    -0.058 NA
ATOM      5  N   UNL     1       0.717   5.687  -0.734  0.00  0.00    -0.124 NA
ATOM      6  C   UNL     1       0.400   3.936   2.319  0.00  0.00    +0.240 A 
ATOM      7  C   UNL     1       0.191   4.800   3.484  0.00  0.00    +0.206 A 
ATOM      8  N   UNL     1       0.090   4.045   4.543  0.00  0.00    -0.032 NA
ATOM      9  O   UNL     1       0.225   2.697   4.128  0.00  0.00    -0.239 OA
ATOM     10  N   UNL     1       0.411   2.697   2.724  0.00  0.00    -0.027 NA
ATOM     11  N   UNL     1       0.114   6.188   3.464  0.00  0.00    -0.337 N 
ATOM     12  H   UNL     1       0.201   6.667   2.625  0.00  0.00    +0.144 HD
ATOM     13  H   UNL     1      -0.028   6.678   4.289  0.00  0.00    +0.144 HD
ENDROOT
BRANCH   1  15
ATOM     14  N   UNL     1       1.164   4.932  -3.535  0.00  0.00    -0.202 N 
ATOM     15  C   UNL     1       1.079   4.004  -2.561  0.00  0.00    +0.285 C 
ATOM     16  O   UNL     1       1.187   2.824  -2.834  0.00  0.00    -0.267 OA
ATOM     17  H   UNL     1       1.078   5.873  -3.317  0.00  0.00    +0.178 HD
BRANCH  14  19
ATOM     18  C   UNL     1       1.458   5.429  -5.800  0.00  0.00    +0.138 C 
ATOM     19  N   UNL     1       1.376   4.536  -4.862  0.00  0.00    -0.187 NA
BRANCH  18  24
ATOM     20  C   UNL     1       2.331   3.806 -11.248  0.00  0.00    +0.044 C 
ATOM     21  C   UNL     1       2.103   4.231  -9.820  0.00  0.00    -0.050 A 
ATOM     22  C   UNL     1       1.861   5.562  -9.529  0.00  0.00    +0.007 A 
ATOM     23  C   UNL     1       1.651   5.959  -8.225  0.00  0.00    -0.041 A 
ATOM     24  C   UNL     1       1.682   5.013  -7.197  0.00  0.00    +0.000 A 
ATOM     25  C   UNL     1       1.931   3.672  -7.498  0.00  0.00    -0.041 A 
ATOM     26  C   UNL     1       2.135   3.289  -8.808  0.00  0.00    +0.007 A 
ATOM     27  C   UNL     1       1.972   2.645  -6.396  0.00  0.00    +0.044 C 
ATOM     28  C   UNL     1       1.389   7.409  -7.909  0.00  0.00    +0.044 C 
ENDBRANCH  18  24
ENDBRANCH  14  19
ENDBRANCH   1  15
BRANCH   2  29
ATOM     29  C   UNL     1       0.840   2.080  -0.108  0.00  0.00    +0.132 C 
BRANCH  29  30
ATOM     30  S   UNL     1      -0.816   1.378  -0.347  0.00  0.00    -0.119 S 
BRANCH  30  31
ATOM     31  C   UNL     1      -0.545  -0.363  -0.346  0.00  0.00    +0.008 A 
ATOM     32  C   UNL     1       0.740  -0.867  -0.188  0.00  0.00    +0.016 A 
ATOM     33  C   UNL     1       0.949  -2.232  -0.183  0.00  0.00    +0.021 A 
ATOM     34  C   UNL     1      -0.119  -3.097  -0.346  0.00  0.00    +0.041 A 
ATOM     35  C   UNL     1      -1.400  -2.598  -0.509  0.00  0.00    +0.021 A 
ATOM     36  C   UNL     1      -1.615  -1.234  -0.510  0.00  0.00    +0.016 A 
ATOM     37 CL   UNL     1       0.147  -4.813  -0.345  0.00  0.00    -0.084 Cl
ENDBRANCH  30  31
ENDBRANCH  29  30
ENDBRANCH   2  29
TORSDOF 6
