REMARK  Name = ZINC21605020
REMARK  11 active torsions:
REMARK  status: ('A' for Active; 'I' for Inactive)
REMARK    1  A    between atoms: C_1  and  C_2
REMARK    2  A    between atoms: C_2  and  C_4
REMARK    3  A    between atoms: C_2  and  S_19
REMARK    4  A    between atoms: N_6  and  C_7
REMARK    5  A    between atoms: S_19  and  C_20
REMARK    6  A    between atoms: C_23  and  S_25
REMARK    7  A    between atoms: S_25  and  C_26
REMARK    8  A    between atoms: C_26  and  C_27
REMARK    9  A    between atoms: C_30  and  C_33
REMARK   10  A    between atoms: C_33  and  C_34
REMARK   11  A    between atoms: C_33  and  C_35
REMARK                            x       y       z     vdW  Elec       q    Type
REMARK                         _______ _______ _______ _____ _____    ______ ____
ROOT
ATOM      1  C   UNL     1      -0.016   1.520  -0.004  0.00  0.00    +0.029 C 
ATOM      2  C   UNL     1       0.002  -0.010  -0.001  0.00  0.00    +0.136 C 
ENDROOT
BRANCH   2   3
ATOM      3  C   UNL     1       0.731  -0.501   1.224  0.00  0.00    +0.230 C 
ATOM      4  O   UNL     1       0.105  -0.881   2.191  0.00  0.00    -0.274 OA
ATOM      5  N   UNL     1       2.079  -0.519   1.244  0.00  0.00    -0.285 N 
ATOM      6  H   UNL     1       2.579  -0.279   0.448  0.00  0.00    +0.155 HD
BRANCH   5   7
ATOM      7  C   UNL     1       2.757  -0.883   2.414  0.00  0.00    +0.035 A 
ATOM      8  C   UNL     1       3.958  -0.264   2.742  0.00  0.00    +0.025 A 
ATOM      9  C   UNL     1       4.630  -0.618   3.893  0.00  0.00    +0.029 A 
ATOM     10  C   UNL     1       4.108  -1.595   4.728  0.00  0.00    +0.067 A 
ATOM     11  C   UNL     1       2.902  -2.219   4.402  0.00  0.00    +0.069 A 
ATOM     12  C   UNL     1       2.226  -1.857   3.247  0.00  0.00    +0.051 A 
ATOM     13  N   UNL     1       2.638  -3.139   5.413  0.00  0.00    -0.306 N 
ATOM     14  H   UNL     1       1.866  -3.725   5.461  0.00  0.00    +0.170 HD
ATOM     15  C   UNL     1       3.637  -3.079   6.314  0.00  0.00    +0.325 A 
ATOM     16  O   UNL     1       3.713  -3.755   7.322  0.00  0.00    -0.247 OA
ATOM     17  N   UNL     1       4.540  -2.157   5.929  0.00  0.00    -0.306 N 
ATOM     18  H   UNL     1       5.352  -1.923   6.405  0.00  0.00    +0.170 HD
ENDBRANCH   5   7
ENDBRANCH   2   3
BRANCH   2  19
ATOM     19  S   UNL     1      -1.701  -0.635   0.018  0.00  0.00    -0.084 S 
BRANCH  19  20
ATOM     20  C   UNL     1      -2.365  -0.107  -1.526  0.00  0.00    +0.160 A 
ATOM     21  N   UNL     1      -1.788   0.577  -2.495  0.00  0.00    -0.134 NA
ATOM     22  N   UNL     1      -2.498   0.886  -3.632  0.00  0.00    -0.134 NA
ATOM     23  C   UNL     1      -3.753   0.498  -3.748  0.00  0.00    +0.160 A 
ATOM     24  S   UNL     1      -3.999  -0.362  -2.201  0.00  0.00    -0.033 S 
BRANCH  23  25
ATOM     25  S   UNL     1      -4.883   0.753  -5.076  0.00  0.00    -0.092 S 
BRANCH  25  26
ATOM     26  C   UNL     1      -3.923   1.695  -6.293  0.00  0.00    +0.111 C 
BRANCH  26  27
ATOM     27  C   UNL     1      -4.784   1.984  -7.496  0.00  0.00    -0.037 A 
ATOM     28  C   UNL     1      -4.820   1.090  -8.551  0.00  0.00    +0.005 A 
ATOM     29  C   UNL     1      -5.609   1.355  -9.654  0.00  0.00    +0.004 A 
ATOM     30  C   UNL     1      -6.362   2.513  -9.703  0.00  0.00    -0.045 A 
ATOM     31  C   UNL     1      -6.327   3.406  -8.648  0.00  0.00    +0.004 A 
ATOM     32  C   UNL     1      -5.541   3.139  -7.543  0.00  0.00    +0.005 A 
BRANCH  30  33
ATOM     33  C   UNL     1      -7.222   2.802 -10.907  0.00  0.00    +0.013 C 
ATOM     34  C   UNL     1      -8.685   2.919 -10.473  0.00  0.00    +0.012 C 
ATOM     35  C   UNL     1      -6.774   4.117 -11.549  0.00  0.00    +0.012 C 
ENDBRANCH  30  33
ENDBRANCH  26  27
ENDBRANCH  25  26
ENDBRANCH  23  25
ENDBRANCH  19  20
ENDBRANCH   2  19
TORSDOF 8
