REMARK  Name = ZINC51361864
REMARK  4 active torsions:
REMARK  status: ('A' for Active; 'I' for Inactive)
REMARK    1  A    between atoms: C_1  and  N_2
REMARK    2  A    between atoms: C_6  and  C_12
REMARK    3  A    between atoms: C_12  and  C_14
REMARK    4  A    between atoms: C_12  and  N_22
REMARK                            x       y       z     vdW  Elec       q    Type
REMARK                         _______ _______ _______ _____ _____    ______ ____
ROOT
ATOM      1  C   UNL     1      -3.837  -4.135  -0.000  0.00  0.00    -0.012 C 
ENDROOT
BRANCH   1   7
ATOM      2  C   UNL     1      -0.018   1.461   0.010  0.00  0.00    +0.156 C 
ATOM      3  N   UNL     1       0.002  -0.004   0.002  0.00  0.00    -0.277 N 
ATOM      4  C   UNL     1      -1.111  -0.844   0.003  0.00  0.00    +0.090 A 
ATOM      5  C   UNL     1      -2.478  -0.613   0.010  0.00  0.00    +0.030 A 
ATOM      6  C   UNL     1      -3.355  -1.680   0.009  0.00  0.00    +0.004 A 
ATOM      7  C   UNL     1      -2.873  -2.977   0.000  0.00  0.00    -0.054 A 
ATOM      8  C   UNL     1      -1.513  -3.215  -0.008  0.00  0.00    +0.050 A 
ATOM      9  C   UNL     1      -0.625  -2.151  -0.007  0.00  0.00    +0.157 A 
ATOM     10  O   UNL     1       0.729  -2.076  -0.013  0.00  0.00    -0.407 OA
ATOM     11  C   UNL     1       1.100  -0.786  -0.013  0.00  0.00    +0.421 A 
ATOM     12  O   UNL     1       2.248  -0.385  -0.022  0.00  0.00    -0.223 OA
ENDBRANCH   1   7
BRANCH   1  13
ATOM     13  C   UNL     1      -4.356  -4.357  -1.398  0.00  0.00    -0.039 A 
ATOM     14  C   UNL     1      -5.550  -3.783  -1.791  0.00  0.00    +0.005 A 
ATOM     15  C   UNL     1      -6.026  -3.986  -3.072  0.00  0.00    +0.015 A 
ATOM     16  C   UNL     1      -5.307  -4.763  -3.963  0.00  0.00    +0.019 A 
ATOM     17  C   UNL     1      -4.112  -5.337  -3.570  0.00  0.00    +0.035 A 
ATOM     18  C   UNL     1      -3.633  -5.130  -2.289  0.00  0.00    +0.044 A 
ATOM     19 CL   UNL     1      -2.130  -5.845  -1.798  0.00  0.00    -0.083 Cl
ATOM     20 BR   UNL     1      -5.960  -5.042  -5.716  0.00  0.00    -0.050 Br
ENDBRANCH   1  13
BRANCH   1  21
ATOM     21  N   UNL     1      -4.961  -3.837   0.897  0.00  0.00    +0.385 N 
ATOM     22  H   UNL     1      -4.614  -3.689   1.833  0.00  0.00    -0.089 HD
ATOM     23  H   UNL     1      -5.435  -3.005   0.579  0.00  0.00    -0.089 HD
ATOM     24  H   UNL     1      -5.607  -4.613   0.897  0.00  0.00    -0.089 HD
ENDBRANCH   1  21
TORSDOF 3
