REMARK  Name = ZINC63795253
REMARK  9 active torsions:
REMARK  status: ('A' for Active; 'I' for Inactive)
REMARK    1  A    between atoms: C_1  and  O_2
REMARK    2  A    between atoms: O_2  and  C_3
REMARK    3  A    between atoms: C_9  and  C_12
REMARK    4  A    between atoms: C_12  and  C_13
REMARK    5  A    between atoms: C_13  and  N_14
REMARK    6  A    between atoms: C_15  and  C_33
REMARK    7  A    between atoms: C_19  and  C_27
REMARK    8  A    between atoms: C_38  and  O_39
REMARK    9  A    between atoms: O_39  and  C_40
REMARK                            x       y       z     vdW  Elec       q    Type
REMARK                         _______ _______ _______ _____ _____    ______ ____
ROOT
ATOM      1  N   UNL     1       1.793  -6.755  -0.031  0.00  0.00    -0.292 N 
ATOM      2  C   UNL     1       1.937  -8.188   0.385  0.00  0.00    +0.118 C 
ATOM      3  C   UNL     1       1.930  -8.871  -0.929  0.00  0.00    +0.077 C 
ATOM      4  C   UNL     1       1.512 -10.203  -1.438  0.00  0.00    +0.136 C 
ATOM      5  N   UNL     1       1.167  -9.826  -2.848  0.00  0.00    -0.305 N 
ATOM      6  N   UNL     1       0.780  -8.627  -2.912  0.00  0.00    -0.203 NA
ATOM      7  C   UNL     1       0.697  -8.080  -1.563  0.00  0.00    +0.218 C 
ATOM      8  C   UNL     1       1.183  -6.694  -1.259  0.00  0.00    +0.243 C 
ATOM      9  O   UNL     1       1.062  -5.713  -1.962  0.00  0.00    -0.273 OA
ATOM     10  H   UNL     1       1.234 -10.424  -3.609  0.00  0.00    +0.183 HD
ENDROOT
BRANCH   4  11
ATOM     11  C   UNL     1       2.649 -11.191  -1.394  0.00  0.00    -0.023 A 
ATOM     12  C   UNL     1       3.616 -11.177  -2.381  0.00  0.00    +0.006 A 
ATOM     13  C   UNL     1       4.659 -12.083  -2.340  0.00  0.00    +0.000 A 
ATOM     14  C   UNL     1       4.735 -13.003  -1.312  0.00  0.00    +0.000 A 
ATOM     15  C   UNL     1       3.768 -13.017  -0.324  0.00  0.00    +0.000 A 
ATOM     16  C   UNL     1       2.728 -12.108  -0.362  0.00  0.00    +0.006 A 
ENDBRANCH   4  11
BRANCH   2  17
ATOM     17  C   UNL     1       0.770  -8.626   1.231  0.00  0.00    +0.015 A 
ATOM     18  C   UNL     1      -0.441  -7.968   1.133  0.00  0.00    +0.009 A 
ATOM     19  C   UNL     1      -1.512  -8.370   1.909  0.00  0.00    +0.001 A 
ATOM     20  C   UNL     1      -1.375  -9.430   2.786  0.00  0.00    +0.004 A 
ATOM     21  C   UNL     1      -0.167 -10.092   2.887  0.00  0.00    +0.046 A 
ATOM     22  C   UNL     1       0.908  -9.694   2.106  0.00  0.00    +0.125 A 
BRANCH  22  23
ATOM     23  O   UNL     1       2.097 -10.347   2.200  0.00  0.00    -0.495 OA
ATOM     24  C   UNL     1       2.167 -11.437   3.121  0.00  0.00    +0.277 C 
ENDBRANCH  22  23
ENDBRANCH   2  17
BRANCH   1  25
ATOM     25  C   UNL     1       2.230  -5.598   0.754  0.00  0.00    +0.113 C 
BRANCH  25  26
ATOM     26  C   UNL     1       1.092  -5.144   1.671  0.00  0.00    +0.052 C 
BRANCH  26  33
ATOM     27  C   UNL     1       0.626  -0.619   1.042  0.00  0.00    +0.121 A 
ATOM     28  C   UNL     1       1.202   0.173   2.051  0.00  0.00    +0.047 A 
ATOM     29  C   UNL     1       1.839  -0.358   3.116  0.00  0.00    +0.029 A 
ATOM     30  C   UNL     1       1.947  -1.815   3.248  0.00  0.00    +0.043 A 
ATOM     31  N   UNL     1       2.500  -2.573   4.161  0.00  0.00    -0.380 N 
ATOM     32  C   UNL     1       2.308  -3.978   3.782  0.00  0.00    +0.144 C 
ATOM     33  C   UNL     1       1.541  -3.954   2.479  0.00  0.00    -0.040 C 
ATOM     34  C   UNL     1       1.340  -2.650   2.185  0.00  0.00    +0.002 A 
ATOM     35  C   UNL     1       0.667  -1.972   1.072  0.00  0.00    +0.055 A 
ATOM     36  H   UNL     1       2.961  -2.259   4.955  0.00  0.00    +0.160 HD
BRANCH  27  38
ATOM     37  C   UNL     1      -0.017   1.425   0.010  0.00  0.00    +0.277 C 
ATOM     38  O   UNL     1       0.002  -0.004   0.002  0.00  0.00    -0.495 OA
ENDBRANCH  27  38
ENDBRANCH  26  33
ENDBRANCH  25  26
ENDBRANCH   1  25
TORSDOF 7
