REMARK  Name = ZINC00728578
REMARK  5 active torsions:
REMARK  status: ('A' for Active; 'I' for Inactive)
REMARK    1  A    between atoms: C_1  and  C_2
REMARK    2  A    between atoms: C_2  and  C_31
REMARK    3  A    between atoms: C_6  and  C_14
REMARK    4  A    between atoms: C_8  and  C_12
REMARK    5  A    between atoms: C_9  and  N_11
REMARK                            x       y       z     vdW  Elec       q    Type
REMARK                         _______ _______ _______ _____ _____    ______ ____
ROOT
ATOM      1  C   UNL     1      -2.116   0.709   3.731  0.00  0.00    +0.012 C 
ATOM      2  C   UNL     1      -1.780  -0.781   3.828  0.00  0.00    -0.021 C 
ATOM      3  C   UNL     1      -2.401  -1.526   2.645  0.00  0.00    +0.081 C 
ATOM      4  C   UNL     1      -1.831  -0.991   1.351  0.00  0.00    +0.115 C 
ATOM      5  C   UNL     1      -0.575  -0.520   1.298  0.00  0.00    +0.046 C 
ATOM      6  C   UNL     1       0.002  -0.004   0.002  0.00  0.00    +0.102 C 
ATOM      7  C   UNL     1      -0.810  -0.507  -1.158  0.00  0.00    +0.098 C 
ATOM      8  C   UNL     1      -2.066  -0.979  -0.963  0.00  0.00    +0.198 C 
ATOM      9  O   UNL     1      -2.619  -1.007   0.260  0.00  0.00    -0.445 OA
ATOM     10  C   UNL     1       0.246  -0.490   2.445  0.00  0.00    +0.164 C 
ATOM     11  O   UNL     1       1.382  -0.069   2.355  0.00  0.00    -0.292 OA
ATOM     12  C   UNL     1      -0.260  -0.970   3.778  0.00  0.00    +0.086 C 
ATOM     13  C   UNL     1      -2.330  -1.347   5.138  0.00  0.00    +0.012 C 
ENDROOT
BRANCH   6  14
ATOM     14  C   UNL     1      -0.018   1.503   0.010  0.00  0.00    -0.019 A 
ATOM     15  C   UNL     1       1.174   2.220   0.087  0.00  0.00    -0.013 A 
ATOM     16  C   UNL     1       2.419   1.558   0.159  0.00  0.00    +0.009 A 
ATOM     17  C   UNL     1       3.562   2.286   0.234  0.00  0.00    +0.001 A 
ATOM     18  C   UNL     1       3.543   3.682   0.241  0.00  0.00    +0.001 A 
ATOM     19  C   UNL     1       2.382   4.380   0.162  0.00  0.00    +0.008 A 
ATOM     20  C   UNL     1       1.155   3.686   0.090  0.00  0.00    -0.017 A 
ATOM     21  C   UNL     1      -0.057   4.372   0.026  0.00  0.00    +0.017 A 
ATOM     22  C   UNL     1      -1.250   3.654  -0.045  0.00  0.00    -0.017 A 
ATOM     23  C   UNL     1      -1.230   2.188  -0.053  0.00  0.00    -0.013 A 
ATOM     24  C   UNL     1      -2.457   1.493  -0.126  0.00  0.00    +0.009 A 
ATOM     25  C   UNL     1      -3.619   2.191  -0.186  0.00  0.00    +0.001 A 
ATOM     26  C   UNL     1      -3.638   3.587  -0.179  0.00  0.00    +0.001 A 
ATOM     27  C   UNL     1      -2.496   4.316  -0.110  0.00  0.00    +0.008 A 
ENDBRANCH   6  14
BRANCH   8  28
ATOM     28  N   UNL     1      -2.787  -1.437  -2.037  0.00  0.00    -0.328 N 
ATOM     29  H   UNL     1      -2.397  -1.422  -2.925  0.00  0.00    +0.145 HD
ATOM     30  H   UNL     1      -3.686  -1.777  -1.909  0.00  0.00    +0.145 HD
ENDBRANCH   8  28
BRANCH   7  31
ATOM     31  C   UNL     1      -0.255  -0.488  -2.478  0.00  0.00    +0.101 C 
ATOM     32  N   UNL     1       0.186  -0.473  -3.525  0.00  0.00    -0.191 NA
ENDBRANCH   7  31
TORSDOF 3
