REMARK  Name = ZINC67617261
REMARK  5 active torsions:
REMARK  status: ('A' for Active; 'I' for Inactive)
REMARK    1  A    between atoms: C_4  and  C_7
REMARK    2  A    between atoms: C_10  and  N_12
REMARK    3  A    between atoms: N_15  and  C_16
REMARK    4  A    between atoms: C_16  and  C_17
REMARK    5  A    between atoms: C_20  and  N_23
REMARK                            x       y       z     vdW  Elec       q    Type
REMARK                         _______ _______ _______ _____ _____    ______ ____
ROOT
ATOM      1  N   UNL     1       5.397  -1.715   1.593  0.00  0.00    -0.296 N 
ATOM      2  C   UNL     1       5.668  -2.107   2.853  0.00  0.00    +0.300 C 
ATOM      3  O   UNL     1       4.760  -2.374   3.616  0.00  0.00    -0.253 OA
ATOM      4  N   UNL     1       6.947  -2.203   3.268  0.00  0.00    -0.295 N 
ATOM      5  H   UNL     1       6.121  -1.502   0.984  0.00  0.00    +0.151 HD
ATOM      6  H   UNL     1       7.672  -1.990   2.660  0.00  0.00    +0.151 HD
ENDROOT
BRANCH   1   9
ATOM      7  C   UNL     1       3.709  -0.651  -0.012  0.00  0.00    +0.041 C 
ATOM      8  C   UNL     1       3.671  -2.163  -0.246  0.00  0.00    +0.033 C 
ATOM      9  C   UNL     1       4.007  -1.611   1.142  0.00  0.00    +0.082 C 
BRANCH   7  13
ATOM     10  C   UNL     1      -0.023   1.426   0.062  0.00  0.00    +0.000 A 
ATOM     11  C   UNL     1       1.163   2.136   0.064  0.00  0.00    +0.000 A 
ATOM     12  C   UNL     1       2.371   1.464   0.040  0.00  0.00    +0.004 A 
ATOM     13  C   UNL     1       2.392   0.082   0.015  0.00  0.00    -0.042 A 
ATOM     14  C   UNL     1       1.206  -0.628   0.013  0.00  0.00    +0.004 A 
ATOM     15  C   UNL     1      -0.002   0.044   0.036  0.00  0.00    +0.000 A 
ENDBRANCH   7  13
ENDBRANCH   1   9
BRANCH   4  16
ATOM     16  C   UNL     1       7.242  -2.629   4.638  0.00  0.00    +0.141 C 
BRANCH  16  17
ATOM     17  C   UNL     1       8.735  -2.653   4.846  0.00  0.00    -0.030 A 
ATOM     18  C   UNL     1       9.451  -3.804   4.574  0.00  0.00    +0.007 A 
ATOM     19  C   UNL     1      10.819  -3.830   4.763  0.00  0.00    +0.023 A 
ATOM     20  C   UNL     1      11.475  -2.697   5.228  0.00  0.00    +0.030 A 
ATOM     21  C   UNL     1      10.753  -1.543   5.500  0.00  0.00    +0.023 A 
ATOM     22  C   UNL     1       9.386  -1.522   5.304  0.00  0.00    +0.007 A 
BRANCH  20  23
ATOM     23  N   UNL     1      12.858  -2.720   5.421  0.00  0.00    -0.320 N 
ATOM     24  C   UNL     1      13.599  -1.504   5.797  0.00  0.00    +0.124 C 
ATOM     25  C   UNL     1      14.254  -1.746   7.158  0.00  0.00    +0.123 C 
ATOM     26  N   UNL     1      14.921  -3.041   7.188  0.00  0.00    -0.313 N 
ATOM     27  C   UNL     1      14.633  -4.059   6.377  0.00  0.00    +0.230 C 
ATOM     28  O   UNL     1      15.203  -5.116   6.550  0.00  0.00    -0.274 OA
ATOM     29  C   UNL     1      13.633  -3.960   5.263  0.00  0.00    +0.200 C 
ATOM     30  H   UNL     1      15.624  -3.171   7.843  0.00  0.00    +0.149 HD
ENDBRANCH  20  23
ENDBRANCH  16  17
ENDBRANCH   4  16
TORSDOF 5
