REMARK  Name = ZINC21730431
REMARK  2 active torsions:
REMARK  status: ('A' for Active; 'I' for Inactive)
REMARK    1  A    between atoms: C_3  and  C_9
REMARK    2  A    between atoms: C_11  and  C_14
REMARK                            x       y       z     vdW  Elec       q    Type
REMARK                         _______ _______ _______ _____ _____    ______ ____
ROOT
ATOM      1  C   UNL     1       3.669   2.092  -0.022  0.00  0.00    +0.264 A 
ATOM      2  N   UNL     1       4.863   1.541  -0.042  0.00  0.00    -0.187 NA
ATOM      3  C   UNL     1       5.806   2.495  -0.044  0.00  0.00    +0.202 A 
ATOM      4  N   UNL     1       5.223   3.669  -0.026  0.00  0.00    -0.056 NA
ATOM      5  O   UNL     1       3.824   3.429  -0.018  0.00  0.00    -0.332 OA
ENDROOT
BRANCH   1   8
ATOM      6  C   UNL     1      -0.016   1.352   0.009  0.00  0.00    +0.018 A 
ATOM      7  C   UNL     1       1.182   2.069   0.002  0.00  0.00    +0.020 A 
ATOM      8  C   UNL     1       2.385   1.371  -0.013  0.00  0.00    +0.104 A 
ATOM      9  C   UNL     1       2.354  -0.047  -0.021  0.00  0.00    +0.261 A 
ATOM     10  O   UNL     1       3.395  -0.681  -0.034  0.00  0.00    -0.267 OA
ATOM     11  N   UNL     1       1.171  -0.691  -0.013  0.00  0.00    -0.328 N 
ATOM     12  H   UNL     1       1.155  -1.660  -0.018  0.00  0.00    +0.168 HD
ATOM     13  C   UNL     1       0.002  -0.004   0.002  0.00  0.00    +0.086 A 
ENDBRANCH   1   8
BRANCH   3  14
ATOM     14  C   UNL     1       7.272   2.260  -0.064  0.00  0.00    +0.023 A 
ATOM     15  C   UNL     1       7.771   0.959  -0.088  0.00  0.00    +0.013 A 
ATOM     16  C   UNL     1       9.134   0.746  -0.106  0.00  0.00    +0.021 A 
ATOM     17  C   UNL     1      10.005   1.821  -0.101  0.00  0.00    +0.041 A 
ATOM     18  C   UNL     1       9.515   3.115  -0.077  0.00  0.00    +0.021 A 
ATOM     19  C   UNL     1       8.153   3.339  -0.065  0.00  0.00    +0.013 A 
ATOM     20 CL   UNL     1      11.719   1.546  -0.124  0.00  0.00    -0.084 Cl
ENDBRANCH   3  14
TORSDOF 2
