REMARK  Name = ZINC04554389
REMARK  12 active torsions:
REMARK  status: ('A' for Active; 'I' for Inactive)
REMARK    1  A    between atoms: C_1  and  C_2
REMARK    2  A    between atoms: C_2  and  O_3
REMARK    3  A    between atoms: O_3  and  C_4
REMARK    4  A    between atoms: C_7  and  N_10
REMARK    5  A    between atoms: C_11  and  C_13
REMARK    6  A    between atoms: C_17  and  N_18
REMARK    7  A    between atoms: C_19  and  C_21
REMARK    8  A    between atoms: C_21  and  N_60
REMARK    9  A    between atoms: C_22  and  C_23
REMARK   10  A    between atoms: C_22  and  C_24
REMARK   11  A    between atoms: C_22  and  N_60
REMARK   12  A    between atoms: C_26  and  C_30
REMARK                            x       y       z     vdW  Elec       q    Type
REMARK                         _______ _______ _______ _____ _____    ______ ____
ROOT
ATOM      1  C   UNL     1      -0.576   1.486   5.094  0.00  0.00    +0.069 A 
ATOM      2  C   UNL     1      -1.526   1.939   6.095  0.00  0.00    -0.023 A 
ATOM      3  C   UNL     1      -2.548   2.684   5.622  0.00  0.00    -0.004 A 
ATOM      4  S   UNL     1      -2.260   2.794   3.879  0.00  0.00    -0.077 S 
ATOM      5  C   UNL     1      -0.801   1.864   3.778  0.00  0.00    +0.084 A 
ATOM      6  C   UNL     1      -3.672   3.281   6.412  0.00  0.00    +0.046 C 
ATOM      7  C   UNL     1      -3.293   3.239   7.900  0.00  0.00    -0.009 C 
ATOM      8  C   UNL     1      -2.776   1.837   8.237  0.00  0.00    +0.008 C 
ATOM      9  C   UNL     1      -1.414   1.613   7.579  0.00  0.00    +0.037 C 
ATOM     10  C   UNL     1      -4.525   3.550   8.752  0.00  0.00    +0.008 C 
ENDROOT
BRANCH   1  12
ATOM     11  N   UNL     1       0.478  -0.681   5.460  0.00  0.00    -0.281 N 
ATOM     12  C   UNL     1       0.581   0.662   5.461  0.00  0.00    +0.251 C 
ATOM     13  O   UNL     1       1.633   1.193   5.766  0.00  0.00    -0.270 OA
ATOM     14  H   UNL     1      -0.379  -1.103   5.291  0.00  0.00    +0.155 HD
BRANCH  11  18
ATOM     15  C   UNL     1       3.848  -3.029   6.180  0.00  0.00    +0.121 A 
ATOM     16  C   UNL     1       2.599  -3.460   6.604  0.00  0.00    +0.047 A 
ATOM     17  C   UNL     1       1.483  -2.683   6.366  0.00  0.00    +0.027 A 
ATOM     18  C   UNL     1       1.610  -1.470   5.702  0.00  0.00    +0.034 A 
ATOM     19  C   UNL     1       2.860  -1.042   5.273  0.00  0.00    +0.027 A 
ATOM     20  C   UNL     1       3.976  -1.818   5.516  0.00  0.00    +0.047 A 
BRANCH  15  21
ATOM     21  O   UNL     1       4.947  -3.795   6.414  0.00  0.00    -0.492 OA
BRANCH  21  23
ATOM     22  C   UNL     1       7.311  -4.282   6.302  0.00  0.00    +0.048 C 
ATOM     23  C   UNL     1       6.200  -3.291   5.949  0.00  0.00    +0.225 C 
ENDBRANCH  21  23
ENDBRANCH  15  21
ENDBRANCH  11  18
ENDBRANCH   1  12
BRANCH   5  24
ATOM     24  N   UNL     1      -0.046   1.566   2.654  0.00  0.00    -0.281 N 
ATOM     25  C   UNL     1      -0.428   2.021   1.444  0.00  0.00    +0.201 C 
ATOM     26  O   UNL     1      -1.433   2.692   1.339  0.00  0.00    -0.278 OA
ATOM     27  H   UNL     1       0.758   1.029   2.738  0.00  0.00    +0.155 HD
BRANCH  25  28
ATOM     28  C   UNL     1       0.393   1.697   0.223  0.00  0.00    +0.015 C 
BRANCH  28  29
ATOM     29  N   UNL     1      -0.239   2.310  -0.961  0.00  0.00    +0.386 N 
ATOM     30  H   UNL     1      -0.285   3.327  -0.832  0.00  0.00    -0.085 HD
ATOM     31  H   UNL     1      -1.189   1.935  -1.070  0.00  0.00    -0.085 HD
BRANCH  29  32
ATOM     32  C   UNL     1       0.545   2.008  -2.173  0.00  0.00    -0.078 C 
ATOM     33  C   UNL     1       0.121   0.647  -2.730  0.00  0.00    -0.014 C 
ATOM     34  C   UNL     1       0.284   3.091  -3.222  0.00  0.00    -0.014 C 
ENDBRANCH  29  32
ENDBRANCH  28  29
ENDBRANCH  25  28
ENDBRANCH   5  24
TORSDOF 8
