REMARK  Name = ZINC11958532
REMARK  11 active torsions:
REMARK  status: ('A' for Active; 'I' for Inactive)
REMARK    1  A    between atoms: C_1  and  C_2
REMARK    2  A    between atoms: C_2  and  C_3
REMARK    3  A    between atoms: C_2  and  C_4
REMARK    4  A    between atoms: C_2  and  C_5
REMARK    5  A    between atoms: C_8  and  N_11
REMARK    6  A    between atoms: C_16  and  N_60
REMARK    7  A    between atoms: C_21  and  C_22
REMARK    8  A    between atoms: C_21  and  N_60
REMARK    9  A    between atoms: C_25  and  O_30
REMARK   10  A    between atoms: C_26  and  O_28
REMARK   11  A    between atoms: O_28  and  C_29
REMARK                            x       y       z     vdW  Elec       q    Type
REMARK                         _______ _______ _______ _____ _____    ______ ____
ROOT
ATOM      1  N   UNL     1      -2.429   1.039   0.019  0.00  0.00    -0.237 N 
ATOM      2  C   UNL     1      -3.532   1.344   0.729  0.00  0.00    +0.047 A 
ATOM      3  C   UNL     1      -4.476   0.409   0.452  0.00  0.00    -0.020 A 
ATOM      4  C   UNL     1      -3.929  -0.500  -0.451  0.00  0.00    +0.137 A 
ATOM      5  N   UNL     1      -2.701  -0.126  -0.714  0.00  0.00    -0.174 NA
ATOM      6  C   UNL     1      -5.860   0.401   1.053  0.00  0.00    -0.037 C 
ATOM      7  C   UNL     1      -5.862   1.327   2.275  0.00  0.00    -0.011 C 
ATOM      8  C   UNL     1      -5.250   2.678   1.894  0.00  0.00    +0.005 C 
ATOM      9  C   UNL     1      -3.744   2.511   1.661  0.00  0.00    +0.056 C 
ENDROOT
BRANCH   1  13
ATOM     10  C   UNL     1       1.153   3.171   0.013  0.00  0.00    -0.042 A 
ATOM     11  C   UNL     1       0.638   2.684  -1.174  0.00  0.00    +0.006 A 
ATOM     12  C   UNL     1      -0.547   1.974  -1.175  0.00  0.00    +0.028 A 
ATOM     13  C   UNL     1      -1.224   1.754   0.017  0.00  0.00    +0.066 A 
ATOM     14  C   UNL     1      -0.702   2.241   1.208  0.00  0.00    +0.028 A 
ATOM     15  C   UNL     1       0.483   2.950   1.203  0.00  0.00    +0.006 A 
BRANCH  10  17
ATOM     16  C   UNL     1       2.293   5.190  -0.867  0.00  0.00    +0.015 C 
ATOM     17  C   UNL     1       2.446   3.945   0.010  0.00  0.00    -0.013 C 
ATOM     18  C   UNL     1       2.790   4.367   1.440  0.00  0.00    +0.015 C 
ATOM     19  C   UNL     1       3.566   3.064  -0.545  0.00  0.00    +0.015 C 
ENDBRANCH  10  17
ENDBRANCH   1  13
BRANCH   6  20
ATOM     20  N   UNL     1      -6.210  -0.968   1.476  0.00  0.00    +0.386 N 
ATOM     21  H   UNL     1      -6.909  -0.922   2.227  0.00  0.00    -0.085 HD
ATOM     22  H   UNL     1      -5.367  -1.442   1.821  0.00  0.00    -0.085 HD
BRANCH  20  23
ATOM     23  C   UNL     1      -6.766  -1.729   0.341  0.00  0.00    -0.046 C 
BRANCH  23  24
ATOM     24  C   UNL     1      -7.114  -3.120   0.801  0.00  0.00    -0.061 A 
ATOM     25  C   UNL     1      -8.375  -3.386   1.303  0.00  0.00    +0.005 A 
ATOM     26  C   UNL     1      -8.699  -4.661   1.727  0.00  0.00    +0.049 A 
ATOM     27  C   UNL     1      -7.760  -5.677   1.649  0.00  0.00    +0.158 A 
ATOM     28  C   UNL     1      -6.491  -5.410   1.144  0.00  0.00    +0.161 A 
ATOM     29  C   UNL     1      -6.174  -4.130   0.717  0.00  0.00    +0.051 A 
BRANCH  28  30
ATOM     30  O   UNL     1      -5.566  -6.403   1.067  0.00  0.00    -0.491 OA
ATOM     31  C   UNL     1      -4.284  -6.056   0.537  0.00  0.00    +0.277 C 
ENDBRANCH  28  30
BRANCH  27  32
ATOM     32  O   UNL     1      -8.077  -6.932   2.066  0.00  0.00    -0.503 OA
ATOM     33  H   UNL     1      -8.451  -7.493   1.373  0.00  0.00    +0.292 HD
ENDBRANCH  27  32
ENDBRANCH  23  24
ENDBRANCH  20  23
ENDBRANCH   6  20
TORSDOF 7
