REMARK  Name = ZINC67164359
REMARK  9 active torsions:
REMARK  status: ('A' for Active; 'I' for Inactive)
REMARK    1  A    between atoms: C_1  and  C_2
REMARK    2  A    between atoms: N_5  and  C_8
REMARK    3  A    between atoms: C_8  and  C_9
REMARK    4  A    between atoms: C_9  and  N_10
REMARK    5  A    between atoms: C_11  and  C_13
REMARK    6  A    between atoms: C_13  and  C_14
REMARK    7  A    between atoms: C_14  and  C_15
REMARK    8  A    between atoms: C_15  and  C_16
REMARK    9  A    between atoms: C_16  and  C_17
REMARK                            x       y       z     vdW  Elec       q    Type
REMARK                         _______ _______ _______ _____ _____    ______ ____
ROOT
ATOM      1  C   UNL     1       0.271  -7.963   4.055  0.00  0.00    +0.096 C 
ENDROOT
BRANCH   1   3
ATOM      2  N   UNL     1      -0.177  -5.848   2.853  0.00  0.00    -0.317 N 
ATOM      3  C   UNL     1       0.315  -6.460   3.949  0.00  0.00    +0.213 C 
ATOM      4  O   UNL     1       0.792  -5.802   4.849  0.00  0.00    -0.276 OA
ATOM      5  H   UNL     1      -0.558  -6.374   2.134  0.00  0.00    +0.149 HD
BRANCH   2   6
ATOM      6  C   UNL     1      -0.134  -4.387   2.750  0.00  0.00    +0.085 C 
BRANCH   6   7
ATOM      7  C   UNL     1      -0.750  -3.952   1.419  0.00  0.00    -0.060 C 
BRANCH   7  12
ATOM      8  C   UNL     1      -0.019   1.526   0.010  0.00  0.00    +0.007 C 
ATOM      9  C   UNL     1       0.002  -0.004   0.002  0.00  0.00    -0.018 C 
ATOM     10  C   UNL     1      -1.434  -0.536   0.023  0.00  0.00    -0.016 C 
ATOM     11  C   UNL     1      -1.405  -2.064   0.095  0.00  0.00    -0.079 C 
ATOM     12  N   UNL     1      -0.707  -2.487   1.315  0.00  0.00    +0.381 N 
ATOM     13  C   UNL     1       0.691  -2.042   1.269  0.00  0.00    -0.079 C 
ATOM     14  C   UNL     1       0.743  -0.513   1.242  0.00  0.00    -0.016 C 
ATOM     15  H   UNL     1      -1.162  -2.082   2.119  0.00  0.00    -0.082 HD
ENDBRANCH   7  12
ENDBRANCH   6   7
ENDBRANCH   2   6
ENDBRANCH   1   3
BRANCH   1  16
ATOM     16  C   UNL     1       0.887  -8.398   5.386  0.00  0.00    +0.009 C 
BRANCH  16  17
ATOM     17  C   UNL     1       0.842  -9.923   5.495  0.00  0.00    +0.002 C 
BRANCH  17  18
ATOM     18  C   UNL     1       1.459 -10.358   6.826  0.00  0.00    +0.016 C 
BRANCH  18  19
ATOM     19  C   UNL     1       1.414 -11.884   6.934  0.00  0.00    +0.069 C 
ATOM     20  C   UNL     1       2.067 -12.366   8.247  0.00  0.00    +0.108 C 
ATOM     21  C   UNL     1       1.332 -13.536   8.907  0.00  0.00    +0.105 C 
ATOM     22  C   UNL     1       0.089 -14.009   8.122  0.00  0.00    +0.093 C 
ATOM     23  S   UNL     1      -0.319 -12.483   7.146  0.00  0.00    -0.154 S 
ATOM     24  N   UNL     1       2.325 -14.622   8.917  0.00  0.00    -0.294 N 
ATOM     25  C   UNL     1       3.461 -14.180   8.360  0.00  0.00    +0.300 C 
ATOM     26  O   UNL     1       4.453 -14.872   8.237  0.00  0.00    -0.253 OA
ATOM     27  N   UNL     1       3.400 -12.914   7.949  0.00  0.00    -0.294 N 
ATOM     28  H   UNL     1       2.181 -15.514   9.270  0.00  0.00    +0.151 HD
ATOM     29  H   UNL     1       4.124 -12.432   7.521  0.00  0.00    +0.151 HD
ENDBRANCH  18  19
ENDBRANCH  17  18
ENDBRANCH  16  17
ENDBRANCH   1  16
TORSDOF 8
