REMARK  Name = ZINC57460548
REMARK  7 active torsions:
REMARK  status: ('A' for Active; 'I' for Inactive)
REMARK    1  A    between atoms: C_1  and  C_2
REMARK    2  A    between atoms: C_6  and  C_8
REMARK    3  A    between atoms: C_10  and  C_17
REMARK    4  A    between atoms: C_11  and  C_16
REMARK    5  A    between atoms: C_17  and  O_19
REMARK    6  A    between atoms: O_19  and  C_20
REMARK    7  A    between atoms: C_20  and  C_21
REMARK                            x       y       z     vdW  Elec       q    Type
REMARK                         _______ _______ _______ _____ _____    ______ ____
ROOT
ATOM      1  C   UNL     1      -0.063  -2.905   2.427  0.00  0.00    +0.141 C 
ATOM      2  C   UNL     1       1.378  -3.106   2.852  0.00  0.00    +0.078 C 
ATOM      3  C   UNL     1       1.804  -4.372   3.053  0.00  0.00    +0.019 C 
ATOM      4  N   UNL     1       0.964  -5.434   2.877  0.00  0.00    -0.300 N 
ATOM      5  C   UNL     1      -0.316  -5.315   2.503  0.00  0.00    +0.135 C 
ATOM      6  S   UNL     1      -1.260  -6.731   2.320  0.00  0.00    -0.019 S 
ATOM      7  N   UNL     1      -0.884  -4.117   2.265  0.00  0.00    -0.315 N 
ATOM      8  C   UNL     1       3.229  -4.616   3.477  0.00  0.00    +0.061 C 
ATOM      9  H   UNL     1       1.315  -6.325   3.033  0.00  0.00    +0.154 HD
ATOM     10  H   UNL     1      -1.814  -4.054   1.995  0.00  0.00    +0.149 HD
ENDROOT
BRANCH   1  16
ATOM     11  C   UNL     1      -0.396   1.379  -0.137  0.00  0.00    +0.044 C 
ATOM     12  C   UNL     1      -0.221  -0.117  -0.114  0.00  0.00    -0.050 A 
ATOM     13  C   UNL     1      -0.058  -0.813  -1.297  0.00  0.00    +0.003 A 
ATOM     14  C   UNL     1       0.103  -2.186  -1.276  0.00  0.00    +0.001 A 
ATOM     15  C   UNL     1       0.102  -2.863  -0.070  0.00  0.00    +0.006 A 
ATOM     16  C   UNL     1      -0.060  -2.167   1.113  0.00  0.00    -0.022 A 
ATOM     17  C   UNL     1      -0.217  -0.794   1.091  0.00  0.00    +0.009 A 
ENDBRANCH   1  16
BRANCH   2  18
ATOM     18  C   UNL     1       2.247  -2.005   3.033  0.00  0.00    +0.339 C 
ATOM     19  O   UNL     1       2.199  -1.354   4.060  0.00  0.00    -0.245 OA
BRANCH  18  20
ATOM     20  O   UNL     1       3.129  -1.675   2.066  0.00  0.00    -0.457 OA
BRANCH  20  21
ATOM     21  C   UNL     1       3.976  -0.552   2.316  0.00  0.00    +0.268 C 
BRANCH  21  22
ATOM     22  C   UNL     1       4.886  -0.337   1.135  0.00  0.00    -0.010 A 
ATOM     23  C   UNL     1       6.116  -0.967   1.087  0.00  0.00    +0.007 A 
ATOM     24  C   UNL     1       6.952  -0.770   0.003  0.00  0.00    +0.000 A 
ATOM     25  C   UNL     1       6.557   0.057  -1.032  0.00  0.00    +0.000 A 
ATOM     26  C   UNL     1       5.327   0.686  -0.985  0.00  0.00    +0.000 A 
ATOM     27  C   UNL     1       4.490   0.485   0.097  0.00  0.00    +0.007 A 
ENDBRANCH  21  22
ENDBRANCH  20  21
ENDBRANCH  18  20
ENDBRANCH   2  18
TORSDOF 5
