REMARK  Name = ZINC15420457
REMARK  11 active torsions:
REMARK  status: ('A' for Active; 'I' for Inactive)
REMARK    1  A    between atoms: C_1  and  C_2
REMARK    2  A    between atoms: C_2  and  N_65
REMARK    3  A    between atoms: C_3  and  C_4
REMARK    4  A    between atoms: C_3  and  N_65
REMARK    5  A    between atoms: N_6  and  C_7
REMARK    6  A    between atoms: C_7  and  C_8
REMARK    7  A    between atoms: C_13  and  C_14
REMARK    8  A    between atoms: C_13  and  N_65
REMARK    9  A    between atoms: N_16  and  C_17
REMARK   10  A    between atoms: C_20  and  S_23
REMARK   11  A    between atoms: S_23  and  N_26
REMARK                            x       y       z     vdW  Elec       q    Type
REMARK                         _______ _______ _______ _____ _____    ______ ____
ROOT
ATOM      1  C   UNL     1      -1.846   5.654  -0.619  0.00  0.00    +0.201 C 
ATOM      2  O   UNL     1      -0.689   6.017  -0.612  0.00  0.00    -0.278 OA
ATOM      3  N   UNL     1      -2.824   6.527  -0.930  0.00  0.00    -0.287 N 
ATOM      4  H   UNL     1      -3.743   6.223  -0.996  0.00  0.00    +0.155 HD
ENDROOT
BRANCH   3   5
ATOM      5  C   UNL     1      -2.514   7.872  -1.159  0.00  0.00    +0.033 A 
ATOM      6  C   UNL     1      -3.405   8.867  -0.775  0.00  0.00    +0.025 A 
ATOM      7  C   UNL     1      -3.093  10.194  -0.996  0.00  0.00    +0.030 A 
ATOM      8  C   UNL     1      -1.902  10.533  -1.611  0.00  0.00    +0.106 A 
ATOM      9  C   UNL     1      -1.016   9.545  -2.000  0.00  0.00    +0.030 A 
ATOM     10  C   UNL     1      -1.319   8.216  -1.776  0.00  0.00    +0.025 A 
BRANCH   8  11
ATOM     11  S   UNL     1      -1.512  12.227  -1.898  0.00  0.00    +0.061 S 
ATOM     12  O   UNL     1      -2.255  12.981  -0.950  0.00  0.00    -0.153 OA
ATOM     13  O   UNL     1      -0.096  12.307  -1.994  0.00  0.00    -0.153 OA
BRANCH  11  14
ATOM     14  N   UNL     1      -2.110  12.621  -3.391  0.00  0.00    -0.177 NA
ATOM     15  C   UNL     1      -1.259  12.448  -4.546  0.00  0.00    +0.109 C 
ATOM     16  C   UNL     1      -0.441  13.732  -4.794  0.00  0.00    +0.017 C 
ATOM     17  C   UNL     1      -1.315  14.805  -5.293  0.00  0.00    +0.001 C 
ATOM     18  C   UNL     1      -2.407  15.233  -4.317  0.00  0.00    +0.001 C 
ATOM     19  C   UNL     1      -3.598  14.319  -4.469  0.00  0.00    +0.017 C 
ATOM     20  C   UNL     1      -3.489  13.140  -3.486  0.00  0.00    +0.109 C 
ENDBRANCH  11  14
ENDBRANCH   8  11
ENDBRANCH   3   5
BRANCH   1  21
ATOM     21  C   UNL     1      -2.190   4.227  -0.280  0.00  0.00    +0.020 C 
BRANCH  21  22
ATOM     22  N   UNL     1      -0.940   3.488  -0.002  0.00  0.00    +0.391 N 
ATOM     23  H   UNL     1      -0.287   3.634  -0.780  0.00  0.00    -0.080 HD
BRANCH  22  25
ATOM     24  C   UNL     1       1.148   3.567   1.267  0.00  0.00    -0.017 C 
ATOM     25  C   UNL     1      -0.322   3.991   1.243  0.00  0.00    -0.081 C 
ENDBRANCH  22  25
BRANCH  22  26
ATOM     26  C   UNL     1      -1.224   2.043   0.123  0.00  0.00    +0.019 C 
BRANCH  26  27
ATOM     27  C   UNL     1      -1.407   1.466  -1.257  0.00  0.00    +0.197 C 
ATOM     28  O   UNL     1      -1.415   2.198  -2.224  0.00  0.00    -0.278 OA
ATOM     29  N   UNL     1      -1.569   0.138  -1.416  0.00  0.00    -0.312 N 
ATOM     30  H   UNL     1      -1.564  -0.448  -0.643  0.00  0.00    +0.149 HD
BRANCH  29  31
ATOM     31  C   UNL     1      -1.754  -0.423  -2.757  0.00  0.00    +0.146 C 
BRANCH  31  32
ATOM     32  C   UNL     1      -1.911  -1.918  -2.660  0.00  0.00    +0.007 A 
ATOM     33  C   UNL     1      -3.041  -2.650  -2.504  0.00  0.00    +0.013 A 
ATOM     34  C   UNL     1      -2.945  -4.027  -2.442  0.00  0.00    +0.008 A 
ATOM     35  C   UNL     1      -1.722  -4.605  -2.529  0.00  0.00    +0.045 A 
ATOM     36  S   UNL     1      -0.655  -3.186  -2.711  0.00  0.00    -0.100 S 
ENDBRANCH  31  32
ENDBRANCH  29  31
ENDBRANCH  26  27
ENDBRANCH  22  26
ENDBRANCH  21  22
ENDBRANCH   1  21
TORSDOF 10
