REMARK  Name = ZINC32569658
REMARK  8 active torsions:
REMARK  status: ('A' for Active; 'I' for Inactive)
REMARK    1  A    between atoms: C_1  and  C_2
REMARK    2  A    between atoms: C_7  and  C_9
REMARK    3  A    between atoms: C_7  and  C_10
REMARK    4  A    between atoms: N_13  and  C_17
REMARK    5  A    between atoms: C_17  and  C_18
REMARK    6  A    between atoms: C_18  and  O_20
REMARK    7  A    between atoms: O_20  and  C_21
REMARK    8  A    between atoms: C_21  and  C_22
REMARK                            x       y       z     vdW  Elec       q    Type
REMARK                         _______ _______ _______ _____ _____    ______ ____
ROOT
ATOM      1  C   UNL     1      -0.019   1.528   0.010  0.00  0.00    +0.007 C 
ATOM      2  C   UNL     1       0.002  -0.004   0.002  0.00  0.00    -0.011 C 
ATOM      3  C   UNL     1       0.727  -0.492  -1.254  0.00  0.00    +0.038 C 
ATOM      4  C   UNL     1       0.711  -2.014  -1.298  0.00  0.00    +0.113 C 
ATOM      5  C   UNL     1       1.263  -2.646  -0.036  0.00  0.00    +0.041 C 
ATOM      6  C   UNL     1       0.787  -2.030   1.268  0.00  0.00    -0.032 C 
ATOM      7  C   UNL     1       0.763  -0.507   1.227  0.00  0.00    +0.009 C 
ATOM      8  C   UNL     1       1.769  -2.455   2.382  0.00  0.00    +0.011 C 
ATOM      9  C   UNL     1      -0.596  -2.567   1.648  0.00  0.00    +0.011 C 
ATOM     10  C   UNL     1      -0.666  -2.529  -1.638  0.00  0.00    +0.247 C 
ATOM     11  O   UNL     1      -1.717  -2.280  -1.086  0.00  0.00    -0.273 OA
ATOM     12  N   UNL     1      -0.505  -3.321  -2.720  0.00  0.00    -0.213 N 
ATOM     13  C   UNL     1       0.748  -3.270  -3.183  0.00  0.00    +0.310 C 
ATOM     14  O   UNL     1       1.136  -3.886  -4.157  0.00  0.00    -0.252 OA
ATOM     15  N   UNL     1       1.531  -2.463  -2.446  0.00  0.00    -0.285 N 
ATOM     16  H   UNL     1       2.451  -2.215  -2.619  0.00  0.00    +0.151 HD
ENDROOT
BRANCH  12  17
ATOM     17  C   UNL     1      -1.572  -4.133  -3.310  0.00  0.00    +0.238 C 
BRANCH  17  18
ATOM     18  C   UNL     1      -2.295  -3.328  -4.359  0.00  0.00    +0.326 C 
ATOM     19  O   UNL     1      -1.954  -2.192  -4.590  0.00  0.00    -0.249 OA
BRANCH  18  20
ATOM     20  O   UNL     1      -3.317  -3.873  -5.037  0.00  0.00    -0.459 OA
BRANCH  20  21
ATOM     21  C   UNL     1      -3.956  -3.053  -6.017  0.00  0.00    +0.270 C 
BRANCH  21  22
ATOM     22  C   UNL     1      -5.072  -3.828  -6.671  0.00  0.00    +0.027 A 
ATOM     23  C   UNL     1      -5.329  -5.112  -6.285  0.00  0.00    +0.020 A 
ATOM     24  C   UNL     1      -6.380  -5.799  -6.921  0.00  0.00    +0.001 A 
ATOM     25  C   UNL     1      -6.703  -7.121  -6.576  0.00  0.00    +0.010 A 
ATOM     26  C   UNL     1      -7.727  -7.752  -7.215  0.00  0.00    +0.001 A 
ATOM     27  C   UNL     1      -8.460  -7.103  -8.207  0.00  0.00    +0.002 A 
ATOM     28  C   UNL     1      -8.173  -5.822  -8.566  0.00  0.00    +0.028 A 
ATOM     29  C   UNL     1      -7.123  -5.137  -7.929  0.00  0.00    +0.073 A 
ATOM     30  N   UNL     1      -6.821  -3.878  -8.261  0.00  0.00    -0.235 NA
ATOM     31  C   UNL     1      -5.845  -3.232  -7.666  0.00  0.00    +0.136 A 
ATOM     32 CL   UNL     1      -5.505  -1.595  -8.136  0.00  0.00    -0.062 Cl
ENDBRANCH  21  22
ENDBRANCH  20  21
ENDBRANCH  18  20
ENDBRANCH  17  18
ENDBRANCH  12  17
TORSDOF 5
