REMARK  Name = ZINC49645823
REMARK  6 active torsions:
REMARK  status: ('A' for Active; 'I' for Inactive)
REMARK    1  A    between atoms: C_1  and  C_2
REMARK    2  A    between atoms: C_2  and  C_3
REMARK    3  A    between atoms: C_2  and  C_4
REMARK    4  A    between atoms: N_9  and  S_10
REMARK    5  A    between atoms: S_10  and  C_13
REMARK    6  A    between atoms: C_13  and  C_14
REMARK                            x       y       z     vdW  Elec       q    Type
REMARK                         _______ _______ _______ _____ _____    ______ ____
ROOT
ATOM      1  S   UNL     1      -5.975  -1.241   1.636  0.00  0.00    +0.072 S 
ATOM      2  O   UNL     1      -6.469  -0.631   0.452  0.00  0.00    -0.151 OA
ATOM      3  O   UNL     1      -5.718  -2.638   1.679  0.00  0.00    -0.151 OA
ENDROOT
BRANCH   1   9
ATOM      4  C   UNL     1      -1.412  -0.526   0.013  0.00  0.00    +0.027 A 
ATOM      5  C   UNL     1      -1.843  -1.297  -0.985  0.00  0.00    +0.070 A 
ATOM      6  S   UNL     1      -3.529  -1.631  -0.500  0.00  0.00    -0.057 S 
ATOM      7  C   UNL     1      -3.533  -0.701   1.025  0.00  0.00    +0.191 A 
ATOM      8  N   UNL     1      -2.244  -0.212   1.047  0.00  0.00    -0.336 N 
ATOM      9  N   UNL     1      -4.500  -0.532   1.892  0.00  0.00    -0.108 NA
ATOM     10  H   UNL     1      -1.938   0.345   1.779  0.00  0.00    +0.168 HD
BRANCH   4  12
ATOM     11  C   UNL     1      -0.019   1.526   0.010  0.00  0.00    +0.013 C 
ATOM     12  C   UNL     1       0.002  -0.004   0.002  0.00  0.00    +0.030 C 
ATOM     13  C   UNL     1       0.742  -0.511   1.242  0.00  0.00    +0.013 C 
ENDBRANCH   4  12
ENDBRANCH   1   9
BRANCH   1  14
ATOM     14  C   UNL     1      -6.983  -0.747   3.061  0.00  0.00    +0.194 C 
BRANCH  14  15
ATOM     15  C   UNL     1      -8.382  -1.351   2.930  0.00  0.00    -0.005 C 
ATOM     16  C   UNL     1      -8.290  -2.878   3.011  0.00  0.00    +0.001 C 
ATOM     17  C   UNL     1      -9.702  -3.468   2.958  0.00  0.00    -0.019 C 
ATOM     18  C   UNL     1     -10.540  -2.877   4.093  0.00  0.00    -0.083 C 
ATOM     19  N   UNL     1     -10.612  -1.418   3.943  0.00  0.00    +0.379 N 
ATOM     20  C   UNL     1      -9.270  -0.837   4.065  0.00  0.00    -0.078 C 
ATOM     21  H   UNL     1     -10.994  -1.192   3.037  0.00  0.00    -0.086 HD
ATOM     22  H   UNL     1     -11.209  -1.037   4.662  0.00  0.00    -0.086 HD
ENDBRANCH  14  15
ENDBRANCH   1  14
TORSDOF 4
