REMARK  Name = ZINC36494430
REMARK  11 active torsions:
REMARK  status: ('A' for Active; 'I' for Inactive)
REMARK    1  A    between atoms: C_1  and  C_2
REMARK    2  A    between atoms: C_5  and  S_8
REMARK    3  A    between atoms: S_8  and  C_11
REMARK    4  A    between atoms: C_11  and  N_12
REMARK    5  A    between atoms: C_13  and  C_15
REMARK    6  A    between atoms: C_15  and  C_17
REMARK    7  A    between atoms: C_15  and  N_24
REMARK    8  A    between atoms: C_22  and  O_23
REMARK    9  A    between atoms: N_24  and  C_25
REMARK   10  A    between atoms: C_25  and  C_26
REMARK   11  A    between atoms: C_31  and  C_33
REMARK                            x       y       z     vdW  Elec       q    Type
REMARK                         _______ _______ _______ _____ _____    ______ ____
ROOT
ATOM      1  C   UNL     1       3.023  -4.864   3.712  0.00  0.00    +0.196 C 
ENDROOT
BRANCH   1   2
ATOM      2  C   UNL     1       4.199  -4.355   4.506  0.00  0.00    +0.023 A 
ATOM      3  C   UNL     1       5.003  -5.241   5.197  0.00  0.00    +0.009 A 
ATOM      4  C   UNL     1       6.080  -4.774   5.926  0.00  0.00    +0.001 A 
ATOM      5  C   UNL     1       6.357  -3.420   5.965  0.00  0.00    +0.004 A 
ATOM      6  C   UNL     1       5.557  -2.530   5.276  0.00  0.00    +0.046 A 
ATOM      7  C   UNL     1       4.477  -2.996   4.539  0.00  0.00    +0.122 A 
BRANCH   7   8
ATOM      8  O   UNL     1       3.692  -2.123   3.856  0.00  0.00    -0.506 OA
ATOM      9  H   UNL     1       2.946  -1.782   4.367  0.00  0.00    +0.292 HD
ENDBRANCH   7   8
ENDBRANCH   1   2
BRANCH   1  11
ATOM     10  N   UNL     1       3.853  -3.957   1.566  0.00  0.00    -0.294 N 
ATOM     11  C   UNL     1       3.424  -5.024   2.268  0.00  0.00    +0.239 C 
ATOM     12  O   UNL     1       3.361  -6.113   1.738  0.00  0.00    -0.273 OA
ATOM     13  H   UNL     1       3.904  -3.086   1.990  0.00  0.00    +0.150 HD
BRANCH  10  14
ATOM     14  C   UNL     1       4.243  -4.112   0.162  0.00  0.00    +0.278 C 
BRANCH  14  15
ATOM     15  S   UNL     1       2.834  -3.703  -0.905  0.00  0.00    +0.013 S 
ATOM     16  O   UNL     1       1.661  -4.354  -0.438  0.00  0.00    -0.168 OA
ATOM     17  O   UNL     1       3.214  -3.787  -2.272  0.00  0.00    -0.168 OA
BRANCH  15  22
ATOM     18  C   UNL     1       1.816   2.168   0.048  0.00  0.00    +0.044 C 
ATOM     19  C   UNL     1       2.071   0.702  -0.190  0.00  0.00    -0.050 A 
ATOM     20  C   UNL     1       2.941   0.304  -1.188  0.00  0.00    +0.005 A 
ATOM     21  C   UNL     1       3.175  -1.041  -1.406  0.00  0.00    +0.027 A 
ATOM     22  C   UNL     1       2.538  -1.988  -0.626  0.00  0.00    +0.090 A 
ATOM     23  C   UNL     1       1.668  -1.591   0.372  0.00  0.00    +0.027 A 
ATOM     24  C   UNL     1       1.438  -0.246   0.593  0.00  0.00    +0.005 A 
ENDBRANCH  15  22
ENDBRANCH  14  15
ENDBRANCH  10  14
ENDBRANCH   1  11
BRANCH   1  25
ATOM     25  N   UNL     1       2.598  -6.160   4.247  0.00  0.00    -0.278 N 
ATOM     26  C   UNL     1       3.396  -7.238   4.116  0.00  0.00    +0.220 C 
ATOM     27  O   UNL     1       4.452  -7.143   3.526  0.00  0.00    -0.275 OA
BRANCH  26  28
ATOM     28  C   UNL     1       2.978  -8.561   4.704  0.00  0.00    +0.075 C 
ATOM     29  C   UNL     1       3.351  -8.602   6.187  0.00  0.00    +0.013 C 
ATOM     30  C   UNL     1       2.926  -9.945   6.783  0.00  0.00    +0.001 C 
ATOM     31  C   UNL     1       3.641 -11.080   6.046  0.00  0.00    +0.000 C 
ATOM     32  C   UNL     1       3.268 -11.039   4.563  0.00  0.00    +0.001 C 
ATOM     33  C   UNL     1       3.693  -9.696   3.966  0.00  0.00    +0.013 C 
ENDBRANCH  26  28
BRANCH  25  34
ATOM     34  C   UNL     1       1.304  -6.284   4.923  0.00  0.00    +0.183 C 
BRANCH  34  35
ATOM     35  C   UNL     1       0.226  -6.541   3.902  0.00  0.00    +0.122 A 
ATOM     36  C   UNL     1      -0.248  -7.748   3.545  0.00  0.00    +0.046 A 
ATOM     37  C   UNL     1      -1.242  -7.524   2.565  0.00  0.00    +0.041 A 
ATOM     38  C   UNL     1      -1.317  -6.194   2.383  0.00  0.00    +0.195 A 
ATOM     39  O   UNL     1      -0.429  -5.603   3.199  0.00  0.00    -0.466 OA
ENDBRANCH  34  35
ENDBRANCH  25  34
ENDBRANCH   1  25
TORSDOF 10
