REMARK  Name = ZINC25593090
REMARK  8 active torsions:
REMARK  status: ('A' for Active; 'I' for Inactive)
REMARK    1  A    between atoms: C_4  and  C_7
REMARK    2  A    between atoms: C_15  and  C_18
REMARK    3  A    between atoms: C_18  and  S_19
REMARK    4  A    between atoms: S_19  and  C_20
REMARK    5  A    between atoms: C_23  and  C_26
REMARK    6  A    between atoms: N_24  and  N_25
REMARK    7  A    between atoms: C_26  and  O_27
REMARK    8  A    between atoms: O_27  and  C_28
REMARK                            x       y       z     vdW  Elec       q    Type
REMARK                         _______ _______ _______ _____ _____    ______ ____
ROOT
ATOM      1  C   UNL     1       1.784  -8.935   0.186  0.00  0.00    +0.116 C 
ENDROOT
BRANCH   1   9
ATOM      2  C   UNL     1      -1.956 -10.428   1.427  0.00  0.00    +0.340 C 
ATOM      3  O   UNL     1      -2.136 -11.839   1.255  0.00  0.00    -0.333 OA
ATOM      4  C   UNL     1      -1.145 -12.617   1.933  0.00  0.00    +0.203 C 
ATOM      5  C   UNL     1       0.224 -12.071   1.611  0.00  0.00    +0.023 A 
ATOM      6  C   UNL     1       1.343 -12.840   1.868  0.00  0.00    +0.047 A 
ATOM      7  C   UNL     1       2.604 -12.347   1.582  0.00  0.00    +0.124 A 
ATOM      8  C   UNL     1       2.746 -11.084   1.032  0.00  0.00    +0.046 A 
ATOM      9  C   UNL     1       1.629 -10.312   0.778  0.00  0.00    +0.008 A 
ATOM     10  C   UNL     1       0.364 -10.806   1.063  0.00  0.00    +0.134 A 
ATOM     11  O   UNL     1      -0.730 -10.043   0.797  0.00  0.00    -0.459 OA
ATOM     12  F   UNL     1       3.697 -13.100   1.834  0.00  0.00    -0.205 F 
BRANCH   2  16
ATOM     13  C   UNL     1      -5.214  -8.335  -0.376  0.00  0.00    +0.000 A 
ATOM     14  C   UNL     1      -5.452  -9.238   0.644  0.00  0.00    +0.000 A 
ATOM     15  C   UNL     1      -4.397  -9.915   1.227  0.00  0.00    +0.010 A 
ATOM     16  C   UNL     1      -3.105  -9.690   0.791  0.00  0.00    +0.020 A 
ATOM     17  C   UNL     1      -2.867  -8.783  -0.225  0.00  0.00    +0.010 A 
ATOM     18  C   UNL     1      -3.921  -8.109  -0.811  0.00  0.00    +0.000 A 
ENDBRANCH   2  16
ENDBRANCH   1   9
BRANCH   1  19
ATOM     19  S   UNL     1       1.940  -7.719   1.517  0.00  0.00    -0.080 S 
BRANCH  19  20
ATOM     20  C   UNL     1       2.103  -6.244   0.567  0.00  0.00    +0.209 A 
ATOM     21  N   UNL     1       2.101  -6.155  -0.742  0.00  0.00    -0.121 NA
ATOM     22  N   UNL     1       2.240  -4.928  -1.097  0.00  0.00    -0.128 NA
ATOM     23  C   UNL     1       2.340  -4.167  -0.044  0.00  0.00    +0.189 A 
ATOM     24  N   UNL     1       2.261  -4.978   1.054  0.00  0.00    -0.225 N 
BRANCH  24  25
ATOM     25  N   UNL     1       2.325  -4.601   2.365  0.00  0.00    -0.295 N 
ATOM     26  H   UNL     1       2.455  -3.540   2.627  0.00  0.00    +0.163 HD
ATOM     27  H   UNL     1       2.245  -5.357   3.160  0.00  0.00    +0.163 HD
ENDBRANCH  24  25
BRANCH  23  28
ATOM     28  C   UNL     1       2.515  -2.670  -0.037  0.00  0.00    +0.306 C 
BRANCH  28  29
ATOM     29  O   UNL     1       1.233  -2.040  -0.021  0.00  0.00    -0.484 OA
BRANCH  29  30
ATOM     30  C   UNL     1       1.213  -0.680  -0.013  0.00  0.00    +0.121 A 
ATOM     31  C   UNL     1       0.002  -0.004   0.002  0.00  0.00    +0.048 A 
ATOM     32  C   UNL     1      -0.017   1.377   0.010  0.00  0.00    +0.042 A 
ATOM     33  C   UNL     1       1.173   2.086   0.002  0.00  0.00    +0.124 A 
ATOM     34  C   UNL     1       2.382   1.413  -0.013  0.00  0.00    +0.042 A 
ATOM     35  C   UNL     1       2.404   0.031  -0.021  0.00  0.00    +0.048 A 
ATOM     36  F   UNL     1       1.153   3.437   0.009  0.00  0.00    -0.205 F 
ENDBRANCH  29  30
ENDBRANCH  28  29
ENDBRANCH  23  28
ENDBRANCH  19  20
ENDBRANCH   1  19
TORSDOF 8
