REMARK  Name = ZINC58847915
REMARK  7 active torsions:
REMARK  status: ('A' for Active; 'I' for Inactive)
REMARK    1  A    between atoms: C_1  and  C_2
REMARK    2  A    between atoms: C_3  and  N_9
REMARK    3  A    between atoms: N_9  and  S_10
REMARK    4  A    between atoms: S_10  and  C_13
REMARK    5  A    between atoms: C_26  and  C_29
REMARK    6  A    between atoms: C_34  and  O_35
REMARK    7  A    between atoms: O_35  and  C_36
REMARK                            x       y       z     vdW  Elec       q    Type
REMARK                         _______ _______ _______ _____ _____    ______ ____
ROOT
ATOM      1  C   UNL     1      -2.471  -0.716  -3.441  0.00  0.00    +0.109 A 
ATOM      2  C   UNL     1      -3.070  -1.800  -2.825  0.00  0.00    +0.030 A 
ATOM      3  C   UNL     1      -4.433  -1.797  -2.609  0.00  0.00    +0.025 A 
ATOM      4  C   UNL     1      -5.201  -0.708  -3.007  0.00  0.00    +0.031 A 
ATOM      5  C   UNL     1      -4.600   0.385  -3.613  0.00  0.00    -0.018 A 
ATOM      6  C   UNL     1      -3.230   0.370  -3.828  0.00  0.00    +0.034 A 
ATOM      7  C   UNL     1      -5.385   1.587  -4.017  0.00  0.00    +0.049 C 
ATOM      8  C   UNL     1      -5.620   1.638  -5.505  0.00  0.00    -0.023 C 
ATOM      9  C   UNL     1      -6.805   2.132  -5.760  0.00  0.00    -0.030 C 
ATOM     10  C   UNL     1      -7.533   2.477  -4.479  0.00  0.00    +0.033 C 
ATOM     11  C   UNL     1      -6.777   1.673  -3.396  0.00  0.00    +0.029 C 
ATOM     12  C   UNL     1      -7.460   0.330  -3.241  0.00  0.00    +0.108 C 
ATOM     13  N   UNL     1      -6.575  -0.728  -2.800  0.00  0.00    -0.336 N 
ATOM     14  H   UNL     1      -6.963  -1.499  -2.358  0.00  0.00    +0.147 HD
ENDROOT
BRANCH  12  15
ATOM     15  C   UNL     1      -8.082  -0.046  -4.561  0.00  0.00    +0.015 A 
ATOM     16  C   UNL     1      -9.414   0.232  -4.803  0.00  0.00    +0.009 A 
ATOM     17  C   UNL     1      -9.984  -0.114  -6.013  0.00  0.00    +0.001 A 
ATOM     18  C   UNL     1      -9.224  -0.737  -6.986  0.00  0.00    +0.004 A 
ATOM     19  C   UNL     1      -7.892  -1.016  -6.750  0.00  0.00    +0.046 A 
ATOM     20  C   UNL     1      -7.316  -0.666  -5.537  0.00  0.00    +0.125 A 
BRANCH  20  21
ATOM     21  O   UNL     1      -6.004  -0.935  -5.304  0.00  0.00    -0.495 OA
ATOM     22  C   UNL     1      -5.277  -1.575  -6.354  0.00  0.00    +0.277 C 
ENDBRANCH  20  21
ENDBRANCH  12  15
BRANCH   1  23
ATOM     23  S   UNL     1      -0.732  -0.719  -3.727  0.00  0.00    +0.072 S 
ATOM     24  O   UNL     1      -0.496   0.177  -4.804  0.00  0.00    -0.150 OA
ATOM     25  O   UNL     1      -0.330  -2.081  -3.767  0.00  0.00    -0.150 OA
BRANCH  23  26
ATOM     26  N   UNL     1      -0.015  -0.053  -2.391  0.00  0.00    -0.216 N 
ATOM     27  H   UNL     1       0.523   0.749  -2.479  0.00  0.00    +0.174 HD
BRANCH  26  30
ATOM     28  C   UNL     1      -0.201   1.645  -0.116  0.00  0.00    +0.047 C 
ATOM     29  C   UNL     1      -0.281   0.145  -0.001  0.00  0.00    -0.010 A 
ATOM     30  C   UNL     1      -0.185  -0.646  -1.138  0.00  0.00    +0.052 A 
ATOM     31  C   UNL     1      -0.260  -2.029  -1.027  0.00  0.00    +0.025 A 
ATOM     32  C   UNL     1      -0.429  -2.613   0.213  0.00  0.00    +0.003 A 
ATOM     33  C   UNL     1      -0.524  -1.823   1.344  0.00  0.00    +0.020 A 
ATOM     34  C   UNL     1      -0.444  -0.446   1.238  0.00  0.00    +0.046 A 
ATOM     35 CL   UNL     1      -0.556   0.541   2.662  0.00  0.00    -0.083 Cl
ENDBRANCH  26  30
ENDBRANCH  23  26
ENDBRANCH   1  23
TORSDOF 5
