REMARK  Name = ZINC09377819
REMARK  11 active torsions:
REMARK  status: ('A' for Active; 'I' for Inactive)
REMARK    1  A    between atoms: C_1  and  C_2
REMARK    2  A    between atoms: C_2  and  C_3
REMARK    3  A    between atoms: C_3  and  C_4
REMARK    4  A    between atoms: C_4  and  N_5
REMARK    5  A    between atoms: C_6  and  N_34
REMARK    6  A    between atoms: C_7  and  N_14
REMARK    7  A    between atoms: N_14  and  C_15
REMARK    8  A    between atoms: C_15  and  C_16
REMARK    9  A    between atoms: C_17  and  C_19
REMARK   10  A    between atoms: C_19  and  N_62
REMARK   11  A    between atoms: C_27  and  C_29
REMARK                            x       y       z     vdW  Elec       q    Type
REMARK                         _______ _______ _______ _____ _____    ______ ____
ROOT
ATOM      1  N   UNL     1      -0.691   2.009   1.174  0.00  0.00    -0.266 N 
ATOM      2  C   UNL     1      -1.992   2.323   1.003  0.00  0.00    +0.203 C 
ATOM      3  O   UNL     1      -2.619   2.825   1.912  0.00  0.00    -0.277 OA
ENDROOT
BRANCH   1   6
ATOM      4  N   UNL     1       1.474   3.216   3.886  0.00  0.00    -0.280 N 
ATOM      5  C   UNL     1       0.911   3.089   2.637  0.00  0.00    +0.127 A 
ATOM      6  C   UNL     1      -0.089   2.159   2.441  0.00  0.00    +0.140 A 
ATOM      7  C   UNL     1      -0.495   1.358   3.525  0.00  0.00    +0.277 A 
ATOM      8  O   UNL     1      -1.374   0.525   3.378  0.00  0.00    -0.266 OA
ATOM      9  N   UNL     1       0.093   1.519   4.727  0.00  0.00    -0.273 N 
ATOM     10  H   UNL     1      -0.194   0.951   5.498  0.00  0.00    +0.173 HD
ATOM     11  C   UNL     1       1.063   2.434   4.901  0.00  0.00    +0.331 A 
ATOM     12  O   UNL     1       1.577   2.559   5.996  0.00  0.00    -0.246 OA
BRANCH   5  13
ATOM     13  N   UNL     1       1.335   3.883   1.599  0.00  0.00    -0.343 N 
ATOM     14  H   UNL     1       0.981   3.746   0.707  0.00  0.00    +0.144 HD
ATOM     15  H   UNL     1       1.990   4.581   1.759  0.00  0.00    +0.144 HD
ENDBRANCH   5  13
BRANCH   4  16
ATOM     16  C   UNL     1       2.533   4.203   4.110  0.00  0.00    +0.128 C 
BRANCH  16  17
ATOM     17  C   UNL     1       3.895   3.562   3.833  0.00  0.00    +0.021 C 
BRANCH  17  19
ATOM     18  C   UNL     1       6.362   3.952   3.790  0.00  0.00    +0.004 C 
ATOM     19  C   UNL     1       5.001   4.593   4.067  0.00  0.00    -0.002 C 
ENDBRANCH  17  19
ENDBRANCH  16  17
ENDBRANCH   4  16
ENDBRANCH   1   6
BRANCH   1  20
ATOM     20  C   UNL     1       0.097   1.512   0.043  0.00  0.00    +0.110 C 
ATOM     21  C   UNL     1       0.096  -0.018   0.054  0.00  0.00    +0.025 C 
ENDBRANCH   1  20
BRANCH   2  22
ATOM     22  C   UNL     1      -2.666   2.051  -0.317  0.00  0.00    +0.020 C 
BRANCH  22  31
ATOM     23  C   UNL     1      -4.168   3.938  -0.099  0.00  0.00    -0.072 C 
ATOM     24  C   UNL     1      -5.603   4.375  -0.443  0.00  0.00    +0.024 C 
ATOM     25  C   UNL     1      -6.541   3.456   0.269  0.00  0.00    -0.010 A 
ATOM     26  C   UNL     1      -6.226   2.268   0.858  0.00  0.00    -0.046 A 
ATOM     27  C   UNL     1      -7.272   1.580   1.469  0.00  0.00    +0.010 A 
ATOM     28  C   UNL     1      -8.523   2.097   1.454  0.00  0.00    +0.045 A 
ATOM     29  S   UNL     1      -8.280   3.623   0.555  0.00  0.00    -0.101 S 
ATOM     30  C   UNL     1      -4.786   1.766   0.818  0.00  0.00    +0.002 C 
ATOM     31  N   UNL     1      -4.081   2.469  -0.280  0.00  0.00    +0.393 N 
ATOM     32  H   UNL     1      -4.526   2.219  -1.171  0.00  0.00    -0.080 HD
BRANCH  30  33
ATOM     33  C   UNL     1      -4.773   0.287   0.534  0.00  0.00    -0.019 A 
ATOM     34  C   UNL     1      -4.608  -0.747   1.395  0.00  0.00    +0.010 A 
ATOM     35  C   UNL     1      -4.634  -2.039   0.905  0.00  0.00    +0.008 A 
ATOM     36  C   UNL     1      -4.824  -2.234  -0.423  0.00  0.00    +0.045 A 
ATOM     37  S   UNL     1      -4.980  -0.561  -1.024  0.00  0.00    -0.103 S 
ENDBRANCH  30  33
ENDBRANCH  22  31
ENDBRANCH   2  22
TORSDOF 9
