REMARK  Name = ZINC39709121
REMARK  3 active torsions:
REMARK  status: ('A' for Active; 'I' for Inactive)
REMARK    1  A    between atoms: C_7  and  C_13
REMARK    2  A    between atoms: C_13  and  C_14
REMARK    3  A    between atoms: C_14  and  C_15
REMARK                            x       y       z     vdW  Elec       q    Type
REMARK                         _______ _______ _______ _____ _____    ______ ____
ROOT
ATOM      1  C   UNL     1       0.036  -2.959  -0.014  0.00  0.00    +0.060 C 
ENDROOT
BRANCH   1   8
ATOM      2  C   UNL     1      -0.017   1.363   0.009  0.00  0.00    +0.001 A 
ATOM      3  C   UNL     1       1.165   2.092   0.002  0.00  0.00    +0.001 A 
ATOM      4  C   UNL     1       2.386   1.454  -0.013  0.00  0.00    +0.014 A 
ATOM      5  C   UNL     1       2.429   0.060  -0.021  0.00  0.00    +0.050 A 
ATOM      6  C   UNL     1       1.224  -0.679  -0.013  0.00  0.00    +0.010 A 
ATOM      7  C   UNL     1       0.002  -0.004   0.002  0.00  0.00    +0.010 A 
ATOM      8  C   UNL     1       1.300  -2.140  -0.022  0.00  0.00    +0.069 A 
ATOM      9  N   UNL     1       2.458  -2.731  -0.037  0.00  0.00    -0.175 NA
ATOM     10  N   UNL     1       3.663  -2.028  -0.045  0.00  0.00    -0.242 N 
ATOM     11  H   UNL     1       4.497  -2.522  -0.056  0.00  0.00    +0.192 HD
ATOM     12  C   UNL     1       3.698  -0.679  -0.038  0.00  0.00    +0.272 A 
ATOM     13  O   UNL     1       4.762  -0.086  -0.046  0.00  0.00    -0.266 OA
ENDBRANCH   1   8
BRANCH   1  14
ATOM     14  C   UNL     1       0.392  -4.447  -0.026  0.00  0.00    +0.037 C 
BRANCH  14  15
ATOM     15  C   UNL     1      -0.891  -5.280  -0.018  0.00  0.00    +0.128 C 
ATOM     16  C   UNL     1      -0.510  -6.723  -0.250  0.00  0.00    -0.012 A 
ATOM     17  C   UNL     1       0.174  -7.136  -1.363  0.00  0.00    +0.006 A 
ATOM     18  C   UNL     1       0.492  -8.479  -1.510  0.00  0.00    +0.000 A 
ATOM     19  C   UNL     1       0.123  -9.397  -0.543  0.00  0.00    +0.001 A 
ATOM     20  C   UNL     1      -0.568  -8.990   0.582  0.00  0.00    +0.013 A 
ATOM     21  C   UNL     1      -0.889  -7.644   0.736  0.00  0.00    +0.045 A 
ATOM     22  C   UNL     1      -1.623  -7.141   1.912  0.00  0.00    +0.283 C 
ATOM     23  O   UNL     1      -1.964  -7.917   2.782  0.00  0.00    -0.267 OA
ATOM     24  N   UNL     1      -1.920  -5.838   2.034  0.00  0.00    -0.105 NA
ATOM     25  N   UNL     1      -1.624  -4.967   1.217  0.00  0.00    -0.307 N 
ATOM     26  H   UNL     1      -1.882  -4.049   1.394  0.00  0.00    +0.181 HD
ENDBRANCH  14  15
ENDBRANCH   1  14
TORSDOF 3
