REMARK  Name = ZINC59488999
REMARK  6 active torsions:
REMARK  status: ('A' for Active; 'I' for Inactive)
REMARK    1  A    between atoms: C_4  and  O_24
REMARK    2  A    between atoms: C_5  and  C_7
REMARK    3  A    between atoms: N_9  and  N_10
REMARK    4  A    between atoms: N_10  and  C_11
REMARK    5  A    between atoms: C_12  and  C_18
REMARK    6  A    between atoms: C_18  and  C_20
REMARK                            x       y       z     vdW  Elec       q    Type
REMARK                         _______ _______ _______ _____ _____    ______ ____
ROOT
ATOM      1  N   UNL     1       0.124  -4.254  -0.179  0.00  0.00    -0.268 N 
ATOM      2  H   UNL     1       0.118  -3.286  -0.246  0.00  0.00    +0.170 HD
ENDROOT
BRANCH   1   3
ATOM      3  C   UNL     1      -1.049  -4.946  -0.199  0.00  0.00    +0.029 C 
ATOM      4  C   UNL     1      -2.216  -4.283  -0.214  0.00  0.00    +0.022 C 
ATOM      5  C   UNL     1      -3.525  -5.045  -0.237  0.00  0.00    +0.040 C 
ATOM      6  C   UNL     1      -3.688  -5.689  -1.616  0.00  0.00    +0.005 C 
ATOM      7  C   UNL     1      -2.986  -7.033  -1.672  0.00  0.00    +0.001 C 
ATOM      8  C   UNL     1      -1.474  -6.946  -1.588  0.00  0.00    +0.006 C 
ATOM      9  C   UNL     1      -1.033  -6.460  -0.211  0.00  0.00    +0.052 C 
BRANCH   4  10
ATOM     10  C   UNL     1      -2.224  -2.881  -0.209  0.00  0.00    +0.263 C 
ATOM     11  O   UNL     1      -1.788  -2.268  -1.163  0.00  0.00    -0.283 OA
BRANCH  10  12
ATOM     12  C   UNL     1      -2.772  -2.135   0.980  0.00  0.00    +0.455 C 
ATOM     13  F   UNL     1      -3.918  -1.428   0.598  0.00  0.00    -0.163 F 
ATOM     14  F   UNL     1      -3.101  -3.046   1.990  0.00  0.00    -0.163 F 
ATOM     15  F   UNL     1      -1.808  -1.240   1.454  0.00  0.00    -0.163 F 
ENDBRANCH  10  12
ENDBRANCH   4  10
ENDBRANCH   1   3
BRANCH   1  18
ATOM     16  C   UNL     1       2.492  -4.252   0.068  0.00  0.00    +0.264 C 
ATOM     17  O   UNL     1       2.469  -3.041   0.174  0.00  0.00    -0.269 OA
ATOM     18  N   UNL     1       1.340  -4.940  -0.061  0.00  0.00    -0.233 N 
ATOM     19  H   UNL     1       1.353  -5.910  -0.072  0.00  0.00    +0.173 HD
BRANCH  16  24
ATOM     20  C   UNL     1       5.017  -7.029   0.081  0.00  0.00    +0.001 A 
ATOM     21  C   UNL     1       6.205  -6.318   0.100  0.00  0.00    +0.004 A 
ATOM     22  C   UNL     1       6.193  -4.937   0.109  0.00  0.00    +0.046 A 
ATOM     23  C   UNL     1       4.986  -4.253   0.099  0.00  0.00    +0.129 A 
ATOM     24  C   UNL     1       3.782  -4.969   0.078  0.00  0.00    +0.079 A 
ATOM     25  C   UNL     1       3.809  -6.366   0.070  0.00  0.00    +0.017 A 
BRANCH  23  26
ATOM     26  O   UNL     1       4.972  -2.897   0.108  0.00  0.00    -0.506 OA
ATOM     27  H   UNL     1       4.979  -2.497  -0.772  0.00  0.00    +0.292 HD
ENDBRANCH  23  26
ENDBRANCH  16  24
ENDBRANCH   1  18
TORSDOF 6
