REMARK  Name = ZINC59795405
REMARK  12 active torsions:
REMARK  status: ('A' for Active; 'I' for Inactive)
REMARK    1  A    between atoms: C_1  and  C_2
REMARK    2  A    between atoms: C_2  and  O_3
REMARK    3  A    between atoms: O_3  and  C_4
REMARK    4  A    between atoms: C_4  and  C_6
REMARK    5  A    between atoms: C_7  and  C_32
REMARK    6  A    between atoms: C_8  and  C_30
REMARK    7  A    between atoms: C_9  and  N_11
REMARK    8  A    between atoms: C_12  and  C_14
REMARK    9  A    between atoms: C_14  and  C_15
REMARK   10  A    between atoms: C_15  and  S_16
REMARK   11  A    between atoms: S_16  and  C_17
REMARK   12  A    between atoms: C_20  and  C_23
REMARK                            x       y       z     vdW  Elec       q    Type
REMARK                         _______ _______ _______ _____ _____    ______ ____
ROOT
ATOM      1  N   UNL     1       3.521  -2.810   5.898  0.00  0.00    -0.279 N 
ATOM      2  C   UNL     1       3.838  -1.637   6.481  0.00  0.00    +0.218 C 
ATOM      3  O   UNL     1       3.509  -0.593   5.960  0.00  0.00    -0.275 OA
ATOM      4  H   UNL     1       3.784  -3.646   6.314  0.00  0.00    +0.155 HD
ENDROOT
BRANCH   1   8
ATOM      5  C   UNL     1       1.495  -2.370   2.465  0.00  0.00    +0.102 A 
ATOM      6  C   UNL     1       1.714  -3.696   2.787  0.00  0.00    -0.010 A 
ATOM      7  C   UNL     1       2.410  -3.929   3.963  0.00  0.00    +0.084 A 
ATOM      8  C   UNL     1       2.822  -2.822   4.705  0.00  0.00    +0.090 A 
ATOM      9  S   UNL     1       2.277  -1.508   3.813  0.00  0.00    -0.065 S 
ATOM     10  C   UNL     1       1.225  -4.821   1.912  0.00  0.00    +0.046 C 
BRANCH   5  11
ATOM     11  C   UNL     1       0.801  -1.815   1.305  0.00  0.00    +0.346 C 
ATOM     12  O   UNL     1       0.321  -2.558   0.470  0.00  0.00    -0.244 OA
BRANCH  11  13
ATOM     13  O   UNL     1       0.693  -0.477   1.160  0.00  0.00    -0.461 OA
BRANCH  13  15
ATOM     14  C   UNL     1      -0.019   1.526   0.010  0.00  0.00    +0.048 C 
ATOM     15  C   UNL     1       0.002  -0.004   0.002  0.00  0.00    +0.229 C 
ENDBRANCH  13  15
ENDBRANCH  11  13
ENDBRANCH   5  11
BRANCH   7  16
ATOM     16  C   UNL     1       2.697  -5.262   4.401  0.00  0.00    +0.102 C 
ATOM     17  N   UNL     1       2.924  -6.319   4.748  0.00  0.00    -0.191 NA
ENDBRANCH   7  16
ENDBRANCH   1   8
BRANCH   2  18
ATOM     18  C   UNL     1       4.600  -1.624   7.781  0.00  0.00    +0.107 C 
BRANCH  18  19
ATOM     19  C   UNL     1       4.828  -0.177   8.224  0.00  0.00    +0.086 C 
BRANCH  19  20
ATOM     20  S   UNL     1       5.746  -0.161   9.789  0.00  0.00    -0.086 S 
BRANCH  20  21
ATOM     21  C   UNL     1       5.926   1.552  10.160  0.00  0.00    +0.185 A 
ATOM     22  N   UNL     1       5.477   2.551   9.432  0.00  0.00    -0.201 NA
ATOM     23  H   UNL     1       6.971   1.572  11.961  0.00  0.00    +0.191 HD
ATOM     24  C   UNL     1       5.795   3.714  10.019  0.00  0.00    +0.182 A 
ATOM     25  N   UNL     1       6.453   3.465  11.129  0.00  0.00    -0.152 NA
ATOM     26  N   UNL     1       6.545   2.068  11.244  0.00  0.00    -0.253 N 
BRANCH  24  27
ATOM     27  C   UNL     1       5.461   5.063   9.499  0.00  0.00    +0.021 A 
ATOM     28  C   UNL     1       4.752   5.196   8.307  0.00  0.00    +0.013 A 
ATOM     29  C   UNL     1       4.443   6.453   7.827  0.00  0.00    +0.021 A 
ATOM     30  C   UNL     1       4.836   7.580   8.528  0.00  0.00    +0.041 A 
ATOM     31  C   UNL     1       5.541   7.453   9.713  0.00  0.00    +0.021 A 
ATOM     32  C   UNL     1       5.850   6.200  10.204  0.00  0.00    +0.013 A 
ATOM     33 CL   UNL     1       4.445   9.158   7.920  0.00  0.00    -0.084 Cl
ENDBRANCH  24  27
ENDBRANCH  20  21
ENDBRANCH  19  20
ENDBRANCH  18  19
ENDBRANCH   2  18
TORSDOF 10
