REMARK  Name = ZINC20907870
REMARK  11 active torsions:
REMARK  status: ('A' for Active; 'I' for Inactive)
REMARK    1  A    between atoms: C_1  and  C_2
REMARK    2  A    between atoms: C_2  and  N_3
REMARK    3  A    between atoms: N_3  and  S_4
REMARK    4  A    between atoms: S_4  and  C_7
REMARK    5  A    between atoms: C_10  and  N_13
REMARK    6  A    between atoms: C_14  and  C_16
REMARK    7  A    between atoms: C_16  and  S_17
REMARK    8  A    between atoms: S_17  and  C_18
REMARK    9  A    between atoms: N_23  and  N_24
REMARK   10  A    between atoms: C_25  and  C_26
REMARK   11  A    between atoms: C_29  and  C_32
REMARK                            x       y       z     vdW  Elec       q    Type
REMARK                         _______ _______ _______ _____ _____    ______ ____
ROOT
ATOM      1  C   UNL     1     -10.600   3.556   0.077  0.00  0.00    +0.173 C 
ENDROOT
BRANCH   1   3
ATOM      2  N   UNL     1     -12.803   4.682   0.087  0.00  0.00    -0.285 N 
ATOM      3  C   UNL     1     -12.107   3.528   0.075  0.00  0.00    +0.227 C 
ATOM      4  O   UNL     1     -12.694   2.466   0.063  0.00  0.00    -0.275 OA
ATOM      5  H   UNL     1     -12.274   5.642   0.174  0.00  0.00    +0.155 HD
BRANCH   2   9
ATOM      6  C   UNL     1     -16.958   4.612  -0.210  0.00  0.00    +0.105 A 
ATOM      7  C   UNL     1     -16.298   3.609   0.476  0.00  0.00    +0.030 A 
ATOM      8  C   UNL     1     -14.921   3.629   0.576  0.00  0.00    +0.025 A 
ATOM      9  C   UNL     1     -14.198   4.659  -0.013  0.00  0.00    +0.034 A 
ATOM     10  C   UNL     1     -14.864   5.668  -0.696  0.00  0.00    +0.025 A 
ATOM     11  C   UNL     1     -16.241   5.639  -0.797  0.00  0.00    +0.030 A 
BRANCH   6  12
ATOM     12  S   UNL     1     -18.715   4.583  -0.335  0.00  0.00    +0.058 S 
ATOM     13  O   UNL     1     -19.053   5.339  -1.490  0.00  0.00    -0.153 OA
ATOM     14  O   UNL     1     -19.112   3.229  -0.168  0.00  0.00    -0.153 OA
BRANCH  12  15
ATOM     15  N   UNL     1     -19.313   5.415   0.966  0.00  0.00    -0.190 NA
ATOM     16  H   UNL     1     -19.761   4.857   1.801  0.00  0.00    +0.148 HD
BRANCH  15  18
ATOM     17  C   UNL     1     -19.995   7.445   2.147  0.00  0.00    +0.022 C 
ATOM     18  C   UNL     1     -19.050   6.850   1.101  0.00  0.00    +0.102 C 
ENDBRANCH  15  18
ENDBRANCH  12  15
ENDBRANCH   6  12
ENDBRANCH   2   9
ENDBRANCH   1   3
BRANCH   1  19
ATOM     19  S   UNL     1      -9.964   1.858   0.059  0.00  0.00    -0.075 S 
BRANCH  19  20
ATOM     20  C   UNL     1      -8.213   2.059   0.064  0.00  0.00    +0.211 A 
ATOM     21  N   UNL     1      -7.290   1.052   0.054  0.00  0.00    -0.186 NA
ATOM     22  C   UNL     1      -6.046   1.620   0.061  0.00  0.00    +0.232 A 
ATOM     23  N   UNL     1      -6.195   2.923   0.081  0.00  0.00    -0.245 N 
ATOM     24  N   UNL     1      -7.568   3.201   0.076  0.00  0.00    -0.144 NA
ATOM     25  N   UNL     1      -4.838   0.938   0.055  0.00  0.00    -0.205 N 
ATOM     26  H   UNL     1      -4.827  -0.162   0.043  0.00  0.00    +0.177 HD
ATOM     27  H   UNL     1      -5.311   3.577   0.097  0.00  0.00    +0.192 HD
BRANCH  25  28
ATOM     28  N   UNL     1      -3.631   1.650   0.064  0.00  0.00    -0.188 NA
ATOM     29  C   UNL     1      -2.500   1.011   0.059  0.00  0.00    +0.138 C 
BRANCH  29  30
ATOM     30  C   UNL     1      -1.230   1.760   0.068  0.00  0.00    -0.005 A 
ATOM     31  C   UNL     1      -0.012   1.077   0.062  0.00  0.00    +0.010 A 
ATOM     32  C   UNL     1       1.172   1.784   0.065  0.00  0.00    +0.004 A 
ATOM     33  C   UNL     1       1.155   3.168   0.078  0.00  0.00    -0.050 A 
ATOM     34  C   UNL     1      -0.048   3.852   0.090  0.00  0.00    +0.004 A 
ATOM     35  C   UNL     1      -1.240   3.158   0.088  0.00  0.00    +0.010 A 
ATOM     36  C   UNL     1       2.453   3.934   0.081  0.00  0.00    +0.044 C 
ENDBRANCH  29  30
ENDBRANCH  25  28
ENDBRANCH  19  20
ENDBRANCH   1  19
TORSDOF 9
