REMARK  Name = ZINC43146815
REMARK  8 active torsions:
REMARK  status: ('A' for Active; 'I' for Inactive)
REMARK    1  A    between atoms: C_1  and  N_2
REMARK    2  A    between atoms: N_2  and  C_3
REMARK    3  A    between atoms: N_2  and  C_4
REMARK    4  A    between atoms: C_4  and  C_9
REMARK    5  A    between atoms: C_9  and  N_10
REMARK    6  A    between atoms: C_20  and  C_26
REMARK    7  A    between atoms: C_26  and  O_28
REMARK    8  A    between atoms: O_28  and  C_29
REMARK                            x       y       z     vdW  Elec       q    Type
REMARK                         _______ _______ _______ _____ _____    ______ ____
ROOT
ATOM      1  N   UNL     1      -3.049   1.361   3.499  0.00  0.00    -0.301 N 
ATOM      2  C   UNL     1      -2.263   2.009   2.617  0.00  0.00    +0.302 C 
ATOM      3  O   UNL     1      -1.770   1.406   1.683  0.00  0.00    -0.253 OA
ATOM      4  N   UNL     1      -2.022   3.327   2.771  0.00  0.00    -0.281 N 
ATOM      5  C   UNL     1      -1.264   4.079   1.760  0.00  0.00    +0.116 C 
ATOM      6  C   UNL     1      -2.180   5.134   1.130  0.00  0.00    +0.072 C 
ATOM      7  C   UNL     1      -2.939   5.845   2.226  0.00  0.00    +0.023 A 
ATOM      8  C   UNL     1      -3.090   5.362   3.478  0.00  0.00    -0.002 A 
ATOM      9  C   UNL     1      -3.877   6.327   4.216  0.00  0.00    +0.005 A 
ATOM     10  C   UNL     1      -4.340   6.363   5.531  0.00  0.00    +0.025 A 
ATOM     11  C   UNL     1      -5.089   7.486   5.900  0.00  0.00    +0.060 A 
ATOM     12  C   UNL     1      -5.358   8.517   4.994  0.00  0.00    +0.017 A 
ATOM     13  C   UNL     1      -4.907   8.491   3.701  0.00  0.00    +0.027 A 
ATOM     14  C   UNL     1      -4.157   7.382   3.306  0.00  0.00    +0.047 A 
ATOM     15  N   UNL     1      -3.575   7.055   2.118  0.00  0.00    -0.358 N 
ATOM     16  H   UNL     1      -3.605   7.599   1.316  0.00  0.00    +0.166 HD
ATOM     17  C   UNL     1      -2.517   4.054   3.953  0.00  0.00    +0.146 C 
ATOM     18  H   UNL     1      -3.501   1.855   4.201  0.00  0.00    +0.150 HD
ENDROOT
BRANCH  11  19
ATOM     19  C   UNL     1      -5.609   7.583   7.277  0.00  0.00    +0.339 C 
ATOM     20  O   UNL     1      -5.384   6.696   8.076  0.00  0.00    -0.245 OA
BRANCH  19  21
ATOM     21  O   UNL     1      -6.332   8.658   7.650  0.00  0.00    -0.464 OA
ATOM     22  C   UNL     1      -6.803   8.686   8.999  0.00  0.00    +0.280 C 
ENDBRANCH  19  21
ENDBRANCH  11  19
BRANCH   1  23
ATOM     23  C   UNL     1      -3.222  -0.090   3.397  0.00  0.00    +0.094 C 
BRANCH  23  24
ATOM     24  C   UNL     1      -4.055  -0.589   4.579  0.00  0.00    -0.050 C 
ATOM     25  C   UNL     1      -3.308  -0.324   5.902  0.00  0.00    -0.010 C 
ATOM     26  C   UNL     1      -3.633  -1.560   6.777  0.00  0.00    -0.001 C 
ATOM     27  C   UNL     1      -3.613  -2.720   5.749  0.00  0.00    -0.001 C 
ATOM     28  C   UNL     1      -4.249  -2.113   4.482  0.00  0.00    -0.010 C 
BRANCH  24  30
ATOM     29  C   UNL     1      -6.087  -0.229   3.356  0.00  0.00    -0.096 C 
ATOM     30  N   UNL     1      -5.361   0.084   4.594  0.00  0.00    +0.381 N 
ATOM     31  C   UNL     1      -6.139  -0.382   5.750  0.00  0.00    -0.096 C 
ATOM     32  H   UNL     1      -5.224   1.081   4.661  0.00  0.00    -0.082 HD
ENDBRANCH  24  30
ENDBRANCH  23  24
ENDBRANCH   1  23
TORSDOF 5
