REMARK  Name = ZINC20247400
REMARK  3 active torsions:
REMARK  status: ('A' for Active; 'I' for Inactive)
REMARK    1  A    between atoms: C_1  and  C_2
REMARK    2  A    between atoms: N_12  and  S_13
REMARK    3  A    between atoms: S_13  and  N_16
REMARK                            x       y       z     vdW  Elec       q    Type
REMARK                         _______ _______ _______ _____ _____    ______ ____
ROOT
ATOM      1  C   UNL     1      -1.450  -0.397   0.134  0.00  0.00    +0.030 C 
ATOM      2  C   UNL     1      -0.024   0.089  -0.129  0.00  0.00    +0.096 C 
ATOM      3  C   UNL     1       0.924  -0.480   0.934  0.00  0.00    +0.029 C 
ATOM      4  C   UNL     1       2.352  -0.039   0.611  0.00  0.00    +0.039 C 
ATOM      5  C   UNL     1       2.408   1.451   0.401  0.00  0.00    -0.025 A 
ATOM      6  C   UNL     1       3.625   2.100   0.524  0.00  0.00    +0.005 A 
ATOM      7  C   UNL     1       3.709   3.466   0.335  0.00  0.00    +0.000 A 
ATOM      8  C   UNL     1       2.577   4.195   0.021  0.00  0.00    +0.002 A 
ATOM      9  C   UNL     1       1.359   3.557  -0.102  0.00  0.00    +0.025 A 
ATOM     10  C   UNL     1       1.272   2.182   0.089  0.00  0.00    +0.056 A 
ATOM     11  N   UNL     1       0.027   1.555  -0.037  0.00  0.00    -0.190 N 
ENDROOT
BRANCH  11  12
ATOM     12  S   UNL     1      -1.365   2.450  -0.089  0.00  0.00    +0.114 S 
ATOM     13  O   UNL     1      -2.410   1.602   0.368  0.00  0.00    -0.138 OA
ATOM     14  O   UNL     1      -1.070   3.696   0.527  0.00  0.00    -0.138 OA
BRANCH  12  15
ATOM     15  N   UNL     1      -1.681   2.773  -1.682  0.00  0.00    -0.167 NA
ATOM     16  C   UNL     1      -1.150   3.984  -2.326  0.00  0.00    +0.092 C 
ATOM     17  C   UNL     1      -2.298   4.713  -3.023  0.00  0.00    -0.065 C 
ATOM     18  N   UNL     1      -2.992   3.783  -3.924  0.00  0.00    +0.381 N 
ATOM     19  C   UNL     1      -3.603   2.674  -3.178  0.00  0.00    -0.065 C 
ATOM     20  C   UNL     1      -2.504   1.859  -2.489  0.00  0.00    +0.092 C 
ATOM     21  H   UNL     1      -3.784   4.319  -4.466  0.00  0.00    -0.086 HD
ATOM     22  H   UNL     1      -2.273   3.365  -4.645  0.00  0.00    -0.086 HD
ENDBRANCH  12  15
ENDBRANCH  11  12
TORSDOF 2
