REMARK  Name = ZINC19132324
REMARK  6 active torsions:
REMARK  status: ('A' for Active; 'I' for Inactive)
REMARK    1  A    between atoms: C_1  and  C_2
REMARK    2  A    between atoms: C_5  and  C_30
REMARK    3  A    between atoms: C_6  and  C_8
REMARK    4  A    between atoms: C_8  and  C_10
REMARK    5  A    between atoms: C_8  and  N_16
REMARK    6  A    between atoms: C_17  and  C_19
REMARK                            x       y       z     vdW  Elec       q    Type
REMARK                         _______ _______ _______ _____ _____    ______ ____
ROOT
ATOM      1  C   UNL     1       2.377   1.293   0.093  0.00  0.00    +0.134 C 
ENDROOT
BRANCH   1   7
ATOM      2  C   UNL     1       4.052   5.980  -0.428  0.00  0.00    +0.044 C 
ATOM      3  C   UNL     1       4.270   4.494  -0.556  0.00  0.00    -0.050 A 
ATOM      4  C   UNL     1       5.471   4.011  -1.041  0.00  0.00    +0.003 A 
ATOM      5  C   UNL     1       5.671   2.648  -1.158  0.00  0.00    +0.004 A 
ATOM      6  C   UNL     1       4.671   1.768  -0.787  0.00  0.00    -0.045 A 
ATOM      7  C   UNL     1       3.468   2.252  -0.307  0.00  0.00    -0.020 A 
ATOM      8  C   UNL     1       3.269   3.615  -0.189  0.00  0.00    +0.009 A 
ATOM      9  C   UNL     1       4.891   0.282  -0.910  0.00  0.00    +0.044 C 
ENDBRANCH   1   7
BRANCH   1  10
ATOM     10  C   UNL     1       2.553   0.906   1.539  0.00  0.00    -0.020 A 
ATOM     11  C   UNL     1       2.249   1.800   2.555  0.00  0.00    +0.025 A 
ATOM     12  C   UNL     1       2.420   1.409   3.869  0.00  0.00    +0.111 A 
ATOM     13  N   UNL     1       2.874   0.206   4.162  0.00  0.00    -0.263 NA
ATOM     14  C   UNL     1       3.178  -0.668   3.222  0.00  0.00    +0.111 A 
ATOM     15  C   UNL     1       3.029  -0.349   1.885  0.00  0.00    +0.025 A 
ENDBRANCH   1  10
BRANCH   1  16
ATOM     16  N   UNL     1       1.072   1.936  -0.085  0.00  0.00    -0.300 N 
ATOM     17  C   UNL     1      -0.028   1.183  -0.286  0.00  0.00    +0.250 C 
ATOM     18  O   UNL     1       0.074  -0.022  -0.414  0.00  0.00    -0.270 OA
ATOM     19  H   UNL     1       1.001   2.903  -0.058  0.00  0.00    +0.150 HD
BRANCH  17  20
ATOM     20  C   UNL     1      -1.351   1.821  -0.356  0.00  0.00    +0.101 A 
ATOM     21  C   UNL     1      -2.507   1.050  -0.444  0.00  0.00    +0.023 A 
ATOM     22  C   UNL     1      -3.750   1.686  -0.509  0.00  0.00    -0.027 A 
ATOM     23  C   UNL     1      -3.824   3.042  -0.487  0.00  0.00    +0.022 A 
ATOM     24  N   UNL     1      -2.696   3.796  -0.402  0.00  0.00    -0.325 N 
ATOM     25  H   UNL     1      -2.773   4.763  -0.387  0.00  0.00    +0.169 HD
ATOM     26  C   UNL     1      -1.477   3.234  -0.331  0.00  0.00    +0.261 A 
ATOM     27  O   UNL     1      -0.483   3.935  -0.250  0.00  0.00    -0.267 OA
ATOM     28  C   UNL     1      -5.272   3.483  -0.569  0.00  0.00    +0.054 C 
ATOM     29  C   UNL     1      -6.096   2.230  -0.204  0.00  0.00    +0.011 C 
ATOM     30  C   UNL     1      -5.139   1.088  -0.606  0.00  0.00    +0.037 C 
ENDBRANCH  17  20
ENDBRANCH   1  16
TORSDOF 4
