REMARK  Name = ZINC60360029
REMARK  9 active torsions:
REMARK  status: ('A' for Active; 'I' for Inactive)
REMARK    1  A    between atoms: C_1  and  C_2
REMARK    2  A    between atoms: C_5  and  C_29
REMARK    3  A    between atoms: C_8  and  C_28
REMARK    4  A    between atoms: C_9  and  C_11
REMARK    5  A    between atoms: N_13  and  C_14
REMARK    6  A    between atoms: C_14  and  C_16
REMARK    7  A    between atoms: C_14  and  C_25
REMARK    8  A    between atoms: C_25  and  C_26
REMARK    9  A    between atoms: C_25  and  C_27
REMARK                            x       y       z     vdW  Elec       q    Type
REMARK                         _______ _______ _______ _____ _____    ______ ____
ROOT
ATOM      1  C   UNL     1       0.068  -1.578   4.791  0.00  0.00    +0.280 C 
ATOM      2  O   UNL     1       0.061  -0.566   5.466  0.00  0.00    -0.267 OA
ATOM      3  N   UNL     1       0.090  -2.786   5.388  0.00  0.00    -0.299 N 
ATOM      4  H   UNL     1       0.096  -3.593   4.850  0.00  0.00    +0.150 HD
ENDROOT
BRANCH   1  13
ATOM      5  C   UNL     1      -0.018   1.503   0.010  0.00  0.00    +0.044 C 
ATOM      6  C   UNL     1       0.002  -0.004   0.002  0.00  0.00    -0.039 A 
ATOM      7  C   UNL     1       0.006  -0.684  -1.183  0.00  0.00    +0.004 A 
ATOM      8  C   UNL     1       0.025  -2.072  -1.198  0.00  0.00    +0.007 A 
ATOM      9  C   UNL     1       0.041  -2.789  -0.021  0.00  0.00    -0.008 A 
ATOM     10  C   UNL     1       0.037  -2.119   1.197  0.00  0.00    +0.139 A 
ATOM     11  C   UNL     1       0.023  -0.712   1.206  0.00  0.00    +0.027 A 
ATOM     12  C   UNL     1       0.030  -0.325   2.616  0.00  0.00    +0.008 A 
ATOM     13  C   UNL     1       0.053  -1.483   3.324  0.00  0.00    +0.193 A 
ATOM     14  O   UNL     1       0.049  -2.535   2.478  0.00  0.00    -0.450 OA
ATOM     15  C   UNL     1       0.016   1.076   3.171  0.00  0.00    +0.048 C 
ATOM     16  C   UNL     1       0.061  -4.295  -0.055  0.00  0.00    +0.047 C 
ENDBRANCH   1  13
BRANCH   3  17
ATOM     17  C   UNL     1       0.105  -2.880   6.850  0.00  0.00    +0.144 C 
BRANCH  17  18
ATOM     18  C   UNL     1       0.728  -4.189   7.262  0.00  0.00    +0.158 A 
ATOM     19  N   UNL     1       0.480  -5.362   6.739  0.00  0.00    -0.132 NA
ATOM     20  N   UNL     1       1.181  -6.269   7.324  0.00  0.00    -0.129 NA
ATOM     21  C   UNL     1       1.925  -5.712   8.266  0.00  0.00    +0.161 A 
ATOM     22  N   UNL     1       1.654  -4.366   8.243  0.00  0.00    -0.285 N 
ATOM     23  C   UNL     1       2.282  -3.520   9.109  0.00  0.00    +0.094 A 
ATOM     24  C   UNL     1       3.180  -3.992   9.998  0.00  0.00    +0.018 A 
ATOM     25  C   UNL     1       3.481  -5.364  10.044  0.00  0.00    +0.005 A 
ATOM     26  C   UNL     1       2.857  -6.221   9.191  0.00  0.00    +0.048 A 
ENDBRANCH  17  18
BRANCH  17  27
ATOM     27  C   UNL     1      -1.328  -2.807   7.380  0.00  0.00    +0.011 C 
ATOM     28  C   UNL     1      -1.312  -2.906   8.907  0.00  0.00    +0.009 C 
ATOM     29  C   UNL     1      -1.960  -1.478   6.962  0.00  0.00    +0.009 C 
ENDBRANCH  17  27
ENDBRANCH   3  17
TORSDOF 4
