REMARK  Name = ZINC39710218
REMARK  10 active torsions:
REMARK  status: ('A' for Active; 'I' for Inactive)
REMARK    1  A    between atoms: C_1  and  C_2
REMARK    2  A    between atoms: C_9  and  C_14
REMARK    3  A    between atoms: C_14  and  C_16
REMARK    4  A    between atoms: C_14  and  N_25
REMARK    5  A    between atoms: N_20  and  C_21
REMARK    6  A    between atoms: C_21  and  C_22
REMARK    7  A    between atoms: C_22  and  O_23
REMARK    8  A    between atoms: O_23  and  C_24
REMARK    9  A    between atoms: N_28  and  C_31
REMARK   10  A    between atoms: C_36  and  C_37
REMARK                            x       y       z     vdW  Elec       q    Type
REMARK                         _______ _______ _______ _____ _____    ______ ____
ROOT
ATOM      1  C   UNL     1      -1.528  -5.203   3.155  0.00  0.00    +0.142 C 
ENDROOT
BRANCH   1  10
ATOM      2  C   UNL     1       4.792  -6.213   6.325  0.00  0.00    +0.044 C 
ATOM      3  C   UNL     1       3.853  -5.490   5.395  0.00  0.00    -0.050 A 
ATOM      4  C   UNL     1       4.117  -4.163   5.054  0.00  0.00    +0.005 A 
ATOM      5  C   UNL     1       3.318  -3.446   4.222  0.00  0.00    +0.024 A 
ATOM      6  C   UNL     1       2.167  -4.030   3.659  0.00  0.00    +0.040 A 
ATOM      7  N   UNL     1       1.390  -3.318   2.843  0.00  0.00    -0.284 N 
ATOM      8  C   UNL     1       0.296  -3.804   2.282  0.00  0.00    +0.226 C 
ATOM      9  O   UNL     1      -0.374  -3.105   1.545  0.00  0.00    -0.275 OA
ATOM     10  C   UNL     1      -0.119  -5.231   2.559  0.00  0.00    +0.123 C 
ATOM     11  C   UNL     1       0.762  -6.045   3.486  0.00  0.00    -0.003 C 
ATOM     12  C   UNL     1       1.864  -5.430   4.002  0.00  0.00    -0.007 A 
ATOM     13  C   UNL     1       2.771  -6.144   4.901  0.00  0.00    +0.012 A 
ATOM     14  H   UNL     1       1.639  -2.400   2.653  0.00  0.00    +0.155 HD
ENDBRANCH   1  10
BRANCH   1  15
ATOM     15  N   UNL     1      -1.919  -6.563   3.550  0.00  0.00    -0.289 NA
ATOM     16  C   UNL     1      -1.995  -7.449   2.381  0.00  0.00    +0.104 C 
ATOM     17  C   UNL     1      -2.227  -8.889   2.850  0.00  0.00    +0.120 C 
ATOM     18  N   UNL     1      -3.409  -8.911   3.724  0.00  0.00    -0.327 N 
ATOM     19  C   UNL     1      -3.467  -7.954   4.840  0.00  0.00    +0.120 C 
ATOM     20  C   UNL     1      -3.187  -6.551   4.293  0.00  0.00    +0.104 C 
BRANCH  18  21
ATOM     21  C   UNL     1      -4.450  -9.816   3.502  0.00  0.00    +0.034 A 
ATOM     22  C   UNL     1      -4.428 -11.065   4.109  0.00  0.00    +0.043 A 
ATOM     23  C   UNL     1      -5.458 -11.958   3.886  0.00  0.00    +0.043 A 
ATOM     24  C   UNL     1      -6.512 -11.608   3.059  0.00  0.00    +0.020 A 
ATOM     25  C   UNL     1      -6.536 -10.366   2.453  0.00  0.00    +0.006 A 
ATOM     26  C   UNL     1      -5.511  -9.467   2.677  0.00  0.00    -0.029 A 
ATOM     27  C   UNL     1      -5.542  -8.110   2.021  0.00  0.00    +0.045 C 
ATOM     28 CL   UNL     1      -5.432 -13.520   4.644  0.00  0.00    -0.083 Cl
ENDBRANCH  18  21
ENDBRANCH   1  15
BRANCH   1  29
ATOM     29  C   UNL     1      -2.498  -4.679   2.128  0.00  0.00    +0.170 A 
ATOM     30  N   UNL     1      -2.765  -5.211   0.961  0.00  0.00    -0.112 NA
ATOM     31  N   UNL     1      -3.644  -4.471   0.378  0.00  0.00    -0.023 NA
ATOM     32  N   UNL     1      -3.944  -3.481   1.143  0.00  0.00    -0.044 NA
ATOM     33  N   UNL     1      -3.263  -3.576   2.235  0.00  0.00    -0.225 N 
BRANCH  33  34
ATOM     34  C   UNL     1      -3.309  -2.656   3.373  0.00  0.00    +0.175 C 
BRANCH  34  35
ATOM     35  C   UNL     1      -2.387  -1.465   3.105  0.00  0.00    +0.183 C 
BRANCH  35  36
ATOM     36  O   UNL     1      -2.338  -0.630   4.263  0.00  0.00    -0.381 OA
ATOM     37  C   UNL     1      -1.499   0.518   4.118  0.00  0.00    +0.194 C 
ENDBRANCH  35  36
ENDBRANCH  34  35
ENDBRANCH  33  34
ENDBRANCH   1  29
TORSDOF 7
