REMARK  Name = ZINC45648507
REMARK  4 active torsions:
REMARK  status: ('A' for Active; 'I' for Inactive)
REMARK    1  A    between atoms: C_3  and  C_20
REMARK    2  A    between atoms: C_4  and  N_8
REMARK    3  A    between atoms: N_11  and  C_12
REMARK    4  A    between atoms: C_12  and  C_13
REMARK                            x       y       z     vdW  Elec       q    Type
REMARK                         _______ _______ _______ _____ _____    ______ ____
ROOT
ATOM      1  N   UNL     1       3.562  -0.665  -0.024  0.00  0.00    -0.269 N 
ATOM      2  C   UNL     1       3.550  -2.009  -0.117  0.00  0.00    +0.304 C 
ATOM      3  O   UNL     1       2.498  -2.597  -0.282  0.00  0.00    -0.253 OA
ATOM      4  N   UNL     1       4.702  -2.702  -0.027  0.00  0.00    -0.299 N 
ATOM      5  H   UNL     1       4.407  -0.190   0.030  0.00  0.00    +0.156 HD
ATOM      6  H   UNL     1       5.541  -2.233   0.105  0.00  0.00    +0.150 HD
ENDROOT
BRANCH   1  10
ATOM      7  C   UNL     1      -0.029   1.456   0.028  0.00  0.00    +0.021 A 
ATOM      8  C   UNL     1       1.069   2.005  -0.595  0.00  0.00    +0.018 A 
ATOM      9  C   UNL     1       2.280   1.304  -0.620  0.00  0.00    +0.084 A 
ATOM     10  C   UNL     1       2.364   0.043  -0.006  0.00  0.00    +0.050 A 
ATOM     11  C   UNL     1       1.247  -0.493   0.617  0.00  0.00    +0.044 A 
ATOM     12  C   UNL     1       0.058   0.211   0.633  0.00  0.00    +0.043 A 
ATOM     13 CL   UNL     1      -1.335  -0.467   1.416  0.00  0.00    -0.083 Cl
BRANCH   9  14
ATOM     14  C   UNL     1       3.457   1.884  -1.285  0.00  0.00    +0.388 C 
ATOM     15  O   UNL     1       3.356   2.939  -1.896  0.00  0.00    -0.241 OA
ATOM     16  O   UNL     1       4.536   1.311  -1.227  0.00  0.00    -0.241 OA
ENDBRANCH   9  14
ENDBRANCH   1  10
BRANCH   4  17
ATOM     17  C   UNL     1       4.689  -4.163  -0.127  0.00  0.00    +0.109 C 
BRANCH  17  18
ATOM     18  C   UNL     1       6.116  -4.697   0.007  0.00  0.00    +0.010 C 
ATOM     19  C   UNL     1       6.121  -6.216  -0.212  0.00  0.00    +0.009 C 
ATOM     20  C   UNL     1       7.574  -6.694  -0.250  0.00  0.00    +0.027 C 
ATOM     21  C   UNL     1       8.329  -6.148   0.926  0.00  0.00    -0.031 C 
ATOM     22  C   UNL     1       7.926  -5.151   1.647  0.00  0.00    -0.031 C 
ATOM     23  C   UNL     1       6.645  -4.404   1.412  0.00  0.00    +0.032 C 
ENDBRANCH  17  18
ENDBRANCH   4  17
TORSDOF 4
