REMARK  Name = ZINC32865319
REMARK  9 active torsions:
REMARK  status: ('A' for Active; 'I' for Inactive)
REMARK    1  A    between atoms: C_1  and  C_2
REMARK    2  A    between atoms: C_2  and  C_3
REMARK    3  A    between atoms: C_6  and  N_9
REMARK    4  A    between atoms: C_10  and  C_12
REMARK    5  A    between atoms: C_12  and  C_14
REMARK    6  A    between atoms: C_12  and  N_15
REMARK    7  A    between atoms: C_18  and  N_21
REMARK    8  A    between atoms: N_21  and  S_22
REMARK    9  A    between atoms: S_22  and  C_25
REMARK                            x       y       z     vdW  Elec       q    Type
REMARK                         _______ _______ _______ _____ _____    ______ ____
ROOT
ATOM      1  N   UNL     1       3.767  -4.866   0.030  0.00  0.00    +0.387 N 
ATOM      2  C   UNL     1       4.512  -4.294   1.159  0.00  0.00    -0.076 C 
ATOM      3  C   UNL     1       5.993  -4.657   1.030  0.00  0.00    +0.002 C 
ATOM      4  C   UNL     1       6.141  -6.181   1.015  0.00  0.00    +0.073 C 
ATOM      5  C   UNL     1       5.316  -6.755  -0.140  0.00  0.00    +0.002 C 
ATOM      6  C   UNL     1       3.855  -6.332   0.023  0.00  0.00    -0.076 C 
ATOM      7  H   UNL     1       4.229  -4.498  -0.898  0.00  0.00    -0.081 HD
ENDROOT
BRANCH   1   8
ATOM      8  C   UNL     1       2.366  -4.423   0.046  0.00  0.00    +0.016 C 
ATOM      9  C   UNL     1       2.315  -2.895   0.106  0.00  0.00    -0.004 C 
BRANCH   8  11
ATOM     10  N   UNL     1       0.338  -5.075  -1.211  0.00  0.00    -0.287 N 
ATOM     11  C   UNL     1       1.674  -4.899  -1.206  0.00  0.00    +0.203 C 
ATOM     12  O   UNL     1       2.320  -5.125  -2.207  0.00  0.00    -0.277 OA
ATOM     13  H   UNL     1      -0.258  -4.795  -0.330  0.00  0.00    +0.155 HD
BRANCH  10  17
ATOM     14  C   UNL     1      -1.536  -6.682  -4.567  0.00  0.00    -0.048 A 
ATOM     15  C   UNL     1      -2.007  -6.985  -3.303  0.00  0.00    +0.005 A 
ATOM     16  C   UNL     1      -1.388  -6.454  -2.188  0.00  0.00    +0.023 A 
ATOM     17  C   UNL     1      -0.292  -5.615  -2.338  0.00  0.00    +0.033 A 
ATOM     18  C   UNL     1       0.178  -5.312  -3.610  0.00  0.00    +0.023 A 
ATOM     19  C   UNL     1      -0.445  -5.847  -4.720  0.00  0.00    +0.005 A 
BRANCH  14  21
ATOM     20  C   UNL     1      -3.325  -6.321  -6.247  0.00  0.00    +0.009 C 
ATOM     21  C   UNL     1      -2.214  -7.264  -5.781  0.00  0.00    +0.032 C 
ENDBRANCH  14  21
ENDBRANCH  10  17
ENDBRANCH   8  11
ENDBRANCH   1   8
BRANCH   4  22
ATOM     22  N   UNL     1       7.551  -6.535   0.834  0.00  0.00    -0.187 NA
ATOM     23  H   UNL     1       7.939  -6.746  -0.174  0.00  0.00    +0.148 HD
BRANCH  22  24
ATOM     24  S   UNL     1       8.500  -6.859   2.151  0.00  0.00    +0.065 S 
ATOM     25  O   UNL     1       9.788  -7.190   1.652  0.00  0.00    -0.153 OA
ATOM     26  O   UNL     1       8.290  -5.799   3.074  0.00  0.00    -0.153 OA
BRANCH  24  27
ATOM     27  C   UNL     1       7.862  -8.318   2.906  0.00  0.00    +0.142 A 
ATOM     28  C   UNL     1       8.187  -9.612   2.671  0.00  0.00    +0.036 A 
ATOM     29  C   UNL     1       7.550 -10.605   3.393  0.00  0.00    +0.010 A 
ATOM     30  C   UNL     1       6.620 -10.254   4.314  0.00  0.00    +0.047 A 
ATOM     31  S   UNL     1       6.626  -8.473   4.186  0.00  0.00    -0.077 S 
ENDBRANCH  24  27
ENDBRANCH  22  24
ENDBRANCH   4  22
TORSDOF 7
