REMARK  Name = ZINC39037733
REMARK  9 active torsions:
REMARK  status: ('A' for Active; 'I' for Inactive)
REMARK    1  A    between atoms: C_1  and  C_2
REMARK    2  A    between atoms: C_2  and  O_3
REMARK    3  A    between atoms: O_3  and  C_4
REMARK    4  A    between atoms: C_4  and  C_6
REMARK    5  A    between atoms: C_8  and  N_17
REMARK    6  A    between atoms: C_18  and  C_20
REMARK    7  A    between atoms: C_20  and  C_21
REMARK    8  A    between atoms: C_21  and  N_22
REMARK    9  A    between atoms: C_25  and  C_28
REMARK                            x       y       z     vdW  Elec       q    Type
REMARK                         _______ _______ _______ _____ _____    ______ ____
ROOT
ATOM      1  C   UNL     1      -3.789  -3.883   1.716  0.00  0.00    +0.234 C 
ATOM      2  C   UNL     1      -3.469  -2.465   1.300  0.00  0.00    +0.053 C 
ATOM      3  C   UNL     1      -2.886  -2.562   0.049  0.00  0.00    +0.019 A 
ATOM      4  C   UNL     1      -2.378  -1.591  -0.847  0.00  0.00    +0.026 A 
ATOM      5  C   UNL     1      -1.850  -1.982  -2.034  0.00  0.00    +0.019 A 
ATOM      6  C   UNL     1      -1.794  -3.329  -2.403  0.00  0.00    +0.017 A 
ATOM      7  C   UNL     1      -2.262  -4.312  -1.596  0.00  0.00    +0.027 A 
ATOM      8  C   UNL     1      -2.828  -3.983  -0.337  0.00  0.00    +0.045 A 
ATOM      9  N   UNL     1      -3.342  -4.740   0.613  0.00  0.00    -0.367 N 
ATOM     10 BR   UNL     1      -1.176  -0.672  -3.219  0.00  0.00    -0.050 Br
ATOM     11  H   UNL     1      -3.413  -5.707   0.588  0.00  0.00    +0.161 HD
ENDROOT
BRANCH   2  12
ATOM     12  N   UNL     1      -3.706  -1.326   2.010  0.00  0.00    -0.286 N 
ATOM     13  C   UNL     1      -4.125  -1.404   3.289  0.00  0.00    +0.215 C 
ATOM     14  O   UNL     1      -4.190  -2.482   3.841  0.00  0.00    -0.276 OA
ATOM     15  H   UNL     1      -3.573  -0.459   1.595  0.00  0.00    +0.155 HD
BRANCH  13  16
ATOM     16  C   UNL     1      -4.513  -0.152   4.033  0.00  0.00    +0.077 C 
BRANCH  16  17
ATOM     17  C   UNL     1      -4.947  -0.517   5.454  0.00  0.00    -0.070 C 
BRANCH  17  18
ATOM     18  N   UNL     1      -5.325   0.704   6.179  0.00  0.00    +0.380 N 
ATOM     19  C   UNL     1      -4.146   1.564   6.333  0.00  0.00    -0.079 C 
ATOM     20  C   UNL     1      -4.550   2.872   7.016  0.00  0.00    -0.016 C 
ATOM     21  C   UNL     1      -5.141   2.561   8.394  0.00  0.00    -0.018 C 
ATOM     22  C   UNL     1      -6.325   1.604   8.227  0.00  0.00    -0.016 C 
ATOM     23  C   UNL     1      -5.854   0.342   7.499  0.00  0.00    -0.079 C 
ATOM     24  C   UNL     1      -5.621   3.858   9.050  0.00  0.00    +0.007 C 
ATOM     25  H   UNL     1      -6.033   1.198   5.657  0.00  0.00    -0.082 HD
ENDBRANCH  17  18
ENDBRANCH  16  17
ENDBRANCH  13  16
ENDBRANCH   2  12
BRANCH   1  26
ATOM     26  C   UNL     1      -5.274  -4.040   1.926  0.00  0.00    +0.336 C 
ATOM     27  O   UNL     1      -5.975  -4.420   1.018  0.00  0.00    -0.248 OA
BRANCH  26  28
ATOM     28  O   UNL     1      -5.816  -3.757   3.121  0.00  0.00    -0.463 OA
BRANCH  28  30
ATOM     29  C   UNL     1      -7.661  -3.560   4.669  0.00  0.00    +0.048 C 
ATOM     30  C   UNL     1      -7.229  -3.928   3.248  0.00  0.00    +0.229 C 
ENDBRANCH  28  30
ENDBRANCH  26  28
ENDBRANCH   1  26
TORSDOF 7
