REMARK  Name = ZINC43220922
REMARK  4 active torsions:
REMARK  status: ('A' for Active; 'I' for Inactive)
REMARK    1  A    between atoms: C_1  and  C_2
REMARK    2  A    between atoms: C_2  and  C_4
REMARK    3  A    between atoms: C_2  and  N_10
REMARK    4  A    between atoms: N_10  and  P_11
REMARK                            x       y       z     vdW  Elec       q    Type
REMARK                         _______ _______ _______ _____ _____    ______ ____
ROOT
ATOM      1  P   UNL     1      -0.411  -0.816  -2.433  0.00  0.00    +0.321 P 
ATOM      2  O   UNL     1       0.033   0.023  -3.702  0.00  0.00    -0.435 OA
ATOM      3  C   UNL     1       1.361  -0.082  -4.026  0.00  0.00    +0.136 A 
ATOM      4  C   UNL     1       1.877   1.195  -4.374  0.00  0.00    +0.047 A 
ATOM      5  C   UNL     1       3.141   1.432  -4.765  0.00  0.00    +0.012 A 
ATOM      6  C   UNL     1       4.074   0.307  -4.812  0.00  0.00    -0.021 A 
ATOM      7  C   UNL     1       5.311   0.421  -5.331  0.00  0.00    -0.018 C 
ATOM      8  C   UNL     1       6.212  -0.786  -5.389  0.00  0.00    +0.032 C 
ATOM      9  C   UNL     1       5.970  -1.696  -4.188  0.00  0.00    +0.032 C 
ATOM     10  C   UNL     1       4.495  -1.949  -3.997  0.00  0.00    -0.017 C 
ATOM     11  C   UNL     1       3.607  -0.994  -4.291  0.00  0.00    -0.011 A 
ATOM     12  C   UNL     1       2.135  -1.208  -4.061  0.00  0.00    +0.031 A 
ATOM     13  C   UNL     1       1.829  -2.571  -3.898  0.00  0.00    +0.001 C 
ATOM     14  C   UNL     1       2.403  -3.423  -4.846  0.00  0.00    -0.012 A 
ATOM     15  C   UNL     1       3.065  -2.915  -5.988  0.00  0.00    +0.009 A 
ATOM     16  C   UNL     1       3.782  -3.746  -6.782  0.00  0.00    +0.001 A 
ATOM     17  C   UNL     1       3.874  -5.124  -6.551  0.00  0.00    +0.001 A 
ATOM     18  C   UNL     1       3.155  -5.723  -5.570  0.00  0.00    +0.008 A 
ATOM     19  C   UNL     1       2.296  -4.887  -4.727  0.00  0.00    -0.021 A 
ATOM     20  C   UNL     1       1.386  -5.428  -3.894  0.00  0.00    -0.016 C 
ATOM     21  C   UNL     1       0.415  -4.564  -3.161  0.00  0.00    +0.064 C 
ATOM     22  C   UNL     1       0.901  -3.152  -2.858  0.00  0.00    +0.162 C 
ATOM     23  O   UNL     1      -0.255  -2.347  -2.809  0.00  0.00    -0.303 OA
ENDROOT
BRANCH   1  24
ATOM     24  N   UNL     1       0.690  -0.478  -1.207  0.00  0.00    -0.233 NA
ATOM     25  H   UNL     1       1.381   0.190  -1.515  0.00  0.00    +0.132 HD
BRANCH  24  27
ATOM     26  C   UNL     1      -0.019   1.526   0.010  0.00  0.00    +0.029 C 
ATOM     27  C   UNL     1       0.002  -0.004   0.002  0.00  0.00    +0.090 C 
BRANCH  27  28
ATOM     28  C   UNL     1       0.731  -0.503   1.223  0.00  0.00    -0.030 A 
ATOM     29  C   UNL     1       2.113  -0.514   1.247  0.00  0.00    +0.005 A 
ATOM     30  C   UNL     1       2.782  -0.972   2.366  0.00  0.00    +0.000 A 
ATOM     31  C   UNL     1       2.068  -1.419   3.463  0.00  0.00    +0.000 A 
ATOM     32  C   UNL     1       0.686  -1.407   3.439  0.00  0.00    +0.000 A 
ATOM     33  C   UNL     1       0.017  -0.945   2.321  0.00  0.00    +0.005 A 
ENDBRANCH  27  28
ENDBRANCH  24  27
ENDBRANCH   1  24
TORSDOF 3
