REMARK  Name = ZINC46255090
REMARK  12 active torsions:
REMARK  status: ('A' for Active; 'I' for Inactive)
REMARK    1  A    between atoms: C_1  and  C_2
REMARK    2  A    between atoms: N_5  and  C_8
REMARK    3  A    between atoms: C_8  and  C_10
REMARK    4  A    between atoms: C_8  and  C_27
REMARK    5  A    between atoms: C_10  and  N_11
REMARK    6  A    between atoms: N_17  and  C_20
REMARK    7  A    between atoms: C_20  and  C_21
REMARK    8  A    between atoms: N_23  and  C_24
REMARK    9  A    between atoms: C_24  and  C_25
REMARK   10  A    between atoms: C_24  and  C_26
REMARK   11  A    between atoms: C_27  and  C_28
REMARK   12  A    between atoms: C_27  and  C_29
REMARK                            x       y       z     vdW  Elec       q    Type
REMARK                         _______ _______ _______ _____ _____    ______ ____
ROOT
ATOM      1  N   UNL     1       1.277  -3.509   2.374  0.00  0.00    -0.301 N 
ATOM      2  C   UNL     1       2.145  -3.592   3.401  0.00  0.00    +0.302 C 
ATOM      3  O   UNL     1       1.886  -4.294   4.360  0.00  0.00    -0.253 OA
ATOM      4  N   UNL     1       3.299  -2.898   3.366  0.00  0.00    -0.283 N 
ATOM      5  C   UNL     1       4.308  -3.056   4.425  0.00  0.00    +0.124 C 
ATOM      6  C   UNL     1       5.663  -3.340   3.769  0.00  0.00    +0.104 C 
ATOM      7  N   UNL     1       5.956  -2.291   2.784  0.00  0.00    -0.291 NA
ATOM      8  C   UNL     1       4.968  -2.291   1.696  0.00  0.00    +0.104 C 
ATOM      9  C   UNL     1       3.587  -1.967   2.264  0.00  0.00    +0.124 C 
ATOM     10  H   UNL     1       1.512  -3.005   1.579  0.00  0.00    +0.150 HD
ENDROOT
BRANCH   1  11
ATOM     11  C   UNL     1      -0.023  -4.179   2.457  0.00  0.00    +0.091 C 
BRANCH  11  12
ATOM     12  C   UNL     1      -0.881  -3.779   1.255  0.00  0.00    -0.048 C 
BRANCH  12  17
ATOM     13  C   UNL     1      -1.940   1.598   2.832  0.00  0.00    +0.007 C 
ATOM     14  C   UNL     1      -1.422   0.159   2.790  0.00  0.00    -0.018 C 
ATOM     15  C   UNL     1      -0.586  -0.047   1.524  0.00  0.00    -0.016 C 
ATOM     16  C   UNL     1      -0.138  -1.509   1.448  0.00  0.00    -0.078 C 
ATOM     17  N   UNL     1      -1.315  -2.384   1.406  0.00  0.00    +0.383 N 
ATOM     18  C   UNL     1      -2.084  -2.244   2.649  0.00  0.00    -0.078 C 
ATOM     19  C   UNL     1      -2.607  -0.811   2.771  0.00  0.00    -0.016 C 
ATOM     20  H   UNL     1      -1.896  -2.127   0.622  0.00  0.00    -0.081 HD
ENDBRANCH  12  17
BRANCH  12  21
ATOM     21  C   UNL     1      -2.109  -4.689   1.179  0.00  0.00    -0.029 C 
ATOM     22  C   UNL     1      -2.949  -4.311  -0.042  0.00  0.00    +0.005 C 
ATOM     23  C   UNL     1      -1.657  -6.146   1.056  0.00  0.00    +0.005 C 
ENDBRANCH  12  21
ENDBRANCH  11  12
ENDBRANCH   1  11
BRANCH   7  24
ATOM     24  C   UNL     1       7.320  -2.431   2.256  0.00  0.00    +0.180 C 
BRANCH  24  25
ATOM     25  C   UNL     1       7.671  -1.211   1.443  0.00  0.00    +0.227 C 
ATOM     26  O   UNL     1       6.865  -0.314   1.316  0.00  0.00    -0.274 OA
ATOM     27  N   UNL     1       8.882  -1.118   0.858  0.00  0.00    -0.312 N 
ATOM     28  H   UNL     1       9.526  -1.835   0.959  0.00  0.00    +0.149 HD
BRANCH  27  29
ATOM     29  C   UNL     1       9.223   0.068   0.067  0.00  0.00    +0.067 C 
ATOM     30  C   UNL     1      10.743   0.244   0.044  0.00  0.00    +0.027 C 
ATOM     31  C   UNL     1       8.707  -0.106  -1.363  0.00  0.00    +0.027 C 
ENDBRANCH  27  29
ENDBRANCH  24  25
ENDBRANCH   7  24
TORSDOF 7
