REMARK  Name = ZINC00551306
REMARK  6 active torsions:
REMARK  status: ('A' for Active; 'I' for Inactive)
REMARK    1  A    between atoms: C_1  and  O_2
REMARK    2  A    between atoms: O_2  and  C_3
REMARK    3  A    between atoms: C_6  and  N_9
REMARK    4  A    between atoms: N_9  and  C_10
REMARK    5  A    between atoms: C_11  and  C_22
REMARK    6  A    between atoms: C_13  and  C_15
REMARK                            x       y       z     vdW  Elec       q    Type
REMARK                         _______ _______ _______ _____ _____    ______ ____
ROOT
ATOM      1  C   UNL     1       2.511  -3.877   4.336  0.00  0.00    +0.229 A 
ATOM      2  C   UNL     1       3.009  -4.636   5.384  0.00  0.00    +0.201 A 
ATOM      3  N   UNL     1       2.769  -5.939   5.077  0.00  0.00    -0.196 NA
ATOM      4  C   UNL     1       2.165  -5.990   3.918  0.00  0.00    +0.234 A 
ATOM      5  O   UNL     1       1.990  -4.741   3.446  0.00  0.00    -0.420 OA
ENDROOT
BRANCH   4   6
ATOM      6  C   UNL     1       1.735  -7.227   3.235  0.00  0.00    +0.072 A 
ATOM      7  C   UNL     1       1.101  -7.159   1.993  0.00  0.00    +0.016 A 
ATOM      8  C   UNL     1       0.702  -8.318   1.360  0.00  0.00    +0.001 A 
ATOM      9  C   UNL     1       0.928  -9.548   1.954  0.00  0.00    +0.003 A 
ATOM     10  C   UNL     1       1.554  -9.625   3.184  0.00  0.00    +0.039 A 
ATOM     11  C   UNL     1       1.965  -8.473   3.827  0.00  0.00    +0.136 A 
ATOM     12  F   UNL     1       2.582  -8.549   5.026  0.00  0.00    -0.205 F 
ENDBRANCH   4   6
BRANCH   1  13
ATOM     13  N   UNL     1       2.540  -2.503   4.230  0.00  0.00    -0.283 N 
ATOM     14  H   UNL     1       3.016  -1.975   4.890  0.00  0.00    +0.155 HD
BRANCH  13  18
ATOM     15  C   UNL     1       0.578  -0.615   1.074  0.00  0.00    +0.120 A 
ATOM     16  C   UNL     1       0.153  -1.862   1.508  0.00  0.00    +0.047 A 
ATOM     17  C   UNL     1       0.802  -2.489   2.553  0.00  0.00    +0.027 A 
ATOM     18  C   UNL     1       1.881  -1.869   3.170  0.00  0.00    +0.034 A 
ATOM     19  C   UNL     1       2.306  -0.621   2.735  0.00  0.00    +0.027 A 
ATOM     20  C   UNL     1       1.659   0.002   1.686  0.00  0.00    +0.047 A 
BRANCH  15  22
ATOM     21  C   UNL     1      -1.167  -0.691  -0.540  0.00  0.00    +0.277 C 
ATOM     22  O   UNL     1      -0.062   0.001   0.044  0.00  0.00    -0.495 OA
ENDBRANCH  15  22
ENDBRANCH  13  18
ENDBRANCH   1  13
BRANCH   2  23
ATOM     23  C   UNL     1       3.652  -4.144   6.565  0.00  0.00    +0.124 C 
ATOM     24  N   UNL     1       4.162  -3.752   7.501  0.00  0.00    -0.189 NA
ENDBRANCH   2  23
TORSDOF 5
