REMARK  Name = ZINC05062655
REMARK  4 active torsions:
REMARK  status: ('A' for Active; 'I' for Inactive)
REMARK    1  A    between atoms: C_1  and  C_2
REMARK    2  A    between atoms: C_8  and  N_10
REMARK    3  A    between atoms: C_11  and  C_13
REMARK    4  A    between atoms: C_13  and  C_14
REMARK                            x       y       z     vdW  Elec       q    Type
REMARK                         _______ _______ _______ _____ _____    ______ ____
ROOT
ATOM      1  C   UNL     1       3.458  -1.068  -0.037  0.00  0.00    +0.007 A 
ATOM      2  C   UNL     1       2.813  -2.247  -0.038  0.00  0.00    +0.200 A 
ATOM      3  O   UNL     1       1.486  -2.041  -0.024  0.00  0.00    -0.463 OA
ATOM      4  C   UNL     1       1.203  -0.723  -0.013  0.00  0.00    +0.136 A 
ATOM      5  C   UNL     1       2.422  -0.038  -0.021  0.00  0.00    +0.031 A 
ATOM      6  C   UNL     1       2.422   1.419  -0.013  0.00  0.00    -0.007 A 
ATOM      7  C   UNL     1       3.611   2.157  -0.020  0.00  0.00    +0.009 A 
ATOM      8  C   UNL     1       3.559   3.520  -0.012  0.00  0.00    +0.001 A 
ATOM      9  C   UNL     1       2.339   4.189   0.003  0.00  0.00    +0.001 A 
ATOM     10  C   UNL     1       1.163   3.501   0.010  0.00  0.00    +0.008 A 
ATOM     11  C   UNL     1       1.179   2.097   0.002  0.00  0.00    -0.017 A 
ATOM     12  C   UNL     1      -0.016   1.352   0.009  0.00  0.00    +0.012 A 
ATOM     13  C   UNL     1       0.002  -0.004   0.002  0.00  0.00    +0.047 A 
ENDROOT
BRANCH   1  14
ATOM     14  C   UNL     1       4.950  -0.852  -0.050  0.00  0.00    +0.134 C 
BRANCH  14  16
ATOM     15  N   UNL     1       6.753  -0.456   1.596  0.00  0.00    -0.312 N 
ATOM     16  C   UNL     1       5.442  -0.666   1.362  0.00  0.00    +0.218 C 
ATOM     17  O   UNL     1       4.660  -0.705   2.287  0.00  0.00    -0.275 OA
ATOM     18  H   UNL     1       7.379  -0.425   0.856  0.00  0.00    +0.149 HD
BRANCH  15  25
ATOM     19  C   UNL     1       8.865  -2.138   2.644  0.00  0.00    +0.009 C 
ATOM     20  C   UNL     1       8.708  -0.671   3.050  0.00  0.00    +0.006 C 
ATOM     21  C   UNL     1       9.526   0.210   2.104  0.00  0.00    +0.005 C 
ATOM     22  C   UNL     1       9.368   1.677   2.510  0.00  0.00    +0.000 C 
ATOM     23  C   UNL     1       7.893   2.073   2.428  0.00  0.00    +0.002 C 
ATOM     24  C   UNL     1       7.075   1.192   3.374  0.00  0.00    +0.022 C 
ATOM     25  C   UNL     1       7.232  -0.275   2.969  0.00  0.00    +0.076 C 
ENDBRANCH  15  25
ENDBRANCH  14  16
ENDBRANCH   1  14
TORSDOF 3
