REMARK  Name = ZINC15658666
REMARK  4 active torsions:
REMARK  status: ('A' for Active; 'I' for Inactive)
REMARK    1  A    between atoms: C_1  and  N_2
REMARK    2  A    between atoms: N_10  and  N_11
REMARK    3  A    between atoms: C_12  and  C_14
REMARK    4  A    between atoms: C_16  and  C_20
REMARK                            x       y       z     vdW  Elec       q    Type
REMARK                         _______ _______ _______ _____ _____    ______ ____
ROOT
ATOM      1  N   UNL     1       2.903  -3.049  -0.028  0.00  0.00    -0.201 N 
ATOM      2  C   UNL     1       3.712  -4.127  -0.038  0.00  0.00    +0.281 C 
ATOM      3  O   UNL     1       3.234  -5.246  -0.042  0.00  0.00    -0.267 OA
ATOM      4  H   UNL     1       3.284  -2.157  -0.025  0.00  0.00    +0.178 HD
ENDROOT
BRANCH   1  14
ATOM      5  C   UNL     1      -0.018   1.461   0.010  0.00  0.00    +0.138 C 
ATOM      6  N   UNL     1       0.002  -0.004   0.002  0.00  0.00    -0.269 N 
ATOM      7  C   UNL     1      -1.137  -0.803   0.003  0.00  0.00    +0.046 A 
ATOM      8  C   UNL     1      -2.490  -0.483   0.011  0.00  0.00    +0.025 A 
ATOM      9  C   UNL     1      -3.439  -1.484   0.011  0.00  0.00    +0.017 A 
ATOM     10  C   UNL     1      -3.059  -2.817   0.002  0.00  0.00    +0.019 A 
ATOM     11  C   UNL     1      -1.719  -3.154  -0.006  0.00  0.00    +0.027 A 
ATOM     12  C   UNL     1      -0.756  -2.151  -0.006  0.00  0.00    +0.029 A 
ATOM     13  C   UNL     1       0.725  -2.168  -0.013  0.00  0.00    +0.153 C 
ATOM     14  N   UNL     1       1.512  -3.217  -0.023  0.00  0.00    -0.174 NA
ATOM     15  C   UNL     1       1.123  -0.746  -0.013  0.00  0.00    +0.271 C 
ATOM     16  O   UNL     1       2.263  -0.321  -0.022  0.00  0.00    -0.268 OA
ATOM     17 BR   UNL     1      -4.375  -4.175   0.001  0.00  0.00    -0.050 Br
ENDBRANCH   1  14
BRANCH   2  18
ATOM     18  C   UNL     1       5.171  -3.952  -0.044  0.00  0.00    +0.122 A 
ATOM     19  C   UNL     1       6.126  -4.952  -0.059  0.00  0.00    +0.062 A 
ATOM     20  C   UNL     1       7.364  -4.284  -0.059  0.00  0.00    +0.093 A 
ATOM     21  N   UNL     1       7.118  -2.991  -0.044  0.00  0.00    -0.173 NA
ATOM     22  N   UNL     1       5.853  -2.767  -0.041  0.00  0.00    -0.272 N 
ATOM     23  H   UNL     1       5.443  -1.888  -0.035  0.00  0.00    +0.189 HD
BRANCH  20  24
ATOM     24  C   UNL     1       8.704  -4.922  -0.073  0.00  0.00    +0.002 A 
ATOM     25  C   UNL     1       8.818  -6.310  -0.093  0.00  0.00    +0.010 A 
ATOM     26  C   UNL     1      10.067  -6.897  -0.105  0.00  0.00    +0.001 A 
ATOM     27  C   UNL     1      11.204  -6.111  -0.097  0.00  0.00    +0.000 A 
ATOM     28  C   UNL     1      11.097  -4.732  -0.077  0.00  0.00    +0.001 A 
ATOM     29  C   UNL     1       9.853  -4.134  -0.071  0.00  0.00    +0.010 A 
ENDBRANCH  20  24
ENDBRANCH   2  18
TORSDOF 3
