REMARK  Name = ZINC28864155
REMARK  11 active torsions:
REMARK  status: ('A' for Active; 'I' for Inactive)
REMARK    1  A    between atoms: C_1  and  C_2
REMARK    2  A    between atoms: C_10  and  C_11
REMARK    3  A    between atoms: C_11  and  N_12
REMARK    4  A    between atoms: N_19  and  C_24
REMARK    5  A    between atoms: N_22  and  C_23
REMARK    6  A    between atoms: C_24  and  C_25
REMARK    7  A    between atoms: C_25  and  N_26
REMARK    8  A    between atoms: N_26  and  C_27
REMARK    9  A    between atoms: N_26  and  C_28
REMARK   10  A    between atoms: C_28  and  C_29
REMARK   11  A    between atoms: C_29  and  C_30
REMARK                            x       y       z     vdW  Elec       q    Type
REMARK                         _______ _______ _______ _____ _____    ______ ____
ROOT
ATOM      1  N   UNL     1       0.330  -1.946  -6.133  0.00  0.00    +0.386 N 
ATOM      2  C   UNL     1       1.769  -1.646  -6.200  0.00  0.00    -0.072 C 
ATOM      3  C   UNL     1       1.963  -0.151  -5.940  0.00  0.00    +0.035 C 
ATOM      4  C   UNL     1       1.220   0.257  -4.695  0.00  0.00    +0.028 A 
ATOM      5  C   UNL     1       0.254  -0.509  -4.159  0.00  0.00    +0.020 A 
ATOM      6  C   UNL     1      -0.413  -0.059  -2.989  0.00  0.00    +0.258 A 
ATOM      7  O   UNL     1      -1.294  -0.734  -2.487  0.00  0.00    -0.267 OA
ATOM      8  N   UNL     1      -0.067   1.120  -2.437  0.00  0.00    -0.263 N 
ATOM      9  C   UNL     1       0.904   1.867  -2.994  0.00  0.00    +0.332 A 
ATOM     10  O   UNL     1       1.208   2.931  -2.489  0.00  0.00    -0.246 OA
ATOM     11  N   UNL     1       1.546   1.450  -4.098  0.00  0.00    -0.300 N 
ATOM     12  C   UNL     1       2.603   2.282  -4.677  0.00  0.00    +0.153 C 
ATOM     13  C   UNL     1      -0.145  -1.834  -4.750  0.00  0.00    -0.035 C 
ATOM     14  H   UNL     1      -0.212  -1.210  -6.745  0.00  0.00    -0.081 HD
ENDROOT
BRANCH   1  15
ATOM     15  C   UNL     1       0.044  -3.278  -6.682  0.00  0.00    -0.035 C 
BRANCH  15  25
ATOM     16  C   UNL     1      -1.661  -2.575  -9.095  0.00  0.00    +0.045 C 
ATOM     17  C   UNL     1      -2.241  -3.170  -7.838  0.00  0.00    -0.034 A 
ATOM     18  C   UNL     1      -3.670  -3.432  -7.740  0.00  0.00    -0.008 A 
ATOM     19  C   UNL     1      -4.681  -3.203  -8.704  0.00  0.00    +0.009 A 
ATOM     20  C   UNL     1      -5.977  -3.513  -8.438  0.00  0.00    +0.001 A 
ATOM     21  C   UNL     1      -6.358  -4.061  -7.221  0.00  0.00    +0.001 A 
ATOM     22  C   UNL     1      -5.402  -4.300  -6.254  0.00  0.00    +0.015 A 
ATOM     23  C   UNL     1      -4.083  -3.990  -6.511  0.00  0.00    +0.020 A 
ATOM     24  S   UNL     1      -2.574  -4.134  -5.590  0.00  0.00    -0.095 S 
ATOM     25  C   UNL     1      -1.447  -3.464  -6.798  0.00  0.00    -0.023 A 
ENDBRANCH  15  25
ENDBRANCH   1  15
BRANCH   8  26
ATOM     26  C   UNL     1      -0.753   1.593  -1.232  0.00  0.00    +0.111 C 
BRANCH  26  27
ATOM     27  C   UNL     1      -0.013   1.086   0.008  0.00  0.00    -0.057 C 
BRANCH  27  28
ATOM     28  N   UNL     1      -0.700   1.560   1.217  0.00  0.00    +0.379 N 
ATOM     29  C   UNL     1      -0.615   3.022   1.332  0.00  0.00    -0.096 C 
ATOM     30  H   UNL     1      -1.763   1.289   1.129  0.00  0.00    -0.082 HD
BRANCH  28  31
ATOM     31  C   UNL     1      -0.165   0.904   2.418  0.00  0.00    -0.073 C 
BRANCH  31  32
ATOM     32  C   UNL     1      -1.060   1.228   3.616  0.00  0.00    +0.037 C 
BRANCH  32  33
ATOM     33  C   UNL     1      -0.510   0.556   4.848  0.00  0.00    +0.040 A 
ATOM     34  C   UNL     1      -0.233   1.311   5.972  0.00  0.00    +0.023 A 
ATOM     35  C   UNL     1       0.272   0.683   7.100  0.00  0.00    +0.003 A 
ATOM     36  C   UNL     1       0.478  -0.687   7.056  0.00  0.00    +0.020 A 
ATOM     37  C   UNL     1       0.177  -1.377   5.897  0.00  0.00    +0.111 A 
ATOM     38  N   UNL     1      -0.306  -0.747   4.844  0.00  0.00    -0.260 NA
ENDBRANCH  32  33
ENDBRANCH  31  32
ENDBRANCH  28  31
ENDBRANCH  27  28
ENDBRANCH  26  27
ENDBRANCH   8  26
TORSDOF 8
