REMARK  Name = ZINC66383315
REMARK  4 active torsions:
REMARK  status: ('A' for Active; 'I' for Inactive)
REMARK    1  A    between atoms: C_1  and  C_2
REMARK    2  A    between atoms: C_2  and  C_8
REMARK    3  A    between atoms: C_4  and  C_5
REMARK    4  A    between atoms: C_4  and  C_6
REMARK                            x       y       z     vdW  Elec       q    Type
REMARK                         _______ _______ _______ _____ _____    ______ ____
ROOT
ATOM      1  C   UNL     1      -0.019   1.526   0.010  0.00  0.00    +0.013 C 
ATOM      2  C   UNL     1       0.002  -0.004   0.002  0.00  0.00    -0.012 C 
ATOM      3  C   UNL     1       1.351  -0.691  -0.218  0.00  0.00    +0.093 C 
ATOM      4  C   UNL     1       0.701  -0.708   1.167  0.00  0.00    -0.012 C 
ATOM      5  C   UNL     1       0.107  -2.031   1.653  0.00  0.00    +0.013 C 
ATOM      6  C   UNL     1       1.326   0.173   2.251  0.00  0.00    +0.013 C 
ATOM      7 CL   UNL     1       1.358  -2.233  -1.153  0.00  0.00    -0.121 Cl
ATOM      8  C   UNL     1      -1.239  -0.678  -0.588  0.00  0.00    +0.013 C 
ENDROOT
TORSDOF 0
