REMARK  Name = ZINC20504084
REMARK  9 active torsions:
REMARK  status: ('A' for Active; 'I' for Inactive)
REMARK    1  A    between atoms: C_1  and  C_2
REMARK    2  A    between atoms: C_2  and  C_3
REMARK    3  A    between atoms: C_6  and  N_29
REMARK    4  A    between atoms: C_12  and  C_25
REMARK    5  A    between atoms: C_25  and  O_27
REMARK    6  A    between atoms: O_27  and  C_28
REMARK    7  A    between atoms: N_29  and  C_30
REMARK    8  A    between atoms: C_30  and  C_31
REMARK    9  A    between atoms: C_31  and  C_32
REMARK                            x       y       z     vdW  Elec       q    Type
REMARK                         _______ _______ _______ _____ _____    ______ ____
ROOT
ATOM      1  C   UNL     1      -1.668  -0.554  -0.169  0.00  0.00    +0.056 C 
ATOM      2  C   UNL     1      -1.860  -2.071  -0.107  0.00  0.00    +0.003 C 
ATOM      3  C   UNL     1      -3.339  -2.408  -0.311  0.00  0.00    -0.069 C 
ATOM      4  C   UNL     1      -3.812  -1.827  -1.648  0.00  0.00    +0.009 C 
ATOM      5  C   UNL     1      -3.568  -0.317  -1.649  0.00  0.00    +0.103 C 
ATOM      6  N   UNL     1      -2.132  -0.058  -1.470  0.00  0.00    -0.278 NA
ATOM      7  C   UNL     1      -1.808   1.360  -1.660  0.00  0.00    +0.171 C 
ATOM      8  C   UNL     1      -1.948   1.723  -3.145  0.00  0.00    +0.068 C 
ATOM      9  C   UNL     1      -3.272   1.194  -3.636  0.00  0.00    -0.016 A 
ATOM     10  C   UNL     1      -4.013   0.275  -2.963  0.00  0.00    +0.038 A 
ATOM     11  N   UNL     1      -5.160  -0.003  -3.654  0.00  0.00    -0.356 N 
ATOM     12  H   UNL     1      -5.842  -0.633  -3.373  0.00  0.00    +0.166 HD
ATOM     13  C   UNL     1      -5.202   0.741  -4.799  0.00  0.00    +0.047 A 
ATOM     14  C   UNL     1      -4.002   1.527  -4.839  0.00  0.00    +0.003 A 
ATOM     15  C   UNL     1      -3.742   2.405  -5.896  0.00  0.00    +0.010 A 
ATOM     16  C   UNL     1      -4.681   2.467  -6.896  0.00  0.00    +0.001 A 
ATOM     17  C   UNL     1      -5.835   1.701  -6.872  0.00  0.00    +0.002 A 
ATOM     18  C   UNL     1      -6.143   0.826  -5.822  0.00  0.00    +0.026 A 
ENDROOT
BRANCH   3  19
ATOM     19  N   UNL     1      -4.129  -1.828   0.783  0.00  0.00    +0.381 N 
ATOM     20  H   UNL     1      -3.763  -2.147   1.668  0.00  0.00    -0.086 HD
ATOM     21  H   UNL     1      -4.076  -0.822   0.739  0.00  0.00    -0.086 HD
BRANCH  19  22
ATOM     22  C   UNL     1      -5.530  -2.251   0.652  0.00  0.00    -0.076 C 
BRANCH  22  23
ATOM     23  C   UNL     1      -6.353  -1.647   1.792  0.00  0.00    +0.038 C 
BRANCH  23  24
ATOM     24  C   UNL     1      -7.790  -2.081   1.658  0.00  0.00    +0.057 A 
ATOM     25  C   UNL     1      -8.523  -2.696   2.606  0.00  0.00    +0.107 A 
ATOM     26  N   UNL     1      -9.765  -2.908   2.072  0.00  0.00    -0.351 N 
ATOM     27  H   UNL     1     -10.517  -3.333   2.513  0.00  0.00    +0.166 HD
ATOM     28  C   UNL     1      -9.748  -2.414   0.815  0.00  0.00    +0.196 A 
ATOM     29  N   UNL     1      -8.566  -1.917   0.576  0.00  0.00    -0.241 NA
ENDBRANCH  23  24
ENDBRANCH  22  23
ENDBRANCH  19  22
ENDBRANCH   3  19
BRANCH   1  31
ATOM     30  C   UNL     1       0.611  -0.807  -1.159  0.00  0.00    +0.005 C 
ATOM     31  C   UNL     1      -0.186  -0.218   0.006  0.00  0.00    +0.015 C 
ENDBRANCH   1  31
BRANCH   7  32
ATOM     32  C   UNL     1      -2.753   2.205  -0.845  0.00  0.00    +0.325 C 
ATOM     33  O   UNL     1      -3.472   1.686  -0.024  0.00  0.00    -0.249 OA
BRANCH  32  34
ATOM     34  O   UNL     1      -2.797   3.533  -1.032  0.00  0.00    -0.467 OA
ATOM     35  C   UNL     1      -3.717   4.272  -0.225  0.00  0.00    +0.280 C 
ENDBRANCH  32  34
ENDBRANCH   7  32
TORSDOF 7
