REMARK  Name = ZINC00945848
REMARK  4 active torsions:
REMARK  status: ('A' for Active; 'I' for Inactive)
REMARK    1  A    between atoms: C_9  and  O_30
REMARK    2  A    between atoms: C_10  and  C_11
REMARK    3  A    between atoms: N_12  and  N_13
REMARK    4  A    between atoms: C_14  and  C_16
REMARK                            x       y       z     vdW  Elec       q    Type
REMARK                         _______ _______ _______ _____ _____    ______ ____
ROOT
ATOM      1  N   UNL     1      -2.573   8.058   0.068  0.00  0.00    -0.202 N 
ATOM      2  C   UNL     1      -2.564   9.405   0.075  0.00  0.00    +0.284 C 
ATOM      3  O   UNL     1      -1.507  10.007   0.068  0.00  0.00    -0.267 OA
ATOM      4  H   UNL     1      -3.416   7.578   0.074  0.00  0.00    +0.178 HD
ENDROOT
BRANCH   2   5
ATOM      5  C   UNL     1      -3.838  10.152   0.091  0.00  0.00    +0.152 A 
ATOM      6  C   UNL     1      -3.986  11.540   0.100  0.00  0.00    +0.010 A 
ATOM      7  C   UNL     1      -5.344  11.769   0.102  0.00  0.00    +0.070 A 
ATOM      8  N   UNL     1      -5.948  10.565   0.112  0.00  0.00    -0.276 N 
ATOM      9  H   UNL     1      -6.936  10.417   0.130  0.00  0.00    +0.189 HD
ATOM     10  N   UNL     1      -5.056   9.632   0.094  0.00  0.00    -0.168 NA
ATOM     11  C   UNL     1      -5.868  13.149   0.088  0.00  0.00    +0.003 A 
ATOM     12  C   UNL     1      -7.190  13.436   0.403  0.00  0.00    +0.010 A 
ATOM     13  C   UNL     1      -7.608  14.751   0.455  0.00  0.00    +0.001 A 
ATOM     14  C   UNL     1      -6.710  15.771   0.193  0.00  0.00    +0.000 A 
ATOM     15  C   UNL     1      -5.399  15.487  -0.138  0.00  0.00    +0.004 A 
ATOM     16  C   UNL     1      -4.966  14.177  -0.208  0.00  0.00    -0.038 A 
ATOM     17  C   UNL     1      -3.547  13.874  -0.605  0.00  0.00    +0.040 C 
ATOM     18  C   UNL     1      -2.981  12.655   0.121  0.00  0.00    +0.044 C 
ENDBRANCH   2   5
BRANCH   1  20
ATOM     19  C   UNL     1      -1.373   6.049   0.046  0.00  0.00    +0.142 C 
ATOM     20  N   UNL     1      -1.364   7.349   0.053  0.00  0.00    -0.187 NA
BRANCH  19  30
ATOM     21  C   UNL     1      -0.013   1.076   0.008  0.00  0.00    +0.001 A 
ATOM     22  C   UNL     1      -1.234   1.745   0.017  0.00  0.00    +0.001 A 
ATOM     23  C   UNL     1      -1.286   3.107   0.030  0.00  0.00    +0.009 A 
ATOM     24  C   UNL     1      -0.096   3.845   0.023  0.00  0.00    -0.006 A 
ATOM     25  C   UNL     1       1.148   3.168   0.008  0.00  0.00    -0.017 A 
ATOM     26  C   UNL     1       1.163   1.762   0.000  0.00  0.00    +0.008 A 
ATOM     27  C   UNL     1       2.341   3.910   0.001  0.00  0.00    +0.012 A 
ATOM     28  C   UNL     1       2.315   5.270   0.008  0.00  0.00    +0.046 A 
ATOM     29  C   UNL     1       1.117   5.981   0.022  0.00  0.00    +0.126 A 
ATOM     30  C   UNL     1      -0.105   5.306   0.030  0.00  0.00    +0.044 A 
BRANCH  29  31
ATOM     31  O   UNL     1       1.138   7.338   0.029  0.00  0.00    -0.506 OA
ATOM     32  H   UNL     1       1.152   7.727   0.914  0.00  0.00    +0.292 HD
ENDBRANCH  29  31
ENDBRANCH  19  30
ENDBRANCH   1  20
TORSDOF 4
