REMARK  Name = ZINC02559325
REMARK  4 active torsions:
REMARK  status: ('A' for Active; 'I' for Inactive)
REMARK    1  A    between atoms: C_3  and  O_11
REMARK    2  A    between atoms: C_4  and  N_10
REMARK    3  A    between atoms: C_6  and  N_7
REMARK    4  A    between atoms: O_11  and  C_12
REMARK                            x       y       z     vdW  Elec       q    Type
REMARK                         _______ _______ _______ _____ _____    ______ ____
ROOT
ATOM      1  C   UNL     1      -1.220   1.751   0.017  0.00  0.00    +0.036 A 
ATOM      2  C   UNL     1      -0.013   1.076   0.008  0.00  0.00    +0.050 A 
ATOM      3  C   UNL     1       1.177   1.784   0.000  0.00  0.00    +0.148 A 
ATOM      4  C   UNL     1       1.155   3.178   0.008  0.00  0.00    +0.069 A 
ATOM      5  C   UNL     1      -0.060   3.848   0.023  0.00  0.00    +0.059 A 
ATOM      6  C   UNL     1      -1.243   3.133   0.031  0.00  0.00    +0.128 A 
ENDROOT
BRANCH   6   7
ATOM      7  N   UNL     1      -2.538   3.849   0.046  0.00  0.00    +0.056 N 
ATOM      8  O   UNL     1      -2.560   5.067   0.053  0.00  0.00    -0.126 OA
ATOM      9  O   UNL     1      -3.582   3.221   0.053  0.00  0.00    -0.126 OA
ENDBRANCH   6   7
BRANCH   4  10
ATOM     10  N   UNL     1       2.354   3.899   0.001  0.00  0.00    -0.355 N 
ATOM     11  H   UNL     1       3.203   3.429  -0.009  0.00  0.00    +0.142 HD
ATOM     12  H   UNL     1       2.337   4.869   0.006  0.00  0.00    +0.142 HD
ENDBRANCH   4  10
BRANCH   3  13
ATOM     13  O   UNL     1       2.365   1.122  -0.015  0.00  0.00    -0.432 OA
BRANCH  13  14
ATOM     14  C   UNL     1       2.311  -0.306  -0.023  0.00  0.00    +0.541 C 
ATOM     15  F   UNL     1       1.646  -0.754   1.124  0.00  0.00    -0.166 F 
ATOM     16  F   UNL     1       1.624  -0.741  -1.161  0.00  0.00    -0.166 F 
ENDBRANCH  13  14
ENDBRANCH   3  13
TORSDOF 4
