REMARK  Name = ZINC41584711
REMARK  6 active torsions:
REMARK  status: ('A' for Active; 'I' for Inactive)
REMARK    1  A    between atoms: C_5  and  O_7
REMARK    2  A    between atoms: O_7  and  C_8
REMARK    3  A    between atoms: C_17  and  O_33
REMARK    4  A    between atoms: C_18  and  C_19
REMARK    5  A    between atoms: C_19  and  N_20
REMARK    6  A    between atoms: C_25  and  C_27
REMARK                            x       y       z     vdW  Elec       q    Type
REMARK                         _______ _______ _______ _____ _____    ______ ____
ROOT
ATOM      1  C   UNL     1       0.091  -2.777  -0.060  0.00  0.00    +0.210 A 
ATOM      2  C   UNL     1      -1.108  -2.166  -0.128  0.00  0.00    +0.245 A 
ATOM      3  O   UNL     1      -2.264  -2.842  -0.168  0.00  0.00    -0.459 OA
ATOM      4  C   UNL     1      -2.314  -4.189  -0.144  0.00  0.00    +0.143 A 
ATOM      5  C   UNL     1      -1.122  -4.932  -0.075  0.00  0.00    +0.068 A 
ATOM      6  C   UNL     1       0.155  -4.199  -0.035  0.00  0.00    +0.235 A 
ATOM      7  O   UNL     1       1.223  -4.786   0.021  0.00  0.00    -0.283 OA
ATOM      8  C   UNL     1      -1.162  -6.327  -0.051  0.00  0.00    +0.019 A 
ATOM      9  C   UNL     1      -2.365  -6.971  -0.095  0.00  0.00    +0.046 A 
ATOM     10  C   UNL     1      -3.552  -6.243  -0.164  0.00  0.00    +0.122 A 
ATOM     11  C   UNL     1      -3.529  -4.859  -0.188  0.00  0.00    +0.020 A 
ENDROOT
BRANCH  10  12
ATOM     12  O   UNL     1      -4.740  -6.898  -0.208  0.00  0.00    -0.506 OA
ATOM     13  H   UNL     1      -5.126  -7.071   0.662  0.00  0.00    +0.292 HD
ENDBRANCH  10  12
BRANCH   1  14
ATOM     14  O   UNL     1       1.235  -2.039  -0.022  0.00  0.00    -0.448 OA
BRANCH  14  19
ATOM     15  C   UNL     1       2.256  -2.766   3.393  0.00  0.00    +0.004 A 
ATOM     16  C   UNL     1       3.481  -2.126   3.438  0.00  0.00    +0.001 A 
ATOM     17  C   UNL     1       3.955  -1.456   2.325  0.00  0.00    +0.019 A 
ATOM     18  C   UNL     1       3.204  -1.425   1.164  0.00  0.00    +0.060 A 
ATOM     19  C   UNL     1       1.975  -2.068   1.117  0.00  0.00    +0.143 A 
ATOM     20  C   UNL     1       1.502  -2.739   2.236  0.00  0.00    +0.047 A 
ATOM     21 BR   UNL     1       3.852  -0.509  -0.357  0.00  0.00    -0.046 Br
ENDBRANCH  14  19
ENDBRANCH   1  14
BRANCH  11  22
ATOM     22  C   UNL     1      -4.819  -4.083  -0.263  0.00  0.00    -0.035 C 
BRANCH  22  23
ATOM     23  N   UNL     1      -5.173  -3.857  -1.670  0.00  0.00    +0.387 N 
ATOM     24  C   UNL     1      -4.159  -3.002  -2.298  0.00  0.00    -0.078 C 
ATOM     25  C   UNL     1      -4.480  -2.830  -3.784  0.00  0.00    -0.019 C 
ATOM     26  C   UNL     1      -5.859  -2.180  -3.931  0.00  0.00    -0.003 C 
ATOM     27  C   UNL     1      -6.898  -3.042  -3.209  0.00  0.00    -0.011 C 
ATOM     28  C   UNL     1      -6.487  -3.207  -1.744  0.00  0.00    -0.036 C 
ATOM     29  H   UNL     1      -5.210  -4.742  -2.153  0.00  0.00    -0.080 HD
BRANCH  28  30
ATOM     30  C   UNL     1      -7.507  -4.054  -1.029  0.00  0.00    -0.043 A 
ATOM     31  C   UNL     1      -8.489  -3.463  -0.248  0.00  0.00    +0.005 A 
ATOM     32  C   UNL     1      -9.406  -4.282   0.392  0.00  0.00    +0.020 A 
ATOM     33  C   UNL     1      -9.313  -5.652   0.230  0.00  0.00    +0.111 A 
ATOM     34  N   UNL     1      -8.366  -6.180  -0.521  0.00  0.00    -0.263 NA
ATOM     35  C   UNL     1      -7.481  -5.431  -1.148  0.00  0.00    +0.112 A 
ENDBRANCH  28  30
ENDBRANCH  22  23
ENDBRANCH  11  22
TORSDOF 6
