REMARK  Name = ZINC03670330
REMARK  11 active torsions:
REMARK  status: ('A' for Active; 'I' for Inactive)
REMARK    1  A    between atoms: C_1  and  C_2
REMARK    2  A    between atoms: C_2  and  N_3
REMARK    3  A    between atoms: N_3  and  C_4
REMARK    4  A    between atoms: N_3  and  C_30
REMARK    5  A    between atoms: C_4  and  C_5
REMARK    6  A    between atoms: C_5  and  C_6
REMARK    7  A    between atoms: C_6  and  N_7
REMARK    8  A    between atoms: C_8  and  C_10
REMARK    9  A    between atoms: C_10  and  O_29
REMARK   10  A    between atoms: N_20  and  C_21
REMARK   11  A    between atoms: C_34  and  C_36
REMARK                            x       y       z     vdW  Elec       q    Type
REMARK                         _______ _______ _______ _____ _____    ______ ____
ROOT
ATOM      1  C   UNL     1      -1.067   1.774  -3.204  0.00  0.00    +0.247 C 
ATOM      2  C   UNL     1      -0.956   3.280  -3.258  0.00  0.00    +0.033 A 
ATOM      3  C   UNL     1       0.205   3.924  -2.896  0.00  0.00    +0.010 A 
ATOM      4  C   UNL     1       0.271   5.306  -2.958  0.00  0.00    +0.001 A 
ATOM      5  C   UNL     1      -0.826   6.033  -3.383  0.00  0.00    +0.002 A 
ATOM      6  C   UNL     1      -1.992   5.388  -3.747  0.00  0.00    +0.024 A 
ATOM      7  C   UNL     1      -2.063   4.003  -3.687  0.00  0.00    +0.043 A 
ATOM      8  N   UNL     1      -3.232   3.333  -4.051  0.00  0.00    -0.269 N 
ATOM      9  C   UNL     1      -3.350   2.000  -4.010  0.00  0.00    +0.314 C 
ATOM     10  O   UNL     1      -4.407   1.501  -4.345  0.00  0.00    -0.252 OA
ATOM     11  N   UNL     1      -2.354   1.186  -3.614  0.00  0.00    -0.214 N 
ATOM     12  H   UNL     1      -3.993   3.857  -4.346  0.00  0.00    +0.156 HD
ENDROOT
BRANCH  11  13
ATOM     13  C   UNL     1      -2.539  -0.201  -3.593  0.00  0.00    +0.043 A 
ATOM     14  C   UNL     1      -3.128  -0.808  -2.491  0.00  0.00    +0.025 A 
ATOM     15  C   UNL     1      -3.309  -2.177  -2.472  0.00  0.00    +0.023 A 
ATOM     16  C   UNL     1      -2.904  -2.945  -3.549  0.00  0.00    +0.059 A 
ATOM     17  C   UNL     1      -2.316  -2.343  -4.649  0.00  0.00    +0.061 A 
ATOM     18  C   UNL     1      -2.138  -0.973  -4.675  0.00  0.00    +0.045 A 
ATOM     19 CL   UNL     1      -1.810  -3.310  -5.999  0.00  0.00    -0.082 Cl
ATOM     20 CL   UNL     1      -3.134  -4.665  -3.522  0.00  0.00    -0.082 Cl
ENDBRANCH  11  13
BRANCH   1  22
ATOM     21  N   UNL     1      -1.622   1.697  -0.795  0.00  0.00    -0.311 N 
ATOM     22  C   UNL     1      -0.786   1.337  -1.790  0.00  0.00    +0.269 C 
ATOM     23  O   UNL     1       0.191   0.662  -1.546  0.00  0.00    -0.270 OA
ATOM     24  H   UNL     1      -2.404   2.237  -0.990  0.00  0.00    +0.149 HD
BRANCH  21  25
ATOM     25  C   UNL     1      -1.349   1.272   0.581  0.00  0.00    +0.106 C 
BRANCH  25  26
ATOM     26  C   UNL     1      -2.441   1.811   1.507  0.00  0.00    +0.037 C 
BRANCH  26  27
ATOM     27  C   UNL     1      -2.156   1.367   2.943  0.00  0.00    +0.106 C 
BRANCH  27  28
ATOM     28  N   UNL     1      -3.202   1.883   3.830  0.00  0.00    -0.330 N 
BRANCH  28  29
ATOM     29  C   UNL     1      -3.052   3.133   4.434  0.00  0.00    +0.030 A 
ATOM     30  C   UNL     1      -1.908   3.887   4.199  0.00  0.00    +0.023 A 
ATOM     31  C   UNL     1      -1.765   5.124   4.795  0.00  0.00    +0.002 A 
ATOM     32  C   UNL     1      -2.753   5.609   5.632  0.00  0.00    +0.003 A 
ATOM     33  C   UNL     1      -3.890   4.860   5.871  0.00  0.00    -0.049 A 
ATOM     34  C   UNL     1      -4.042   3.623   5.275  0.00  0.00    +0.026 A 
ATOM     35  C   UNL     1      -4.965   5.393   6.784  0.00  0.00    +0.044 C 
ENDBRANCH  28  29
BRANCH  28  37
ATOM     36  C   UNL     1      -4.175   0.187   5.299  0.00  0.00    +0.024 C 
ATOM     37  C   UNL     1      -4.405   1.087   4.083  0.00  0.00    +0.102 C 
ENDBRANCH  28  37
ENDBRANCH  27  28
ENDBRANCH  26  27
ENDBRANCH  25  26
ENDBRANCH  21  25
ENDBRANCH   1  22
BRANCH   1  38
ATOM     38  O   UNL     1      -0.047   1.226  -4.041  0.00  0.00    -0.360 OA
ATOM     39  H   UNL     1       0.847   1.512  -3.811  0.00  0.00    +0.213 HD
ENDBRANCH   1  38
TORSDOF 9
