REMARK  Name = ZINC23857822
REMARK  7 active torsions:
REMARK  status: ('A' for Active; 'I' for Inactive)
REMARK    1  A    between atoms: C_1  and  N_2
REMARK    2  A    between atoms: C_9  and  C_11
REMARK    3  A    between atoms: C_11  and  C_13
REMARK    4  A    between atoms: C_11  and  N_26
REMARK    5  A    between atoms: C_13  and  N_14
REMARK    6  A    between atoms: C_15  and  C_17
REMARK    7  A    between atoms: C_20  and  N_23
REMARK                            x       y       z     vdW  Elec       q    Type
REMARK                         _______ _______ _______ _____ _____    ______ ____
ROOT
ATOM      1  C   UNL     1       3.791   6.131  -0.062  0.00  0.00    -0.020 C 
ENDROOT
BRANCH   1  10
ATOM      2  C   UNL     1       4.401  12.242   1.956  0.00  0.00    +0.129 C 
ATOM      3  N   UNL     1       3.674  11.737   0.784  0.00  0.00    -0.332 N 
ATOM      4  C   UNL     1       4.283  12.228  -0.471  0.00  0.00    +0.109 C 
ATOM      5  C   UNL     1       3.993  11.076  -1.461  0.00  0.00    +0.056 C 
ATOM      6  C   UNL     1       3.862   9.873  -0.549  0.00  0.00    -0.025 A 
ATOM      7  C   UNL     1       3.687  10.337   0.750  0.00  0.00    +0.033 A 
ATOM      8  C   UNL     1       3.551   9.415   1.786  0.00  0.00    +0.023 A 
ATOM      9  C   UNL     1       3.581   8.062   1.519  0.00  0.00    +0.004 A 
ATOM     10  C   UNL     1       3.757   7.611   0.224  0.00  0.00    -0.059 A 
ATOM     11  C   UNL     1       3.895   8.520  -0.809  0.00  0.00    +0.007 A 
ENDBRANCH   1  10
BRANCH   1  12
ATOM     12  N   UNL     1       4.548   5.446   0.994  0.00  0.00    +0.385 N 
ATOM     13  C   UNL     1       5.911   5.982   1.097  0.00  0.00    -0.078 C 
ATOM     14  C   UNL     1       6.620   5.349   2.297  0.00  0.00    -0.019 C 
ATOM     15  C   UNL     1       6.662   3.829   2.116  0.00  0.00    -0.004 C 
ATOM     16  C   UNL     1       5.232   3.303   1.963  0.00  0.00    -0.019 C 
ATOM     17  C   UNL     1       4.563   3.994   0.773  0.00  0.00    -0.078 C 
ATOM     18  H   UNL     1       4.041   5.633   1.952  0.00  0.00    -0.081 HD
ENDBRANCH   1  12
BRANCH   1  19
ATOM     19  C   UNL     1       2.362   5.586  -0.101  0.00  0.00    +0.094 C 
BRANCH  19  20
ATOM     20  N   UNL     1       1.632   6.208  -1.208  0.00  0.00    -0.313 N 
ATOM     21  C   UNL     1       0.318   5.960  -1.373  0.00  0.00    +0.244 C 
ATOM     22  O   UNL     1      -0.262   5.219  -0.603  0.00  0.00    -0.270 OA
ATOM     23  H   UNL     1       2.157   6.878  -1.905  0.00  0.00    +0.149 HD
BRANCH  21  24
ATOM     24  C   UNL     1      -0.419   6.587  -2.491  0.00  0.00    +0.037 A 
ATOM     25  C   UNL     1      -1.780   6.332  -2.664  0.00  0.00    +0.015 A 
ATOM     26  C   UNL     1      -2.462   6.920  -3.710  0.00  0.00    +0.033 A 
ATOM     27  C   UNL     1      -1.798   7.761  -4.585  0.00  0.00    +0.126 A 
ATOM     28  C   UNL     1      -0.449   8.019  -4.419  0.00  0.00    +0.033 A 
ATOM     29  C   UNL     1       0.244   7.436  -3.378  0.00  0.00    +0.015 A 
BRANCH  27  30
ATOM     30  N   UNL     1      -2.535   8.389  -5.705  0.00  0.00    +0.056 N 
ATOM     31  O   UNL     1      -3.723   8.164  -5.854  0.00  0.00    -0.126 OA
ATOM     32  O   UNL     1      -1.954   9.130  -6.477  0.00  0.00    -0.126 OA
ENDBRANCH  27  30
ENDBRANCH  21  24
ENDBRANCH  19  20
ENDBRANCH   1  19
TORSDOF 6
