REMARK  Name = ZINC64392154
REMARK  4 active torsions:
REMARK  status: ('A' for Active; 'I' for Inactive)
REMARK    1  A    between atoms: C_6  and  C_7
REMARK    2  A    between atoms: C_7  and  N_8
REMARK    3  A    between atoms: C_14  and  C_21
REMARK    4  A    between atoms: C_24  and  C_27
REMARK                            x       y       z     vdW  Elec       q    Type
REMARK                         _______ _______ _______ _____ _____    ______ ____
ROOT
ATOM      1  N   UNL     1      -1.727  -1.016  -1.368  0.00  0.00    -0.256 N 
ATOM      2  C   UNL     1      -2.519  -0.110  -1.982  0.00  0.00    +0.265 A 
ATOM      3  O   UNL     1      -2.875   0.899  -1.406  0.00  0.00    -0.267 OA
ATOM      4  C   UNL     1      -2.940  -0.377  -3.369  0.00  0.00    +0.063 A 
ATOM      5  C   UNL     1      -3.756   0.507  -4.071  0.00  0.00    +0.016 A 
ATOM      6  C   UNL     1      -4.122   0.211  -5.367  0.00  0.00    +0.009 A 
ATOM      7  C   UNL     1      -3.683  -0.957  -5.971  0.00  0.00    +0.006 A 
ATOM      8  C   UNL     1      -2.874  -1.842  -5.287  0.00  0.00    +0.034 A 
ATOM      9  C   UNL     1      -2.495  -1.561  -3.983  0.00  0.00    +0.056 A 
ATOM     10  N   UNL     1      -1.683  -2.424  -3.260  0.00  0.00    -0.307 N 
ATOM     11  H   UNL     1      -1.369  -3.244  -3.671  0.00  0.00    +0.170 HD
ATOM     12  C   UNL     1      -1.324  -2.130  -1.999  0.00  0.00    +0.330 A 
ATOM     13  O   UNL     1      -0.607  -2.910  -1.401  0.00  0.00    -0.246 OA
ENDROOT
BRANCH   7  14
ATOM     14  C   UNL     1      -4.094  -1.264  -7.388  0.00  0.00    +0.274 C 
ATOM     15  N   UNL     1      -4.323  -0.019  -8.132  0.00  0.00    -0.339 N 
ATOM     16  C   UNL     1      -5.558   0.008  -8.527  0.00  0.00    +0.134 C 
ATOM     17  N   UNL     1      -6.237  -1.117  -8.128  0.00  0.00    -0.247 N 
ATOM     18  O   UNL     1      -5.351  -1.957  -7.402  0.00  0.00    -0.243 OA
ATOM     19  H   UNL     1      -7.170  -1.307  -8.312  0.00  0.00    +0.196 HD
ATOM     20  H   UNL     1      -3.660   0.669  -8.299  0.00  0.00    +0.164 HD
BRANCH  16  21
ATOM     21  C   UNL     1      -6.160   1.112  -9.309  0.00  0.00    +0.020 A 
ATOM     22  C   UNL     1      -5.372   1.858 -10.186  0.00  0.00    +0.013 A 
ATOM     23  C   UNL     1      -5.937   2.886 -10.913  0.00  0.00    +0.023 A 
ATOM     24  C   UNL     1      -7.283   3.178 -10.774  0.00  0.00    +0.076 A 
ATOM     25  C   UNL     1      -8.071   2.440  -9.904  0.00  0.00    +0.142 A 
ATOM     26  C   UNL     1      -7.516   1.406  -9.175  0.00  0.00    +0.051 A 
ATOM     27  F   UNL     1      -9.384   2.730  -9.772  0.00  0.00    -0.204 F 
ATOM     28 CL   UNL     1      -7.986   4.473 -11.691  0.00  0.00    -0.081 Cl
ENDBRANCH  16  21
ENDBRANCH   7  14
BRANCH   1  29
ATOM     29  C   UNL     1      -1.294  -0.774   0.010  0.00  0.00    +0.165 C 
BRANCH  29  35
ATOM     30  C   UNL     1      -0.017   1.378   0.010  0.00  0.00    +0.009 A 
ATOM     31  C   UNL     1       1.170   2.088   0.002  0.00  0.00    +0.050 A 
ATOM     32  C   UNL     1       2.380   1.416  -0.013  0.00  0.00    +0.166 A 
ATOM     33  C   UNL     1       2.399   0.023  -0.021  0.00  0.00    +0.167 A 
ATOM     34  C   UNL     1       1.207  -0.682  -0.014  0.00  0.00    +0.055 A 
ATOM     35  C   UNL     1       0.002  -0.004   0.002  0.00  0.00    -0.024 A 
ATOM     36  O   UNL     1       3.698  -0.395  -0.036  0.00  0.00    -0.453 OA
ATOM     37  C   UNL     1       4.466   0.750  -0.450  0.00  0.00    +0.466 C 
ATOM     38  O   UNL     1       3.668   1.870  -0.024  0.00  0.00    -0.453 OA
ENDBRANCH  29  35
ENDBRANCH   1  29
TORSDOF 4
