REMARK  Name = ZINC00065380
REMARK  6 active torsions:
REMARK  status: ('A' for Active; 'I' for Inactive)
REMARK    1  A    between atoms: C_1  and  C_2
REMARK    2  A    between atoms: C_5  and  S_8
REMARK    3  A    between atoms: S_8  and  N_11
REMARK    4  A    between atoms: N_11  and  C_12
REMARK    5  A    between atoms: C_14  and  C_20
REMARK    6  A    between atoms: C_15  and  O_19
REMARK                            x       y       z     vdW  Elec       q    Type
REMARK                         _______ _______ _______ _____ _____    ______ ____
ROOT
ATOM      1  N   UNL     1       1.546   2.328   0.100  0.00  0.00    -0.216 N 
ATOM      2  H   UNL     1       1.897   2.248   1.001  0.00  0.00    +0.174 HD
ENDROOT
BRANCH   1   3
ATOM      3  C   UNL     1       2.404   2.202  -0.998  0.00  0.00    +0.050 A 
ATOM      4  C   UNL     1       3.264   3.240  -1.331  0.00  0.00    +0.031 A 
ATOM      5  C   UNL     1       4.111   3.115  -2.415  0.00  0.00    -0.006 A 
ATOM      6  C   UNL     1       4.102   1.953  -3.172  0.00  0.00    +0.138 A 
ATOM      7  C   UNL     1       3.243   0.915  -2.841  0.00  0.00    +0.084 A 
ATOM      8  C   UNL     1       2.399   1.036  -1.753  0.00  0.00    +0.048 A 
ATOM      9 CL   UNL     1       3.232  -0.539  -3.790  0.00  0.00    -0.080 Cl
ATOM     10  C   UNL     1       5.045   4.242  -2.775  0.00  0.00    +0.047 C 
BRANCH   6  11
ATOM     11  O   UNL     1       4.936   1.832  -4.240  0.00  0.00    -0.505 OA
ATOM     12  H   UNL     1       5.798   1.450  -4.024  0.00  0.00    +0.292 HD
ENDBRANCH   6  11
ENDBRANCH   1   3
BRANCH   1  13
ATOM     13  S   UNL     1      -0.068   2.615  -0.138  0.00  0.00    +0.072 S 
ATOM     14  O   UNL     1      -0.648   2.767   1.150  0.00  0.00    -0.150 OA
ATOM     15  O   UNL     1      -0.520   1.640  -1.067  0.00  0.00    -0.150 OA
BRANCH  13  20
ATOM     16  C   UNL     1      -0.543   7.966  -2.885  0.00  0.00    +0.044 C 
ATOM     17  C   UNL     1      -0.424   6.629  -2.199  0.00  0.00    -0.050 A 
ATOM     18  C   UNL     1      -0.292   5.476  -2.950  0.00  0.00    +0.005 A 
ATOM     19  C   UNL     1      -0.184   4.250  -2.321  0.00  0.00    +0.029 A 
ATOM     20  C   UNL     1      -0.206   4.178  -0.940  0.00  0.00    +0.109 A 
ATOM     21  C   UNL     1      -0.343   5.330  -0.189  0.00  0.00    +0.029 A 
ATOM     22  C   UNL     1      -0.447   6.556  -0.818  0.00  0.00    +0.005 A 
ENDBRANCH  13  20
ENDBRANCH   1  13
TORSDOF 4
