REMARK  Name = ZINC12447719
REMARK  9 active torsions:
REMARK  status: ('A' for Active; 'I' for Inactive)
REMARK    1  A    between atoms: C_1  and  C_2
REMARK    2  A    between atoms: C_5  and  C_8
REMARK    3  A    between atoms: C_8  and  S_9
REMARK    4  A    between atoms: S_9  and  C_10
REMARK    5  A    between atoms: C_18  and  C_25
REMARK    6  A    between atoms: C_20  and  C_23
REMARK    7  A    between atoms: C_21  and  N_22
REMARK    8  A    between atoms: C_34  and  C_36
REMARK    9  A    between atoms: C_34  and  C_37
REMARK                            x       y       z     vdW  Elec       q    Type
REMARK                         _______ _______ _______ _____ _____    ______ ____
ROOT
ATOM      1  C   UNL     1      -3.149  -2.097  -1.412  0.00  0.00    +0.160 A 
ATOM      2  N   UNL     1      -3.146  -1.725  -0.140  0.00  0.00    -0.133 NA
ATOM      3  N   UNL     1      -2.190  -1.072   0.361  0.00  0.00    -0.124 NA
ATOM      4  C   UNL     1      -1.133  -0.719  -0.352  0.00  0.00    +0.194 A 
ATOM      5  S   UNL     1      -1.582  -1.411  -1.941  0.00  0.00    -0.024 S 
ATOM      6  N   UNL     1       0.003  -0.006   0.025  0.00  0.00    -0.237 N 
ATOM      7  C   UNL     1       1.115  -0.679   0.460  0.00  0.00    +0.027 C 
ATOM      8  C   UNL     1       2.327  -0.083   0.453  0.00  0.00    +0.025 C 
ATOM      9  C   UNL     1       2.491   1.334  -0.038  0.00  0.00    +0.099 C 
ATOM     10  C   UNL     1       1.174   2.052  -0.071  0.00  0.00    +0.077 C 
ATOM     11  C   UNL     1       0.001   1.369  -0.043  0.00  0.00    +0.108 C 
ATOM     12  C   UNL     1       3.472  -0.765   0.898  0.00  0.00    +0.162 C 
ATOM     13  O   UNL     1       4.545  -0.193   0.896  0.00  0.00    -0.292 OA
ATOM     14  C   UNL     1       3.396  -2.189   1.376  0.00  0.00    +0.086 C 
ATOM     15  C   UNL     1       2.228  -2.889   0.672  0.00  0.00    -0.023 C 
ATOM     16  C   UNL     1       0.949  -2.096   0.950  0.00  0.00    +0.058 C 
ATOM     17  C   UNL     1       2.489  -2.933  -0.835  0.00  0.00    +0.011 C 
ATOM     18  C   UNL     1       2.083  -4.314   1.211  0.00  0.00    +0.011 C 
ENDROOT
BRANCH   9  19
ATOM     19  C   UNL     1       3.075   1.310  -1.427  0.00  0.00    -0.017 A 
ATOM     20  C   UNL     1       4.288   1.930  -1.689  0.00  0.00    +0.007 A 
ATOM     21  C   UNL     1       4.790   1.879  -2.980  0.00  0.00    +0.020 A 
ATOM     22  C   UNL     1       4.065   1.225  -3.959  0.00  0.00    +0.111 A 
ATOM     23  N   UNL     1       2.913   0.650  -3.675  0.00  0.00    -0.263 NA
ATOM     24  C   UNL     1       2.408   0.675  -2.457  0.00  0.00    +0.115 A 
ENDBRANCH   9  19
BRANCH  11  25
ATOM     25  N   UNL     1      -1.192   2.052  -0.089  0.00  0.00    -0.345 N 
ATOM     26  H   UNL     1      -2.027   1.565  -0.163  0.00  0.00    +0.144 HD
ATOM     27  H   UNL     1      -1.197   3.021  -0.048  0.00  0.00    +0.144 HD
ENDBRANCH  11  25
BRANCH  10  28
ATOM     28  C   UNL     1       1.155   3.483  -0.134  0.00  0.00    +0.099 C 
ATOM     29  N   UNL     1       1.139   4.618  -0.183  0.00  0.00    -0.191 NA
ENDBRANCH  10  28
BRANCH   1  30
ATOM     30  S   UNL     1      -4.355  -3.002  -2.325  0.00  0.00    -0.092 S 
BRANCH  30  31
ATOM     31  C   UNL     1      -5.660  -3.342  -1.111  0.00  0.00    +0.111 C 
BRANCH  31  36
ATOM     32  C   UNL     1      -9.911  -6.332  -3.637  0.00  0.00    +0.044 C 
ATOM     33  C   UNL     1      -8.802  -5.553  -2.978  0.00  0.00    -0.050 A 
ATOM     34  C   UNL     1      -7.750  -6.219  -2.379  0.00  0.00    +0.003 A 
ATOM     35  C   UNL     1      -6.733  -5.504  -1.774  0.00  0.00    +0.005 A 
ATOM     36  C   UNL     1      -6.768  -4.122  -1.770  0.00  0.00    -0.037 A 
ATOM     37  C   UNL     1      -7.823  -3.455  -2.365  0.00  0.00    +0.005 A 
ATOM     38  C   UNL     1      -8.838  -4.171  -2.973  0.00  0.00    +0.003 A 
ENDBRANCH  31  36
ENDBRANCH  30  31
ENDBRANCH   1  30
TORSDOF 6
