REMARK  Name = ZINC13002785
REMARK  3 active torsions:
REMARK  status: ('A' for Active; 'I' for Inactive)
REMARK    1  A    between atoms: C_11  and  C_24
REMARK    2  A    between atoms: C_14  and  C_16
REMARK    3  A    between atoms: C_16  and  N_51
REMARK                            x       y       z     vdW  Elec       q    Type
REMARK                         _______ _______ _______ _____ _____    ______ ____
ROOT
ATOM      1  C   UNL     1       3.483  -0.817   2.764  0.00  0.00    +0.002 A 
ATOM      2  C   UNL     1       2.316  -1.470   2.411  0.00  0.00    +0.002 A 
ATOM      3  C   UNL     1       1.130  -0.768   2.301  0.00  0.00    +0.025 A 
ATOM      4  C   UNL     1       1.109   0.591   2.545  0.00  0.00    +0.058 A 
ATOM      5  C   UNL     1       2.294   1.258   2.875  0.00  0.00    +0.055 A 
ATOM      6  C   UNL     1       3.475   0.546   2.996  0.00  0.00    +0.025 A 
ATOM      7  N   UNL     1       2.264   2.643   3.073  0.00  0.00    -0.284 N 
ATOM      8  C   UNL     1       1.333   3.203   3.877  0.00  0.00    +0.219 C 
ATOM      9  O   UNL     1       1.271   4.410   3.977  0.00  0.00    -0.275 OA
ATOM     10  C   UNL     1       0.370   2.339   4.648  0.00  0.00    +0.128 C 
ATOM     11  C   UNL     1      -0.704   1.782   3.712  0.00  0.00    +0.194 C 
ATOM     12  N   UNL     1      -0.087   1.316   2.470  0.00  0.00    -0.259 N 
ATOM     13  C   UNL     1      -0.661   1.573   1.278  0.00  0.00    +0.204 C 
ATOM     14  O   UNL     1      -1.700   2.198   1.227  0.00  0.00    -0.277 OA
ATOM     15  H   UNL     1       2.917   3.207   2.629  0.00  0.00    +0.155 HD
ENDROOT
BRANCH  11  16
ATOM     16  C   UNL     1      -1.417   0.614   4.396  0.00  0.00    +0.409 C 
ATOM     17  F   UNL     1      -0.489  -0.393   4.685  0.00  0.00    -0.169 F 
ATOM     18  F   UNL     1      -2.007   1.058   5.584  0.00  0.00    -0.169 F 
ATOM     19  F   UNL     1      -2.405   0.107   3.545  0.00  0.00    -0.169 F 
ENDBRANCH  11  16
BRANCH  13  20
ATOM     20  C   UNL     1      -0.013   1.086   0.008  0.00  0.00    +0.019 C 
BRANCH  20  28
ATOM     21  C   UNL     1      -0.199   1.140  -2.405  0.00  0.00    -0.078 C 
ATOM     22  C   UNL     1      -1.199   1.160  -3.560  0.00  0.00    -0.019 C 
ATOM     23  C   UNL     1      -1.578   2.611  -3.879  0.00  0.00    -0.002 C 
ATOM     24  C   UNL     1      -2.521   3.126  -2.789  0.00  0.00    -0.000 C 
ATOM     25  C   UNL     1      -3.562   2.052  -2.471  0.00  0.00    -0.002 C 
ATOM     26  C   UNL     1      -3.337   1.522  -1.055  0.00  0.00    -0.019 C 
ATOM     27  C   UNL     1      -2.131   0.579  -1.052  0.00  0.00    -0.078 C 
ATOM     28  N   UNL     1      -0.901   1.399  -1.131  0.00  0.00    +0.385 N 
ATOM     29  H   UNL     1      -1.160   2.391  -1.089  0.00  0.00    -0.081 HD
ENDBRANCH  20  28
ENDBRANCH  13  20
TORSDOF 3
