REMARK  Name = ZINC06171081
REMARK  11 active torsions:
REMARK  status: ('A' for Active; 'I' for Inactive)
REMARK    1  A    between atoms: C_1  and  C_2
REMARK    2  A    between atoms: C_2  and  C_3
REMARK    3  A    between atoms: C_2  and  C_4
REMARK    4  A    between atoms: C_4  and  N_5
REMARK    5  A    between atoms: N_13  and  N_14
REMARK    6  A    between atoms: C_15  and  C_17
REMARK    7  A    between atoms: C_21  and  S_23
REMARK    8  A    between atoms: S_23  and  N_26
REMARK    9  A    between atoms: N_26  and  C_27
REMARK   10  A    between atoms: C_32  and  O_33
REMARK   11  A    between atoms: O_33  and  C_34
REMARK                            x       y       z     vdW  Elec       q    Type
REMARK                         _______ _______ _______ _____ _____    ______ ____
ROOT
ATOM      1  N   UNL     1      -1.131  -6.449   0.984  0.00  0.00    -0.202 N 
ATOM      2  C   UNL     1      -1.296  -7.659   1.556  0.00  0.00    +0.263 C 
ATOM      3  O   UNL     1      -1.384  -7.752   2.764  0.00  0.00    -0.268 OA
ATOM      4  H   UNL     1      -1.060  -6.374   0.019  0.00  0.00    +0.178 HD
ENDROOT
BRANCH   1  13
ATOM      5  N   UNL     1      -0.864  -1.856   0.944  0.00  0.00    -0.265 N 
ATOM      6  C   UNL     1      -0.691  -2.419  -0.316  0.00  0.00    +0.046 A 
ATOM      7  C   UNL     1      -0.494  -1.843  -1.566  0.00  0.00    +0.024 A 
ATOM      8  C   UNL     1      -0.348  -2.642  -2.682  0.00  0.00    +0.002 A 
ATOM      9  C   UNL     1      -0.395  -4.022  -2.572  0.00  0.00    +0.001 A 
ATOM     10  C   UNL     1      -0.589  -4.612  -1.339  0.00  0.00    +0.012 A 
ATOM     11  C   UNL     1      -0.737  -3.815  -0.209  0.00  0.00    +0.028 A 
ATOM     12  C   UNL     1      -0.954  -4.119   1.224  0.00  0.00    +0.153 C 
ATOM     13  N   UNL     1      -1.062  -5.300   1.783  0.00  0.00    -0.174 NA
ATOM     14  C   UNL     1      -1.018  -2.801   1.887  0.00  0.00    +0.271 C 
ATOM     15  O   UNL     1      -1.183  -2.605   3.077  0.00  0.00    -0.268 OA
BRANCH   5  16
ATOM     16  C   UNL     1      -0.871  -0.416   1.210  0.00  0.00    +0.117 C 
BRANCH  16  18
ATOM     17  C   UNL     1       0.567   1.577   1.661  0.00  0.00    +0.009 C 
ATOM     18  C   UNL     1       0.554   0.055   1.506  0.00  0.00    +0.001 C 
ATOM     19  C   UNL     1       1.047  -0.593   2.801  0.00  0.00    +0.009 C 
ENDBRANCH  16  18
ENDBRANCH   5  16
ENDBRANCH   1  13
BRANCH   2  20
ATOM     20  C   UNL     1      -1.368  -8.870   0.714  0.00  0.00    +0.040 A 
ATOM     21  C   UNL     1      -1.260  -8.767  -0.675  0.00  0.00    +0.013 A 
ATOM     22  C   UNL     1      -1.329  -9.902  -1.455  0.00  0.00    +0.003 A 
ATOM     23  C   UNL     1      -1.503 -11.141  -0.865  0.00  0.00    +0.029 A 
ATOM     24  C   UNL     1      -1.611 -11.251   0.510  0.00  0.00    +0.109 A 
ATOM     25  C   UNL     1      -1.538 -10.124   1.303  0.00  0.00    +0.042 A 
BRANCH  24  26
ATOM     26  S   UNL     1      -1.834 -12.834   1.250  0.00  0.00    +0.072 S 
ATOM     27  O   UNL     1      -2.453 -12.610   2.510  0.00  0.00    -0.150 OA
ATOM     28  O   UNL     1      -2.410 -13.670   0.256  0.00  0.00    -0.150 OA
BRANCH  26  29
ATOM     29  N   UNL     1      -0.327 -13.444   1.565  0.00  0.00    -0.213 N 
ATOM     30  H   UNL     1      -0.046 -14.278   1.158  0.00  0.00    +0.174 HD
BRANCH  29  31
ATOM     31  C   UNL     1       0.542 -12.755   2.420  0.00  0.00    +0.090 A 
ATOM     32  C   UNL     1       0.041 -12.071   3.518  0.00  0.00    +0.028 A 
ATOM     33  C   UNL     1       0.901 -11.392   4.360  0.00  0.00    +0.002 A 
ATOM     34  C   UNL     1       2.261 -11.393   4.112  0.00  0.00    +0.004 A 
ATOM     35  C   UNL     1       2.768 -12.073   3.020  0.00  0.00    +0.047 A 
ATOM     36  C   UNL     1       1.913 -12.760   2.174  0.00  0.00    +0.142 A 
BRANCH  36  37
ATOM     37  O   UNL     1       2.411 -13.433   1.102  0.00  0.00    -0.493 OA
ATOM     38  C   UNL     1       3.827 -13.394   0.911  0.00  0.00    +0.277 C 
ENDBRANCH  36  37
ENDBRANCH  29  31
ENDBRANCH  26  29
ENDBRANCH  24  26
ENDBRANCH   2  20
TORSDOF 8
