REMARK  Name = ZINC41089514
REMARK  8 active torsions:
REMARK  status: ('A' for Active; 'I' for Inactive)
REMARK    1  A    between atoms: C_1  and  C_2
REMARK    2  A    between atoms: C_5  and  S_8
REMARK    3  A    between atoms: S_8  and  N_11
REMARK    4  A    between atoms: N_11  and  C_12
REMARK    5  A    between atoms: C_17  and  O_18
REMARK    6  A    between atoms: O_18  and  C_19
REMARK    7  A    between atoms: C_19  and  C_20
REMARK    8  A    between atoms: C_28  and  C_30
REMARK                            x       y       z     vdW  Elec       q    Type
REMARK                         _______ _______ _______ _____ _____    ______ ____
ROOT
ATOM      1  C   UNL     1       2.499  -4.622   1.013  0.00  0.00    +0.091 A 
ATOM      2  C   UNL     1       2.039  -4.639   2.321  0.00  0.00    +0.048 A 
ATOM      3  C   UNL     1       2.879  -4.266   3.355  0.00  0.00    +0.043 A 
ATOM      4  C   UNL     1       4.179  -3.875   3.086  0.00  0.00    +0.024 A 
ATOM      5  C   UNL     1       4.644  -3.856   1.784  0.00  0.00    +0.049 A 
ATOM      6  C   UNL     1       3.810  -4.234   0.745  0.00  0.00    +0.143 A 
ATOM      7 CL   UNL     1       2.301  -4.287   4.992  0.00  0.00    -0.083 Cl
ENDROOT
BRANCH   1   8
ATOM      8  N   UNL     1       1.651  -4.999  -0.034  0.00  0.00    -0.213 N 
ATOM      9  H   UNL     1       2.008  -5.476  -0.800  0.00  0.00    +0.174 HD
BRANCH   8  10
ATOM     10  S   UNL     1       0.038  -4.632   0.033  0.00  0.00    +0.072 S 
ATOM     11  O   UNL     1      -0.442  -5.135   1.273  0.00  0.00    -0.150 OA
ATOM     12  O   UNL     1      -0.520  -5.021  -1.214  0.00  0.00    -0.150 OA
BRANCH  10  17
ATOM     13  C   UNL     1      -0.414   1.378   0.322  0.00  0.00    +0.044 C 
ATOM     14  C   UNL     1      -0.301  -0.123   0.250  0.00  0.00    -0.050 A 
ATOM     15  C   UNL     1      -0.286  -0.757  -0.979  0.00  0.00    +0.005 A 
ATOM     16  C   UNL     1      -0.182  -2.133  -1.045  0.00  0.00    +0.029 A 
ATOM     17  C   UNL     1      -0.093  -2.877   0.117  0.00  0.00    +0.109 A 
ATOM     18  C   UNL     1      -0.108  -2.243   1.346  0.00  0.00    +0.029 A 
ATOM     19  C   UNL     1      -0.207  -0.865   1.412  0.00  0.00    +0.005 A 
ENDBRANCH  10  17
ENDBRANCH   8  10
ENDBRANCH   1   8
BRANCH   6  20
ATOM     20  O   UNL     1       4.268  -4.220  -0.536  0.00  0.00    -0.484 OA
BRANCH  20  21
ATOM     21  C   UNL     1       5.622  -3.811  -0.736  0.00  0.00    +0.284 C 
BRANCH  21  22
ATOM     22  C   UNL     1       5.949  -3.859  -2.207  0.00  0.00    +0.086 A 
ATOM     23  C   UNL     1       6.247  -2.695  -2.884  0.00  0.00    +0.100 A 
ATOM     24  C   UNL     1       6.548  -2.767  -4.252  0.00  0.00    +0.287 A 
ATOM     25  O   UNL     1       6.817  -1.757  -4.884  0.00  0.00    -0.265 OA
ATOM     26  N   UNL     1       6.535  -3.971  -4.857  0.00  0.00    -0.119 N 
ATOM     27  C   UNL     1       6.235  -5.091  -4.144  0.00  0.00    +0.177 A 
ATOM     28  N   UNL     1       5.956  -5.019  -2.846  0.00  0.00    -0.228 NA
ATOM     29  C   UNL     1       6.303  -6.180  -5.041  0.00  0.00    +0.093 A 
ATOM     30  C   UNL     1       6.636  -5.708  -6.256  0.00  0.00    +0.134 A 
ATOM     31  O   UNL     1       6.786  -4.378  -6.189  0.00  0.00    -0.373 OA
ATOM     32  C   UNL     1       6.814  -6.544  -7.497  0.00  0.00    +0.089 C 
ENDBRANCH  21  22
ENDBRANCH  20  21
ENDBRANCH   6  20
TORSDOF 6
