REMARK  Name = ZINC38701311
REMARK  13 active torsions:
REMARK  status: ('A' for Active; 'I' for Inactive)
REMARK    1  A    between atoms: C_1  and  C_2
REMARK    2  A    between atoms: C_2  and  C_3
REMARK    3  A    between atoms: C_3  and  C_4
REMARK    4  A    between atoms: C_4  and  C_5
REMARK    5  A    between atoms: C_5  and  O_6
REMARK    6  A    between atoms: O_6  and  C_7
REMARK    7  A    between atoms: C_10  and  C_13
REMARK    8  A    between atoms: C_18  and  O_27
REMARK    9  A    between atoms: C_22  and  N_26
REMARK   10  A    between atoms: C_23  and  C_24
REMARK   11  A    between atoms: O_27  and  C_28
REMARK   12  A    between atoms: C_28  and  C_30
REMARK   13  A    between atoms: C_31  and  C_39
REMARK                            x       y       z     vdW  Elec       q    Type
REMARK                         _______ _______ _______ _____ _____    ______ ____
ROOT
ATOM      1  C   UNL     1      -7.827  -6.698   0.005  0.00  0.00    +0.098 C 
ATOM      2  C   UNL     1      -7.928  -7.541   1.248  0.00  0.00    +0.008 A 
ATOM      3  C   UNL     1      -8.089  -6.925   2.477  0.00  0.00    +0.012 A 
ATOM      4  C   UNL     1      -8.185  -7.682   3.627  0.00  0.00    +0.047 A 
ATOM      5  C   UNL     1      -8.119  -9.067   3.555  0.00  0.00    +0.136 A 
ATOM      6  C   UNL     1      -7.956  -9.686   2.326  0.00  0.00    +0.093 A 
ATOM      7  C   UNL     1      -7.861  -8.924   1.170  0.00  0.00    +0.138 A 
ATOM      8  O   UNL     1      -7.703  -9.545  -0.025  0.00  0.00    -0.441 OA
ATOM      9  C   UNL     1      -7.991  -8.893  -1.163  0.00  0.00    +0.199 C 
ATOM     10  C   UNL     1      -8.064  -7.545  -1.214  0.00  0.00    +0.098 C 
ENDROOT
BRANCH   1  14
ATOM     11  C   UNL     1      -3.928  -4.963  -0.215  0.00  0.00    +0.121 A 
ATOM     12  C   UNL     1      -5.049  -4.148  -0.154  0.00  0.00    +0.046 A 
ATOM     13  C   UNL     1      -6.308  -4.711  -0.084  0.00  0.00    +0.008 A 
ATOM     14  C   UNL     1      -6.452  -6.086  -0.073  0.00  0.00    -0.034 A 
ATOM     15  C   UNL     1      -5.336  -6.901  -0.132  0.00  0.00    +0.008 A 
ATOM     16  C   UNL     1      -4.075  -6.342  -0.209  0.00  0.00    +0.046 A 
BRANCH  11  17
ATOM     17  O   UNL     1      -2.688  -4.411  -0.285  0.00  0.00    -0.492 OA
BRANCH  17  18
ATOM     18  C   UNL     1      -2.612  -2.984  -0.286  0.00  0.00    +0.229 C 
BRANCH  18  19
ATOM     19  C   UNL     1      -1.147  -2.551  -0.369  0.00  0.00    +0.041 C 
BRANCH  19  20
ATOM     20  C   UNL     1      -1.066  -1.023  -0.370  0.00  0.00    +0.003 C 
BRANCH  20  22
ATOM     21  C   UNL     1       0.481   0.938  -0.455  0.00  0.00    +0.004 C 
ATOM     22  C   UNL     1       0.399  -0.590  -0.453  0.00  0.00    -0.003 C 
ENDBRANCH  20  22
ENDBRANCH  19  20
ENDBRANCH  18  19
ENDBRANCH  17  18
ENDBRANCH  11  17
ENDBRANCH   1  14
BRANCH   9  23
ATOM     23  N   UNL     1      -8.217  -9.618  -2.307  0.00  0.00    -0.328 N 
ATOM     24  H   UNL     1      -8.168 -10.586  -2.285  0.00  0.00    +0.145 HD
ATOM     25  H   UNL     1      -8.427  -9.161  -3.137  0.00  0.00    +0.145 HD
ENDBRANCH   9  23
BRANCH  10  26
ATOM     26  C   UNL     1      -8.375  -6.910  -2.459  0.00  0.00    +0.101 C 
ATOM     27  N   UNL     1      -8.622  -6.407  -3.447  0.00  0.00    -0.191 NA
ENDBRANCH  10  26
BRANCH   5  28
ATOM     28  O   UNL     1      -8.212  -9.813   4.686  0.00  0.00    -0.420 OA
BRANCH  28  29
ATOM     29  C   UNL     1      -7.110 -10.465   5.108  0.00  0.00    +0.380 C 
ATOM     30  O   UNL     1      -6.048 -10.293   4.541  0.00  0.00    -0.241 OA
BRANCH  29  31
ATOM     31  C   UNL     1      -7.191 -11.383   6.250  0.00  0.00    +0.216 A 
ATOM     32  C   UNL     1      -6.149 -12.088   6.764  0.00  0.00    +0.010 A 
ATOM     33  C   UNL     1      -6.693 -12.859   7.881  0.00  0.00    +0.024 A 
ATOM     34  C   UNL     1      -6.148 -13.761   8.798  0.00  0.00    +0.012 A 
ATOM     35  C   UNL     1      -6.949 -14.327   9.749  0.00  0.00    +0.001 A 
ATOM     36  C   UNL     1      -8.300 -14.012   9.809  0.00  0.00    +0.004 A 
ATOM     37  C   UNL     1      -8.857 -13.124   8.914  0.00  0.00    +0.047 A 
ATOM     38  C   UNL     1      -8.061 -12.536   7.938  0.00  0.00    +0.136 A 
ATOM     39  O   UNL     1      -8.312 -11.650   6.953  0.00  0.00    -0.448 OA
ATOM     40  C   UNL     1      -4.722 -12.076   6.281  0.00  0.00    +0.048 C 
ENDBRANCH  29  31
ENDBRANCH  28  29
ENDBRANCH   5  28
TORSDOF 11
