REMARK  Name = ZINC06582193
REMARK  2 active torsions:
REMARK  status: ('A' for Active; 'I' for Inactive)
REMARK    1  A    between atoms: C_4  and  C_7
REMARK    2  A    between atoms: C_13  and  C_24
REMARK                            x       y       z     vdW  Elec       q    Type
REMARK                         _______ _______ _______ _____ _____    ______ ____
ROOT
ATOM      1  C   UNL     1       1.796   3.392   1.164  0.00  0.00    +0.051 C 
ATOM      2  C   UNL     1       3.118   4.104   0.858  0.00  0.00    +0.084 C 
ATOM      3  C   UNL     1       3.069   4.614  -0.566  0.00  0.00    +0.135 C 
ATOM      4  O   UNL     1       3.345   5.761  -0.825  0.00  0.00    -0.297 OA
ATOM      5  C   UNL     1       2.662   3.647  -1.656  0.00  0.00    +0.084 C 
ATOM      6  C   UNL     1       1.362   2.956  -1.230  0.00  0.00    +0.051 C 
ATOM      7  C   UNL     1       1.551   2.298   0.131  0.00  0.00    +0.139 C 
ATOM      8  C   UNL     1       0.257   1.602   0.493  0.00  0.00    +0.254 C 
ATOM      9  O   UNL     1      -0.789   2.212   0.566  0.00  0.00    -0.272 OA
ATOM     10  N   UNL     1       0.313   0.272   0.726  0.00  0.00    -0.157 NA
ATOM     11  C   UNL     1       1.461  -0.410   0.642  0.00  0.00    +0.163 C 
ATOM     12  S   UNL     1       1.406  -2.092   0.961  0.00  0.00    -0.016 S 
ATOM     13  N   UNL     1       2.649   0.120   0.330  0.00  0.00    -0.265 N 
ATOM     14  C   UNL     1       2.793   1.437   0.063  0.00  0.00    +0.235 C 
ATOM     15  O   UNL     1       3.873   1.909  -0.220  0.00  0.00    -0.274 OA
ATOM     16  H   UNL     1       3.542  -0.520   0.284  0.00  0.00    +0.157 HD
ENDROOT
BRANCH   1  20
ATOM     17  C   UNL     1       1.988   1.650   5.059  0.00  0.00    +0.000 A 
ATOM     18  C   UNL     1       1.026   2.601   4.774  0.00  0.00    +0.000 A 
ATOM     19  C   UNL     1       0.965   3.165   3.514  0.00  0.00    +0.004 A 
ATOM     20  C   UNL     1       1.864   2.777   2.538  0.00  0.00    -0.042 A 
ATOM     21  C   UNL     1       2.822   1.822   2.822  0.00  0.00    +0.004 A 
ATOM     22  C   UNL     1       2.887   1.262   4.084  0.00  0.00    +0.000 A 
ENDBRANCH   1  20
BRANCH   6  23
ATOM     23  C   UNL     1       0.257   3.977  -1.145  0.00  0.00    -0.042 A 
ATOM     24  C   UNL     1      -0.953   3.741  -1.772  0.00  0.00    +0.004 A 
ATOM     25  C   UNL     1      -1.968   4.675  -1.689  0.00  0.00    +0.000 A 
ATOM     26  C   UNL     1      -1.770   5.851  -0.989  0.00  0.00    +0.000 A 
ATOM     27  C   UNL     1      -0.559   6.089  -0.366  0.00  0.00    +0.000 A 
ATOM     28  C   UNL     1       0.454   5.152  -0.445  0.00  0.00    +0.004 A 
ENDBRANCH   6  23
TORSDOF 2
