REMARK  Name = ZINC12761869
REMARK  6 active torsions:
REMARK  status: ('A' for Active; 'I' for Inactive)
REMARK    1  A    between atoms: C_1  and  N_2
REMARK    2  A    between atoms: C_6  and  C_7
REMARK    3  A    between atoms: N_9  and  N_10
REMARK    4  A    between atoms: N_10  and  S_11
REMARK    5  A    between atoms: S_11  and  C_14
REMARK    6  A    between atoms: C_18  and  N_20
REMARK                            x       y       z     vdW  Elec       q    Type
REMARK                         _______ _______ _______ _____ _____    ______ ____
ROOT
ATOM      1  N   UNL     1      -3.542  -1.282  -0.013  0.00  0.00    -0.108 NA
ATOM      2  H   UNL     1      -3.618  -2.050  -0.601  0.00  0.00    +0.172 HD
ENDROOT
BRANCH   1   5
ATOM      3  C   UNL     1      -1.187  -0.936  -0.014  0.00  0.00    +0.275 C 
ATOM      4  O   UNL     1      -1.022  -2.139   0.067  0.00  0.00    -0.267 OA
ATOM      5  N   UNL     1      -2.433  -0.432  -0.111  0.00  0.00    -0.227 N 
ATOM      6  H   UNL     1      -2.562   0.520  -0.249  0.00  0.00    +0.171 HD
BRANCH   3  12
ATOM      7  C   UNL     1       1.791  -1.788  -0.015  0.00  0.00    +0.149 C 
ATOM      8  N   UNL     1       1.294  -0.410  -0.007  0.00  0.00    -0.345 N 
ATOM      9  C   UNL     1       2.062   0.707   0.004  0.00  0.00    +0.101 A 
ATOM     10  C   UNL     1       1.253   1.794   0.014  0.00  0.00    +0.036 A 
ATOM     11  C   UNL     1      -0.071   1.344   0.009  0.00  0.00    +0.047 A 
ATOM     12  C   UNL     1      -0.030  -0.034  -0.005  0.00  0.00    +0.106 A 
ATOM     13 BR   UNL     1       1.815   3.600   0.031  0.00  0.00    -0.049 Br
ENDBRANCH   3  12
ENDBRANCH   1   5
BRANCH   1  14
ATOM     14  S   UNL     1      -4.724  -0.976   1.106  0.00  0.00    +0.074 S 
ATOM     15  O   UNL     1      -5.765  -1.913   0.864  0.00  0.00    -0.152 OA
ATOM     16  O   UNL     1      -4.074  -0.869   2.364  0.00  0.00    -0.152 OA
BRANCH  14  17
ATOM     17  C   UNL     1      -5.386   0.616   0.743  0.00  0.00    +0.109 A 
ATOM     18  C   UNL     1      -4.835   1.742   1.326  0.00  0.00    +0.030 A 
ATOM     19  C   UNL     1      -5.351   2.992   1.038  0.00  0.00    +0.024 A 
ATOM     20  C   UNL     1      -6.424   3.115   0.174  0.00  0.00    +0.071 A 
ATOM     21  C   UNL     1      -6.977   1.987  -0.406  0.00  0.00    +0.146 A 
ATOM     22  C   UNL     1      -6.458   0.738  -0.121  0.00  0.00    +0.062 A 
ATOM     23 CL   UNL     1      -7.075   4.684  -0.184  0.00  0.00    -0.081 Cl
BRANCH  21  24
ATOM     24  N   UNL     1      -8.125   2.118  -1.331  0.00  0.00    +0.058 N 
ATOM     25  O   UNL     1      -8.612   1.125  -1.842  0.00  0.00    -0.126 OA
ATOM     26  O   UNL     1      -8.583   3.219  -1.582  0.00  0.00    -0.126 OA
ENDBRANCH  21  24
ENDBRANCH  14  17
ENDBRANCH   1  14
TORSDOF 5
