REMARK  Name = ZINC10263590
REMARK  10 active torsions:
REMARK  status: ('A' for Active; 'I' for Inactive)
REMARK    1  A    between atoms: C_1  and  C_2
REMARK    2  A    between atoms: C_2  and  N_3
REMARK    3  A    between atoms: C_7  and  C_9
REMARK    4  A    between atoms: C_9  and  C_11
REMARK    5  A    between atoms: C_9  and  S_12
REMARK    6  A    between atoms: S_12  and  C_13
REMARK    7  A    between atoms: C_16  and  C_25
REMARK    8  A    between atoms: N_17  and  C_18
REMARK    9  A    between atoms: C_21  and  C_24
REMARK   10  A    between atoms: C_28  and  C_31
REMARK                            x       y       z     vdW  Elec       q    Type
REMARK                         _______ _______ _______ _____ _____    ______ ____
ROOT
ATOM      1  C   UNL     1       0.007  -0.772   2.485  0.00  0.00    +0.197 A 
ATOM      2  N   UNL     1      -0.670  -1.364   1.527  0.00  0.00    -0.122 NA
ATOM      3  N   UNL     1      -0.802  -2.616   1.787  0.00  0.00    -0.128 NA
ATOM      4  C   UNL     1      -0.226  -2.901   2.931  0.00  0.00    +0.169 A 
ATOM      5  N   UNL     1       0.311  -1.728   3.416  0.00  0.00    -0.270 N 
ENDROOT
BRANCH   5   6
ATOM      6  C   UNL     1       1.020  -1.551   4.612  0.00  0.00    +0.051 A 
ATOM      7  C   UNL     1       2.278  -2.119   4.766  0.00  0.00    +0.026 A 
ATOM      8  C   UNL     1       2.976  -1.938   5.944  0.00  0.00    +0.005 A 
ATOM      9  C   UNL     1       2.420  -1.201   6.973  0.00  0.00    -0.050 A 
ATOM     10  C   UNL     1       1.165  -0.639   6.825  0.00  0.00    +0.005 A 
ATOM     11  C   UNL     1       0.464  -0.812   5.647  0.00  0.00    +0.026 A 
ATOM     12  C   UNL     1       3.182  -1.011   8.259  0.00  0.00    +0.044 C 
ENDBRANCH   5   6
BRANCH   4  13
ATOM     13  C   UNL     1      -0.164  -4.228   3.578  0.00  0.00    +0.020 A 
ATOM     14  C   UNL     1      -0.418  -5.382   2.835  0.00  0.00    +0.012 A 
ATOM     15  C   UNL     1      -0.353  -6.619   3.443  0.00  0.00    +0.004 A 
ATOM     16  C   UNL     1      -0.049  -6.716   4.790  0.00  0.00    -0.050 A 
ATOM     17  C   UNL     1       0.198  -5.575   5.533  0.00  0.00    +0.004 A 
ATOM     18  C   UNL     1       0.142  -4.333   4.936  0.00  0.00    +0.012 A 
ATOM     19  C   UNL     1       0.014  -8.069   5.449  0.00  0.00    +0.044 C 
ENDBRANCH   4  13
BRANCH   1  20
ATOM     20  S   UNL     1       0.437   0.935   2.561  0.00  0.00    -0.073 S 
BRANCH  20  21
ATOM     21  C   UNL     1      -0.299   1.513   1.012  0.00  0.00    +0.137 C 
ATOM     22  C   UNL     1       0.418   0.857  -0.170  0.00  0.00    +0.029 C 
BRANCH  21  27
ATOM     23  N   UNL     1      -1.756   5.774  -0.673  0.00  0.00    -0.299 N 
ATOM     24  C   UNL     1      -0.893   5.062   0.079  0.00  0.00    +0.306 C 
ATOM     25  O   UNL     1      -0.001   5.627   0.680  0.00  0.00    -0.252 OA
ATOM     26  N   UNL     1      -1.020   3.723   0.164  0.00  0.00    -0.239 N 
ATOM     27  C   UNL     1      -0.158   3.010   0.916  0.00  0.00    +0.233 C 
ATOM     28  O   UNL     1       0.732   3.575   1.516  0.00  0.00    -0.274 OA
ATOM     29  H   UNL     1      -2.468   5.322  -1.153  0.00  0.00    +0.150 HD
ATOM     30  H   UNL     1      -1.732   3.271  -0.316  0.00  0.00    +0.159 HD
BRANCH  23  32
ATOM     31  C   UNL     1      -2.714   7.788  -1.675  0.00  0.00    +0.024 C 
ATOM     32  C   UNL     1      -1.618   7.229  -0.766  0.00  0.00    +0.102 C 
ENDBRANCH  23  32
ENDBRANCH  21  27
ENDBRANCH  20  21
ENDBRANCH   1  20
TORSDOF 6
