REMARK  Name = ZINC14539567
REMARK  9 active torsions:
REMARK  status: ('A' for Active; 'I' for Inactive)
REMARK    1  A    between atoms: C_1  and  N_2
REMARK    2  A    between atoms: C_6  and  C_9
REMARK    3  A    between atoms: C_12  and  O_15
REMARK    4  A    between atoms: O_15  and  C_16
REMARK    5  A    between atoms: C_23  and  C_24
REMARK    6  A    between atoms: C_23  and  N_56
REMARK    7  A    between atoms: C_25  and  O_32
REMARK    8  A    between atoms: C_29  and  O_30
REMARK    9  A    between atoms: O_30  and  C_31
REMARK                            x       y       z     vdW  Elec       q    Type
REMARK                         _______ _______ _______ _____ _____    ______ ____
ROOT
ATOM      1  C   UNL     1       3.120   1.952   9.082  0.00  0.00    +0.152 C 
ATOM      2  N   UNL     1       2.571   0.937   8.179  0.00  0.00    -0.315 N 
ATOM      3  C   UNL     1       2.605  -0.374   8.553  0.00  0.00    +0.021 A 
ATOM      4  C   UNL     1       2.100  -1.333   7.746  0.00  0.00    -0.044 A 
ATOM      5  C   UNL     1       1.543  -0.980   6.505  0.00  0.00    +0.017 A 
ATOM      6  C   UNL     1       1.513   0.349   6.123  0.00  0.00    +0.047 A 
ATOM      7  C   UNL     1       2.053   1.321   7.000  0.00  0.00    +0.259 A 
ATOM      8  O   UNL     1       2.044   2.500   6.689  0.00  0.00    -0.267 OA
ATOM      9  C   UNL     1       2.101  -2.790   8.129  0.00  0.00    -0.041 C 
ATOM     10  C   UNL     1       2.802  -2.108  10.329  0.00  0.00    -0.072 C 
ATOM     11  C   UNL     1       3.223  -0.707   9.889  0.00  0.00    +0.035 C 
ATOM     12  N   UNL     1       3.072  -3.030   9.207  0.00  0.00    +0.386 N 
ATOM     13  H   UNL     1       4.019  -2.856   8.851  0.00  0.00    -0.081 HD
ENDROOT
BRANCH   6  14
ATOM     14  C   UNL     1       0.933   0.747   4.819  0.00  0.00    -0.012 A 
ATOM     15  C   UNL     1      -0.216   1.537   4.777  0.00  0.00    +0.012 A 
ATOM     16  C   UNL     1      -0.754   1.905   3.562  0.00  0.00    +0.046 A 
ATOM     17  C   UNL     1      -0.153   1.491   2.381  0.00  0.00    +0.130 A 
ATOM     18  C   UNL     1       0.988   0.701   2.419  0.00  0.00    +0.046 A 
ATOM     19  C   UNL     1       1.534   0.333   3.631  0.00  0.00    +0.012 A 
BRANCH  17  20
ATOM     20  O   UNL     1      -0.686   1.856   1.185  0.00  0.00    -0.406 OA
BRANCH  20  21
ATOM     21  C   UNL     1      -0.017   1.395   0.010  0.00  0.00    +0.575 C 
ATOM     22  F   UNL     1       0.002  -0.004   0.002  0.00  0.00    -0.133 F 
ATOM     23  F   UNL     1       1.296   1.879  -0.000  0.00  0.00    -0.133 F 
ATOM     24  F   UNL     1      -0.694   1.858  -1.124  0.00  0.00    -0.133 F 
ENDBRANCH  20  21
ENDBRANCH  17  20
ENDBRANCH   6  14
BRANCH  12  25
ATOM     25  C   UNL     1       2.981  -4.434   9.669  0.00  0.00    -0.035 C 
BRANCH  25  26
ATOM     26  C   UNL     1       3.480  -5.343   8.576  0.00  0.00    +0.019 A 
ATOM     27  C   UNL     1       4.824  -5.677   8.509  0.00  0.00    +0.122 A 
ATOM     28  C   UNL     1       5.280  -6.515   7.502  0.00  0.00    +0.046 A 
ATOM     29  C   UNL     1       4.397  -7.016   6.565  0.00  0.00    +0.007 A 
ATOM     30  C   UNL     1       3.057  -6.685   6.629  0.00  0.00    +0.046 A 
ATOM     31  C   UNL     1       2.595  -5.852   7.638  0.00  0.00    +0.125 A 
BRANCH  31  32
ATOM     32  O   UNL     1       1.276  -5.531   7.704  0.00  0.00    -0.495 OA
ATOM     33  C   UNL     1       0.421  -6.091   6.705  0.00  0.00    +0.277 C 
ENDBRANCH  31  32
BRANCH  27  34
ATOM     34  O   UNL     1       5.693  -5.184   9.430  0.00  0.00    -0.506 OA
ATOM     35  H   UNL     1       5.796  -5.743  10.213  0.00  0.00    +0.292 HD
ENDBRANCH  27  34
ENDBRANCH  25  26
ENDBRANCH  12  25
TORSDOF 7
