REMARK  Name = ZINC04004586
REMARK  7 active torsions:
REMARK  status: ('A' for Active; 'I' for Inactive)
REMARK    1  A    between atoms: C_1  and  C_2
REMARK    2  A    between atoms: C_2  and  C_32
REMARK    3  A    between atoms: C_6  and  C_23
REMARK    4  A    between atoms: C_8  and  C_21
REMARK    5  A    between atoms: C_9  and  N_20
REMARK    6  A    between atoms: N_10  and  C_11
REMARK    7  A    between atoms: C_14  and  N_17
REMARK                            x       y       z     vdW  Elec       q    Type
REMARK                         _______ _______ _______ _____ _____    ______ ____
ROOT
ATOM      1  C   UNL     1      -3.678   6.020  -1.457  0.00  0.00    +0.011 C 
ATOM      2  C   UNL     1      -2.711   5.818  -2.625  0.00  0.00    -0.023 C 
ATOM      3  C   UNL     1      -1.270   5.845  -2.111  0.00  0.00    +0.058 C 
ATOM      4  C   UNL     1      -1.063   4.719  -1.128  0.00  0.00    +0.025 C 
ATOM      5  C   UNL     1      -1.741   3.559  -1.246  0.00  0.00    +0.026 C 
ATOM      6  C   UNL     1      -1.519   2.427  -0.276  0.00  0.00    +0.104 C 
ATOM      7  C   UNL     1      -0.853   2.912   0.978  0.00  0.00    +0.077 C 
ATOM      8  C   UNL     1      -0.209   4.107   1.013  0.00  0.00    +0.107 C 
ATOM      9  N   UNL     1      -0.163   4.900  -0.111  0.00  0.00    -0.260 N 
ATOM     10  C   UNL     1      -2.681   3.371  -2.276  0.00  0.00    +0.162 C 
ATOM     11  O   UNL     1      -3.271   2.312  -2.360  0.00  0.00    -0.292 OA
ATOM     12  C   UNL     1      -2.969   4.456  -3.278  0.00  0.00    +0.086 C 
ATOM     13  C   UNL     1      -2.910   6.932  -3.655  0.00  0.00    +0.011 C 
ENDROOT
BRANCH   9  14
ATOM     14  C   UNL     1       0.811   5.900  -0.216  0.00  0.00    +0.040 A 
ATOM     15  C   UNL     1       0.570   7.164   0.306  0.00  0.00    +0.026 A 
ATOM     16  C   UNL     1       1.535   8.147   0.204  0.00  0.00    +0.034 A 
ATOM     17  C   UNL     1       2.736   7.877  -0.424  0.00  0.00    +0.126 A 
ATOM     18  C   UNL     1       2.978   6.620  -0.948  0.00  0.00    +0.034 A 
ATOM     19  C   UNL     1       2.019   5.631  -0.846  0.00  0.00    +0.026 A 
BRANCH  17  20
ATOM     20  N   UNL     1       3.766   8.934  -0.536  0.00  0.00    +0.056 N 
ATOM     21  O   UNL     1       4.824   8.697  -1.090  0.00  0.00    -0.126 OA
ATOM     22  O   UNL     1       3.554  10.041  -0.075  0.00  0.00    -0.126 OA
ENDBRANCH  17  20
ENDBRANCH   9  14
BRANCH   6  23
ATOM     23  C   UNL     1      -0.647   1.384  -0.926  0.00  0.00    +0.004 A 
ATOM     24  C   UNL     1      -0.924   0.084  -1.191  0.00  0.00    +0.013 A 
ATOM     25  C   UNL     1       0.037  -0.696  -1.806  0.00  0.00    +0.023 A 
ATOM     26  C   UNL     1       1.230  -0.136  -2.127  0.00  0.00    +0.055 A 
ATOM     27  S   UNL     1       1.017   1.542  -1.554  0.00  0.00    -0.085 S 
ATOM     28 BR   UNL     1       2.731  -0.926  -2.964  0.00  0.00    -0.043 Br
ENDBRANCH   6  23
BRANCH   8  29
ATOM     29  N   UNL     1       0.399   4.525   2.173  0.00  0.00    -0.345 N 
ATOM     30  H   UNL     1       0.448   3.929   2.937  0.00  0.00    +0.144 HD
ATOM     31  H   UNL     1       0.778   5.416   2.228  0.00  0.00    +0.144 HD
ENDBRANCH   8  29
BRANCH   7  32
ATOM     32  C   UNL     1      -0.899   2.102   2.158  0.00  0.00    +0.099 C 
ATOM     33  N   UNL     1      -0.935   1.459   3.094  0.00  0.00    -0.191 NA
ENDBRANCH   7  32
TORSDOF 5
