REMARK  Name = ZINC34922780
REMARK  11 active torsions:
REMARK  status: ('A' for Active; 'I' for Inactive)
REMARK    1  A    between atoms: C_1  and  C_2
REMARK    2  A    between atoms: C_2  and  O_3
REMARK    3  A    between atoms: O_3  and  C_4
REMARK    4  A    between atoms: C_4  and  C_6
REMARK    5  A    between atoms: C_7  and  C_39
REMARK    6  A    between atoms: C_11  and  C_13
REMARK    7  A    between atoms: C_17  and  O_19
REMARK    8  A    between atoms: O_19  and  C_20
REMARK    9  A    between atoms: C_21  and  C_24
REMARK   10  A    between atoms: C_25  and  N_27
REMARK   11  A    between atoms: N_27  and  C_28
REMARK                            x       y       z     vdW  Elec       q    Type
REMARK                         _______ _______ _______ _____ _____    ______ ____
ROOT
ATOM      1  C   UNL     1       1.817  -2.483  -2.638  0.00  0.00    +0.082 C 
ATOM      2  C   UNL     1       1.800  -3.833  -2.930  0.00  0.00    +0.053 C 
ATOM      3  N   UNL     1       1.852  -4.248  -4.185  0.00  0.00    -0.230 NA
ATOM      4  C   UNL     1       1.923  -3.458  -5.236  0.00  0.00    +0.166 C 
ATOM      5  N   UNL     1       1.952  -2.093  -5.163  0.00  0.00    -0.267 N 
ATOM      6  C   UNL     1       1.892  -1.512  -3.795  0.00  0.00    +0.150 C 
ATOM      7  C   UNL     1       2.027  -1.403  -6.356  0.00  0.00    +0.048 C 
ATOM      8  C   UNL     1       2.066  -2.126  -7.497  0.00  0.00    +0.072 C 
ATOM      9  S   UNL     1       1.997  -3.796  -6.878  0.00  0.00    -0.060 S 
ATOM     10  C   UNL     1       1.720  -4.840  -1.811  0.00  0.00    +0.066 C 
ENDROOT
BRANCH   6  11
ATOM     11  C   UNL     1       3.118  -0.657  -3.606  0.00  0.00    -0.019 A 
ATOM     12  C   UNL     1       4.363  -1.147  -3.954  0.00  0.00    +0.006 A 
ATOM     13  C   UNL     1       5.490  -0.365  -3.781  0.00  0.00    +0.004 A 
ATOM     14  C   UNL     1       5.375   0.908  -3.259  0.00  0.00    +0.045 A 
ATOM     15  C   UNL     1       4.127   1.403  -2.908  0.00  0.00    +0.120 A 
ATOM     16  C   UNL     1       2.997   0.618  -3.089  0.00  0.00    +0.051 A 
BRANCH  15  17
ATOM     17  O   UNL     1       4.011   2.656  -2.394  0.00  0.00    -0.495 OA
ATOM     18  C   UNL     1       5.216   3.409  -2.242  0.00  0.00    +0.277 C 
ENDBRANCH  15  17
ENDBRANCH   6  11
BRANCH   7  19
ATOM     19  C   UNL     1       2.062   0.066  -6.385  0.00  0.00    +0.091 C 
ATOM     20  C   UNL     1       2.267   0.712  -7.549  0.00  0.00    +0.239 C 
ATOM     21  O   UNL     1       2.329   0.015  -8.710  0.00  0.00    -0.271 OA
BRANCH  20  22
ATOM     22  N   UNL     1       2.413   2.089  -7.561  0.00  0.00    -0.305 N 
ATOM     23  H   UNL     1       2.295   2.596  -6.742  0.00  0.00    +0.150 HD
BRANCH  22  24
ATOM     24  C   UNL     1       2.745   2.780  -8.809  0.00  0.00    +0.104 C 
ATOM     25  C   UNL     1       1.864   4.020  -8.948  0.00  0.00    +0.027 C 
ATOM     26  C   UNL     1       2.371   4.842 -10.139  0.00  0.00    +0.007 C 
ATOM     27  C   UNL     1       3.721   5.450  -9.763  0.00  0.00    +0.035 C 
ATOM     28  C   UNL     1       4.650   4.389  -9.233  0.00  0.00    -0.042 A 
ATOM     29  C   UNL     1       4.201   3.166  -8.790  0.00  0.00    -0.024 A 
ATOM     30  C   UNL     1       5.111   2.234  -8.306  0.00  0.00    +0.006 A 
ATOM     31  C   UNL     1       6.459   2.525  -8.268  0.00  0.00    +0.000 A 
ATOM     32  C   UNL     1       6.909   3.753  -8.715  0.00  0.00    +0.000 A 
ATOM     33  C   UNL     1       6.008   4.679  -9.195  0.00  0.00    +0.004 A 
ENDBRANCH  22  24
ENDBRANCH  20  22
ENDBRANCH   7  19
BRANCH   1  34
ATOM     34  C   UNL     1       1.762  -2.028  -1.315  0.00  0.00    +0.339 C 
ATOM     35  O   UNL     1       1.613  -2.822  -0.403  0.00  0.00    -0.245 OA
BRANCH  34  36
ATOM     36  O   UNL     1       1.875  -0.708  -1.049  0.00  0.00    -0.462 OA
BRANCH  36  38
ATOM     37  C   UNL     1       1.955   1.205   0.426  0.00  0.00    +0.048 C 
ATOM     38  C   UNL     1       1.810  -0.314   0.323  0.00  0.00    +0.229 C 
ENDBRANCH  36  38
ENDBRANCH  34  36
ENDBRANCH   1  34
TORSDOF 8
