REMARK  Name = ZINC20877072
REMARK  17 active torsions:
REMARK  status: ('A' for Active; 'I' for Inactive)
REMARK    1  A    between atoms: C_1  and  C_2
REMARK    2  A    between atoms: C_2  and  C_3
REMARK    3  A    between atoms: C_2  and  C_4
REMARK    4  A    between atoms: C_2  and  C_5
REMARK    5  A    between atoms: C_5  and  C_6
REMARK    6  A    between atoms: C_6  and  C_7
REMARK    7  A    between atoms: C_6  and  C_8
REMARK    8  A    between atoms: C_6  and  N_9
REMARK    9  A    between atoms: N_9  and  C_10
REMARK   10  A    between atoms: C_10  and  C_11
REMARK   11  A    between atoms: C_13  and  O_32
REMARK   12  A    between atoms: C_14  and  O_18
REMARK   13  A    between atoms: O_18  and  C_19
REMARK   14  A    between atoms: C_19  and  C_20
REMARK   15  A    between atoms: C_20  and  C_22
REMARK   16  A    between atoms: C_20  and  O_31
REMARK   17  A    between atoms: O_32  and  C_33
REMARK                            x       y       z     vdW  Elec       q    Type
REMARK                         _______ _______ _______ _____ _____    ______ ____
ROOT
ATOM      1  C   UNL     1       0.864   1.719   5.871  0.00  0.00    -0.060 A 
ATOM      2  C   UNL     1      -0.264   1.484   5.105  0.00  0.00    +0.051 A 
ATOM      3  C   UNL     1      -0.652   2.403   4.144  0.00  0.00    +0.163 A 
ATOM      4  C   UNL     1       0.100   3.557   3.944  0.00  0.00    +0.176 A 
ATOM      5  C   UNL     1       1.229   3.786   4.714  0.00  0.00    +0.063 A 
ATOM      6  C   UNL     1       1.608   2.867   5.676  0.00  0.00    +0.021 A 
ATOM      7 BR   UNL     1       2.250   5.356   4.451  0.00  0.00    -0.046 Br
ENDROOT
BRANCH   3   8
ATOM      8  O   UNL     1      -1.763   2.175   3.393  0.00  0.00    -0.491 OA
ATOM      9  C   UNL     1      -2.486   0.970   3.653  0.00  0.00    +0.277 C 
ENDBRANCH   3   8
BRANCH   1  10
ATOM     10  C   UNL     1       1.281   0.721   6.920  0.00  0.00    -0.046 C 
BRANCH  10  11
ATOM     11  N   UNL     1       0.642   1.058   8.199  0.00  0.00    +0.385 N 
ATOM     12  H   UNL     1      -0.449   1.034   8.065  0.00  0.00    -0.085 HD
ATOM     13  H   UNL     1       0.954   2.071   8.492  0.00  0.00    -0.085 HD
BRANCH  11  14
ATOM     14  C   UNL     1       1.028   0.104   9.247  0.00  0.00    -0.073 C 
ATOM     15  C   UNL     1       0.594  -1.305   8.839  0.00  0.00    -0.010 C 
ATOM     16  C   UNL     1       2.546   0.137   9.434  0.00  0.00    -0.010 C 
BRANCH  14  17
ATOM     17  C   UNL     1       0.344   0.487  10.561  0.00  0.00    -0.007 C 
BRANCH  17  19
ATOM     18  C   UNL     1      -0.429   2.722   9.755  0.00  0.00    +0.010 C 
ATOM     19  C   UNL     1       0.455   1.998  10.772  0.00  0.00    -0.039 C 
ATOM     20  C   UNL     1      -0.004   2.351  12.189  0.00  0.00    +0.010 C 
ATOM     21  C   UNL     1       1.910   2.434  10.585  0.00  0.00    +0.010 C 
ENDBRANCH  17  19
ENDBRANCH  14  17
ENDBRANCH  11  14
ENDBRANCH  10  11
ENDBRANCH   1  10
BRANCH   4  22
ATOM     22  O   UNL     1      -0.275   4.459   2.998  0.00  0.00    -0.484 OA
BRANCH  22  23
ATOM     23  C   UNL     1       0.259   4.282   1.684  0.00  0.00    +0.265 C 
BRANCH  23  24
ATOM     24  C   UNL     1      -0.272   5.385   0.765  0.00  0.00    +0.182 C 
BRANCH  24  25
ATOM     25  C   UNL     1       0.191   5.129  -0.645  0.00  0.00    -0.012 A 
ATOM     26  C   UNL     1       1.474   5.478  -1.024  0.00  0.00    +0.010 A 
ATOM     27  C   UNL     1       1.904   5.245  -2.317  0.00  0.00    +0.050 A 
ATOM     28  C   UNL     1       1.049   4.661  -3.237  0.00  0.00    +0.166 A 
ATOM     29  C   UNL     1      -0.243   4.310  -2.856  0.00  0.00    +0.167 A 
ATOM     30  C   UNL     1      -0.665   4.541  -1.557  0.00  0.00    +0.055 A 
ATOM     31  O   UNL     1      -0.880   3.758  -3.930  0.00  0.00    -0.453 OA
ATOM     32  C   UNL     1       0.164   3.401  -4.855  0.00  0.00    +0.466 C 
ATOM     33  O   UNL     1       1.222   4.329  -4.550  0.00  0.00    -0.453 OA
ENDBRANCH  24  25
BRANCH  24  34
ATOM     34  O   UNL     1       0.222   6.651   1.207  0.00  0.00    -0.384 OA
ATOM     35  H   UNL     1      -0.055   7.568   0.666  0.00  0.00    +0.210 HD
ENDBRANCH  24  34
ENDBRANCH  23  24
ENDBRANCH  22  23
ENDBRANCH   4  22
TORSDOF 11
