REMARK  Name = ZINC00804014
REMARK  7 active torsions:
REMARK  status: ('A' for Active; 'I' for Inactive)
REMARK    1  A    between atoms: C_1  and  C_2
REMARK    2  A    between atoms: C_2  and  C_3
REMARK    3  A    between atoms: C_2  and  C_4
REMARK    4  A    between atoms: C_2  and  C_5
REMARK    5  A    between atoms: C_12  and  N_29
REMARK    6  A    between atoms: C_13  and  C_27
REMARK    7  A    between atoms: C_14  and  C_16
REMARK                            x       y       z     vdW  Elec       q    Type
REMARK                         _______ _______ _______ _____ _____    ______ ____
ROOT
ATOM      1  C   UNL     1       0.942  -0.901  -1.253  0.00  0.00    +0.076 A 
ATOM      2  C   UNL     1       1.073  -2.265  -1.474  0.00  0.00    +0.050 A 
ATOM      3  C   UNL     1       1.891  -2.443  -2.555  0.00  0.00    +0.222 A 
ATOM      4  N   UNL     1       2.258  -1.227  -2.990  0.00  0.00    -0.246 N 
ATOM      5  H   UNL     1       2.839  -1.041  -3.745  0.00  0.00    +0.192 HD
ATOM      6  N   UNL     1       1.646  -0.272  -2.163  0.00  0.00    -0.175 NA
ATOM      7  O   UNL     1       2.218  -3.669  -3.033  0.00  0.00    -0.423 OA
ATOM      8  C   UNL     1       1.501  -4.723  -2.591  0.00  0.00    +0.200 C 
ATOM      9  C   UNL     1       0.669  -4.674  -1.527  0.00  0.00    +0.098 C 
ATOM     10  C   UNL     1       0.465  -3.418  -0.717  0.00  0.00    +0.104 C 
ENDROOT
BRANCH  10  11
ATOM     11  C   UNL     1       1.143  -3.560   0.622  0.00  0.00    +0.003 A 
ATOM     12  C   UNL     1       2.504  -3.627   0.695  0.00  0.00    +0.017 A 
ATOM     13  C   UNL     1       3.096  -3.760   1.966  0.00  0.00    +0.001 A 
ATOM     14  C   UNL     1       4.490  -3.834   2.119  0.00  0.00    +0.010 A 
ATOM     15  C   UNL     1       5.024  -3.962   3.365  0.00  0.00    +0.001 A 
ATOM     16  C   UNL     1       4.206  -4.020   4.491  0.00  0.00    +0.002 A 
ATOM     17  C   UNL     1       2.851  -3.951   4.379  0.00  0.00    +0.028 A 
ATOM     18  C   UNL     1       2.262  -3.818   3.110  0.00  0.00    +0.073 A 
ATOM     19  N   UNL     1       0.934  -3.747   2.970  0.00  0.00    -0.235 NA
ATOM     20  C   UNL     1       0.379  -3.617   1.788  0.00  0.00    +0.134 A 
ATOM     21 CL   UNL     1      -1.350  -3.522   1.672  0.00  0.00    -0.062 Cl
ENDBRANCH  10  11
BRANCH   1  23
ATOM     22  C   UNL     1       0.079   1.256  -0.388  0.00  0.00    +0.017 C 
ATOM     23  C   UNL     1       0.128  -0.256  -0.162  0.00  0.00    +0.007 C 
ATOM     24  C   UNL     1       0.771  -0.548   1.195  0.00  0.00    +0.017 C 
ATOM     25  C   UNL     1      -1.294  -0.821  -0.184  0.00  0.00    +0.017 C 
ENDBRANCH   1  23
BRANCH   8  26
ATOM     26  N   UNL     1       1.623  -5.914  -3.261  0.00  0.00    -0.328 N 
ATOM     27  H   UNL     1       2.212  -5.981  -4.029  0.00  0.00    +0.145 HD
ATOM     28  H   UNL     1       1.120  -6.690  -2.967  0.00  0.00    +0.145 HD
ENDBRANCH   8  26
BRANCH   9  29
ATOM     29  C   UNL     1      -0.044  -5.858  -1.154  0.00  0.00    +0.101 C 
ATOM     30  N   UNL     1      -0.610  -6.798  -0.859  0.00  0.00    -0.191 NA
ENDBRANCH   9  29
TORSDOF 4
