REMARK  Name = ZINC47152305
REMARK  7 active torsions:
REMARK  status: ('A' for Active; 'I' for Inactive)
REMARK    1  A    between atoms: C_1  and  C_2
REMARK    2  A    between atoms: C_6  and  N_8
REMARK    3  A    between atoms: C_9  and  C_11
REMARK    4  A    between atoms: C_11  and  C_13
REMARK    5  A    between atoms: C_11  and  N_14
REMARK    6  A    between atoms: C_18  and  C_19
REMARK    7  A    between atoms: C_23  and  N_25
REMARK                            x       y       z     vdW  Elec       q    Type
REMARK                         _______ _______ _______ _____ _____    ______ ____
ROOT
ATOM      1  N   UNL     1      -0.012  -6.476   4.179  0.00  0.00    -0.244 N 
ATOM      2  C   UNL     1      -1.173  -7.103   4.264  0.00  0.00    +0.259 C 
ATOM      3  O   UNL     1      -2.170  -6.548   4.689  0.00  0.00    -0.269 OA
ATOM      4  C   UNL     1      -1.198  -8.512   3.816  0.00  0.00    +0.077 C 
ATOM      5  C   UNL     1      -2.230  -9.391   3.787  0.00  0.00    +0.028 C 
ATOM      6  S   UNL     1       0.505  -8.737   3.323  0.00  0.00    -0.061 S 
ATOM      7  C   UNL     1       1.089  -7.093   3.703  0.00  0.00    +0.121 C 
ATOM      8  S   UNL     1       2.666  -6.454   3.510  0.00  0.00    -0.027 S 
ENDROOT
BRANCH   5   9
ATOM      9  C   UNL     1      -1.982 -10.806   3.474  0.00  0.00    -0.022 A 
ATOM     10  C   UNL     1      -0.671 -11.289   3.395  0.00  0.00    +0.008 A 
ATOM     11  C   UNL     1      -0.446 -12.617   3.102  0.00  0.00    +0.003 A 
ATOM     12  C   UNL     1      -1.514 -13.472   2.886  0.00  0.00    +0.033 A 
ATOM     13  C   UNL     1      -2.813 -13.002   2.962  0.00  0.00    +0.127 A 
ATOM     14  C   UNL     1      -3.055 -11.678   3.260  0.00  0.00    +0.040 A 
BRANCH  13  15
ATOM     15  N   UNL     1      -3.946 -13.925   2.728  0.00  0.00    +0.056 N 
ATOM     16  O   UNL     1      -3.736 -15.088   2.472  0.00  0.00    -0.126 OA
ATOM     17  O   UNL     1      -5.082 -13.516   2.795  0.00  0.00    -0.126 OA
ENDBRANCH  13  15
ENDBRANCH   5   9
BRANCH   1  18
ATOM     18  C   UNL     1       0.080  -5.078   4.607  0.00  0.00    +0.166 C 
ATOM     19  C   UNL     1       1.103  -4.957   5.738  0.00  0.00    +0.038 C 
BRANCH  18  21
ATOM     20  N   UNL     1       0.667  -2.895   3.604  0.00  0.00    -0.284 N 
ATOM     21  C   UNL     1       0.514  -4.224   3.444  0.00  0.00    +0.238 C 
ATOM     22  O   UNL     1       0.726  -4.733   2.363  0.00  0.00    -0.273 OA
ATOM     23  H   UNL     1       0.577  -2.499   4.484  0.00  0.00    +0.155 HD
BRANCH  20  29
ATOM     24  C   UNL     1       2.767   1.147   1.751  0.00  0.00    +0.044 C 
ATOM     25  C   UNL     1       1.971  -0.121   1.573  0.00  0.00    -0.049 A 
ATOM     26  C   UNL     1       1.526  -0.485   0.315  0.00  0.00    +0.003 A 
ATOM     27  C   UNL     1       0.796  -1.648   0.147  0.00  0.00    +0.002 A 
ATOM     28  C   UNL     1       0.510  -2.449   1.235  0.00  0.00    +0.023 A 
ATOM     29  C   UNL     1       0.956  -2.086   2.499  0.00  0.00    +0.034 A 
ATOM     30  C   UNL     1       1.693  -0.920   2.664  0.00  0.00    +0.026 A 
ENDBRANCH  20  29
ENDBRANCH  18  21
ENDBRANCH   1  18
TORSDOF 5
