REMARK  Name = ZINC03378618
REMARK  8 active torsions:
REMARK  status: ('A' for Active; 'I' for Inactive)
REMARK    1  A    between atoms: C_1  and  C_2
REMARK    2  A    between atoms: C_4  and  C_14
REMARK    3  A    between atoms: C_5  and  C_13
REMARK    4  A    between atoms: N_6  and  C_7
REMARK    5  A    between atoms: C_7  and  C_8
REMARK    6  A    between atoms: N_20  and  C_21
REMARK    7  A    between atoms: C_24  and  S_27
REMARK    8  A    between atoms: S_27  and  N_30
REMARK                            x       y       z     vdW  Elec       q    Type
REMARK                         _______ _______ _______ _____ _____    ______ ____
ROOT
ATOM      1  C   UNL     1      -5.220   4.369   4.144  0.00  0.00    +0.064 C 
ATOM      2  C   UNL     1      -6.002   3.295   4.045  0.00  0.00    +0.073 C 
ATOM      3  S   UNL     1      -6.705   2.580   5.495  0.00  0.00    -0.059 S 
ATOM      4  C   UNL     1      -6.506   3.837   6.713  0.00  0.00    +0.180 C 
ATOM      5  N   UNL     1      -5.695   4.822   6.518  0.00  0.00    -0.159 NA
ATOM      6  N   UNL     1      -4.927   4.975   5.372  0.00  0.00    -0.234 N 
ATOM      7  N   UNL     1      -7.229   3.769   7.893  0.00  0.00    -0.293 N 
ATOM      8  H   UNL     1      -4.138   5.537   5.424  0.00  0.00    +0.174 HD
ATOM      9  H   UNL     1      -7.064   4.411   8.601  0.00  0.00    +0.154 HD
ENDROOT
BRANCH   1  13
ATOM     10  C   UNL     1      -4.782   6.405  -0.484  0.00  0.00    +0.063 C 
ATOM     11  C   UNL     1      -4.464   5.840   0.876  0.00  0.00    +0.017 A 
ATOM     12  C   UNL     1      -5.363   5.387   1.769  0.00  0.00    +0.032 A 
ATOM     13  C   UNL     1      -4.644   4.946   2.910  0.00  0.00    +0.019 A 
ATOM     14  C   UNL     1      -3.321   5.150   2.652  0.00  0.00    +0.025 A 
ATOM     15  N   UNL     1      -3.215   5.703   1.409  0.00  0.00    -0.343 N 
ATOM     16  C   UNL     1      -2.178   4.826   3.577  0.00  0.00    +0.064 C 
BRANCH  15  17
ATOM     17  C   UNL     1      -1.963   6.081   0.750  0.00  0.00    +0.164 C 
BRANCH  17  18
ATOM     18  C   UNL     1      -1.630   7.512   1.088  0.00  0.00    +0.009 A 
ATOM     19  C   UNL     1      -0.895   7.996   2.119  0.00  0.00    +0.013 A 
ATOM     20  C   UNL     1      -0.722   9.363   2.235  0.00  0.00    +0.008 A 
ATOM     21  C   UNL     1      -1.284  10.177   1.308  0.00  0.00    +0.045 A 
ATOM     22  S   UNL     1      -2.094   9.007   0.230  0.00  0.00    -0.100 S 
ENDBRANCH  17  18
ENDBRANCH  15  17
ENDBRANCH   1  13
BRANCH   7  23
ATOM     23  C   UNL     1      -8.196   2.774   8.063  0.00  0.00    +0.033 A 
ATOM     24  C   UNL     1      -9.039   2.435   7.012  0.00  0.00    +0.025 A 
ATOM     25  C   UNL     1      -9.990   1.449   7.181  0.00  0.00    +0.030 A 
ATOM     26  C   UNL     1     -10.112   0.806   8.400  0.00  0.00    +0.106 A 
ATOM     27  C   UNL     1      -9.278   1.144   9.450  0.00  0.00    +0.030 A 
ATOM     28  C   UNL     1      -8.321   2.126   9.285  0.00  0.00    +0.025 A 
BRANCH  26  29
ATOM     29  S   UNL     1     -11.331  -0.448   8.614  0.00  0.00    +0.061 S 
ATOM     30  O   UNL     1     -11.620  -0.959   7.320  0.00  0.00    -0.153 OA
ATOM     31  O   UNL     1     -10.880  -1.276   9.677  0.00  0.00    -0.153 OA
BRANCH  29  32
ATOM     32  N   UNL     1     -12.711   0.297   9.147  0.00  0.00    -0.172 NA
ATOM     33  C   UNL     1     -12.970   0.472  10.585  0.00  0.00    +0.137 C 
ATOM     34  C   UNL     1     -13.329   1.946  10.831  0.00  0.00    +0.177 C 
ATOM     35  O   UNL     1     -14.385   2.326   9.946  0.00  0.00    -0.377 OA
ATOM     36  C   UNL     1     -14.042   2.252   8.560  0.00  0.00    +0.177 C 
ATOM     37  C   UNL     1     -13.716   0.799   8.197  0.00  0.00    +0.137 C 
ENDBRANCH  29  32
ENDBRANCH  26  29
ENDBRANCH   7  23
TORSDOF 6
