REMARK  Name = ZINC09515584
REMARK  10 active torsions:
REMARK  status: ('A' for Active; 'I' for Inactive)
REMARK    1  A    between atoms: C_1  and  C_2
REMARK    2  A    between atoms: C_2  and  C_3
REMARK    3  A    between atoms: C_3  and  N_4
REMARK    4  A    between atoms: N_4  and  C_5
REMARK    5  A    between atoms: C_6  and  N_21
REMARK    6  A    between atoms: N_7  and  C_14
REMARK    7  A    between atoms: C_14  and  C_15
REMARK    8  A    between atoms: C_22  and  C_24
REMARK    9  A    between atoms: C_24  and  C_25
REMARK   10  A    between atoms: C_28  and  C_30
REMARK                            x       y       z     vdW  Elec       q    Type
REMARK                         _______ _______ _______ _____ _____    ______ ____
ROOT
ATOM      1  C   UNL     1       3.358   2.711   1.142  0.00  0.00    +0.140 A 
ATOM      2  C   UNL     1       3.698   1.645   0.334  0.00  0.00    +0.128 A 
ATOM      3  N   UNL     1       3.002   1.439  -0.834  0.00  0.00    -0.276 N 
ATOM      4  C   UNL     1       1.995   2.261  -1.181  0.00  0.00    +0.331 A 
ATOM      5  O   UNL     1       1.389   2.059  -2.216  0.00  0.00    -0.246 OA
ATOM      6  N   UNL     1       1.646   3.302  -0.404  0.00  0.00    -0.273 N 
ATOM      7  H   UNL     1       0.894   3.898  -0.685  0.00  0.00    +0.173 HD
ATOM      8  C   UNL     1       2.299   3.551   0.748  0.00  0.00    +0.277 A 
ATOM      9  O   UNL     1       1.975   4.497   1.445  0.00  0.00    -0.266 OA
ENDROOT
BRANCH   1  10
ATOM     10  N   UNL     1       4.056   2.951   2.344  0.00  0.00    -0.264 N 
ATOM     11  C   UNL     1       3.423   2.821   3.529  0.00  0.00    +0.226 C 
ATOM     12  O   UNL     1       2.233   2.587   3.559  0.00  0.00    -0.275 OA
BRANCH  10  13
ATOM     13  C   UNL     1       5.467   3.342   2.306  0.00  0.00    +0.113 C 
BRANCH  13  15
ATOM     14  C   UNL     1       7.050   5.275   2.332  0.00  0.00    +0.005 C 
ATOM     15  C   UNL     1       5.576   4.867   2.372  0.00  0.00    +0.016 C 
ENDBRANCH  13  15
ENDBRANCH  10  13
BRANCH  11  16
ATOM     16  C   UNL     1       4.195   2.967   4.815  0.00  0.00    +0.152 C 
BRANCH  16  17
ATOM     17  C   UNL     1       3.264   2.779   5.984  0.00  0.00    +0.058 A 
ATOM     18  C   UNL     1       3.543   1.847   6.934  0.00  0.00    +0.071 A 
ATOM     19  S   UNL     1       2.146   2.063   8.030  0.00  0.00    -0.075 S 
ATOM     20  C   UNL     1       1.345   3.368   7.106  0.00  0.00    +0.109 A 
ATOM     21  N   UNL     1       2.184   3.517   6.090  0.00  0.00    -0.243 NA
BRANCH  20  22
ATOM     22  C   UNL     1       0.088   4.090   7.399  0.00  0.00    +0.007 A 
ATOM     23  C   UNL     1      -0.362   5.091   6.537  0.00  0.00    +0.010 A 
ATOM     24  C   UNL     1      -1.538   5.757   6.813  0.00  0.00    +0.001 A 
ATOM     25  C   UNL     1      -2.265   5.442   7.947  0.00  0.00    +0.000 A 
ATOM     26  C   UNL     1      -1.821   4.455   8.809  0.00  0.00    +0.001 A 
ATOM     27  C   UNL     1      -0.650   3.777   8.541  0.00  0.00    +0.010 A 
ENDBRANCH  20  22
ENDBRANCH  16  17
ENDBRANCH  11  16
ENDBRANCH   1  10
BRANCH   2  28
ATOM     28  N   UNL     1       4.722   0.801   0.691  0.00  0.00    -0.343 N 
ATOM     29  H   UNL     1       5.016   0.109   0.078  0.00  0.00    +0.144 HD
ATOM     30  H   UNL     1       5.152   0.899   1.555  0.00  0.00    +0.144 HD
ENDBRANCH   2  28
BRANCH   3  31
ATOM     31  C   UNL     1       3.355   0.314  -1.704  0.00  0.00    +0.163 C 
BRANCH  31  32
ATOM     32  C   UNL     1       4.394   0.757  -2.701  0.00  0.00    -0.028 A 
ATOM     33  C   UNL     1       4.003   1.271  -3.924  0.00  0.00    +0.005 A 
ATOM     34  C   UNL     1       4.956   1.682  -4.837  0.00  0.00    +0.000 A 
ATOM     35  C   UNL     1       6.299   1.569  -4.532  0.00  0.00    +0.000 A 
ATOM     36  C   UNL     1       6.690   1.049  -3.312  0.00  0.00    +0.000 A 
ATOM     37  C   UNL     1       5.737   0.643  -2.397  0.00  0.00    +0.005 A 
ENDBRANCH  31  32
ENDBRANCH   3  31
TORSDOF 9
