REMARK  Name = ZINC13389322
REMARK  5 active torsions:
REMARK  status: ('A' for Active; 'I' for Inactive)
REMARK    1  A    between atoms: C_1  and  O_2
REMARK    2  A    between atoms: O_2  and  C_3
REMARK    3  A    between atoms: C_7  and  C_11
REMARK    4  A    between atoms: C_8  and  O_9
REMARK    5  A    between atoms: O_9  and  C_10
REMARK                            x       y       z     vdW  Elec       q    Type
REMARK                         _______ _______ _______ _____ _____    ______ ____
ROOT
ATOM      1  C   UNL     1       1.365   2.362  -0.227  0.00  0.00    +0.109 C 
ATOM      2  C   UNL     1       2.551   2.264   0.715  0.00  0.00    +0.029 C 
ATOM      3  C   UNL     1       3.671   3.298   0.540  0.00  0.00    +0.033 C 
ATOM      4  C   UNL     1       4.894   2.514   1.021  0.00  0.00    -0.030 C 
ATOM      5  C   UNL     1       4.689   1.212   0.863  0.00  0.00    -0.023 C 
ATOM      6  C   UNL     1       3.354   1.014   0.243  0.00  0.00    +0.049 C 
ATOM      7  C   UNL     1       2.533  -0.185   0.516  0.00  0.00    -0.018 A 
ATOM      8  C   UNL     1       3.086  -1.393   0.882  0.00  0.00    +0.020 A 
ATOM      9  C   UNL     1       2.277  -2.492   1.104  0.00  0.00    +0.014 A 
ATOM     10  C   UNL     1       0.906  -2.382   0.959  0.00  0.00    +0.016 A 
ATOM     11  C   UNL     1       0.342  -1.175   0.601  0.00  0.00    +0.024 A 
ATOM     12  C   UNL     1       1.145  -0.062   0.381  0.00  0.00    +0.031 A 
ATOM     13  N   UNL     1       0.549   1.156   0.032  0.00  0.00    -0.336 N 
ATOM     14  I   UNL     1       3.128  -4.324   1.660  0.00  0.00    -0.044 I 
ATOM     15  H   UNL     1      -0.416   1.208  -0.046  0.00  0.00    +0.147 HD
ENDROOT
BRANCH   1  20
ATOM     16  C   UNL     1       2.219   1.230  -3.737  0.00  0.00    +0.162 A 
ATOM     17  C   UNL     1       2.705   2.404  -4.290  0.00  0.00    +0.049 A 
ATOM     18  C   UNL     1       2.756   3.557  -3.529  0.00  0.00    +0.004 A 
ATOM     19  C   UNL     1       2.323   3.542  -2.216  0.00  0.00    +0.009 A 
ATOM     20  C   UNL     1       1.837   2.374  -1.658  0.00  0.00    +0.018 A 
ATOM     21  C   UNL     1       1.788   1.214  -2.414  0.00  0.00    +0.166 A 
BRANCH  16  23
ATOM     22  C   UNL     1       2.633   0.184  -5.832  0.00  0.00    +0.277 C 
ATOM     23  O   UNL     1       2.168   0.095  -4.484  0.00  0.00    -0.491 OA
ENDBRANCH  16  23
BRANCH  21  24
ATOM     24  O   UNL     1       1.315   0.063  -1.865  0.00  0.00    -0.491 OA
ATOM     25  C   UNL     1      -0.045  -0.276  -2.139  0.00  0.00    +0.277 C 
ENDBRANCH  21  24
ENDBRANCH   1  20
TORSDOF 3
