REMARK  Name = ZINC12561840
REMARK  10 active torsions:
REMARK  status: ('A' for Active; 'I' for Inactive)
REMARK    1  A    between atoms: C_1  and  O_2
REMARK    2  A    between atoms: O_2  and  C_3
REMARK    3  A    between atoms: C_8  and  N_9
REMARK    4  A    between atoms: N_9  and  S_10
REMARK    5  A    between atoms: S_10  and  C_13
REMARK    6  A    between atoms: C_15  and  N_32
REMARK    7  A    between atoms: C_18  and  N_19
REMARK    8  A    between atoms: N_19  and  N_20
REMARK    9  A    between atoms: C_21  and  C_22
REMARK   10  A    between atoms: C_25  and  C_28
REMARK                            x       y       z     vdW  Elec       q    Type
REMARK                         _______ _______ _______ _____ _____    ______ ____
ROOT
ATOM      1  C   UNL     1       1.692   2.445   1.526  0.00  0.00    +0.133 A 
ATOM      2  C   UNL     1       2.780   2.060   2.285  0.00  0.00    +0.063 A 
ATOM      3  C   UNL     1       2.998   2.634   3.525  0.00  0.00    +0.128 A 
ATOM      4  C   UNL     1       2.122   3.587   4.013  0.00  0.00    +0.035 A 
ATOM      5  C   UNL     1       1.030   3.973   3.262  0.00  0.00    +0.029 A 
ATOM      6  C   UNL     1       0.811   3.402   2.014  0.00  0.00    +0.075 A 
ENDROOT
BRANCH   1   7
ATOM      7  S   UNL     1       1.419   1.718  -0.055  0.00  0.00    +0.074 S 
ATOM      8  O   UNL     1       0.059   1.307  -0.084  0.00  0.00    -0.150 OA
ATOM      9  O   UNL     1       2.493   0.814  -0.278  0.00  0.00    -0.150 OA
BRANCH   7  10
ATOM     10  N   UNL     1       1.573   2.922  -1.181  0.00  0.00    -0.213 N 
ATOM     11  H   UNL     1       0.826   3.144  -1.759  0.00  0.00    +0.174 HD
BRANCH  10  17
ATOM     12  C   UNL     1       2.779   4.976  -1.610  0.00  0.00    +0.142 A 
ATOM     13  C   UNL     1       3.979   5.657  -1.729  0.00  0.00    +0.047 A 
ATOM     14  C   UNL     1       5.175   4.990  -1.542  0.00  0.00    +0.004 A 
ATOM     15  C   UNL     1       5.179   3.642  -1.237  0.00  0.00    +0.002 A 
ATOM     16  C   UNL     1       3.986   2.955  -1.111  0.00  0.00    +0.028 A 
ATOM     17  C   UNL     1       2.782   3.617  -1.303  0.00  0.00    +0.090 A 
BRANCH  12  19
ATOM     18  C   UNL     1       1.675   7.023  -2.106  0.00  0.00    +0.277 C 
ATOM     19  O   UNL     1       1.601   5.631  -1.793  0.00  0.00    -0.493 OA
ENDBRANCH  12  19
ENDBRANCH  10  17
ENDBRANCH   7  10
ENDBRANCH   1   7
BRANCH   3  20
ATOM     20  N   UNL     1       4.168   2.223   4.333  0.00  0.00    +0.056 N 
ATOM     21  O   UNL     1       4.359   2.723   5.427  0.00  0.00    -0.126 OA
ATOM     22  O   UNL     1       4.939   1.383   3.905  0.00  0.00    -0.126 OA
ENDBRANCH   3  20
BRANCH   6  23
ATOM     23  N   UNL     1      -0.292   3.790   1.251  0.00  0.00    -0.236 N 
ATOM     24  H   UNL     1      -0.402   3.450   0.350  0.00  0.00    +0.174 HD
BRANCH  23  25
ATOM     25  N   UNL     1      -1.240   4.671   1.788  0.00  0.00    -0.190 NA
ATOM     26  C   UNL     1      -2.314   4.956   1.118  0.00  0.00    +0.138 C 
BRANCH  26  27
ATOM     27  C   UNL     1      -3.258   5.966   1.632  0.00  0.00    -0.005 A 
ATOM     28  C   UNL     1      -3.002   6.614   2.842  0.00  0.00    +0.010 A 
ATOM     29  C   UNL     1      -3.886   7.561   3.314  0.00  0.00    +0.013 A 
ATOM     30  C   UNL     1      -5.030   7.863   2.597  0.00  0.00    +0.055 A 
ATOM     31  C   UNL     1      -5.293   7.221   1.399  0.00  0.00    +0.013 A 
ATOM     32  C   UNL     1      -4.415   6.275   0.913  0.00  0.00    +0.010 A 
BRANCH  30  33
ATOM     33  C   UNL     1      -5.995   8.895   3.122  0.00  0.00    +0.417 C 
ATOM     34  F   UNL     1      -6.948   8.272   3.934  0.00  0.00    -0.166 F 
ATOM     35  F   UNL     1      -5.296   9.848   3.871  0.00  0.00    -0.166 F 
ATOM     36  F   UNL     1      -6.635   9.524   2.049  0.00  0.00    -0.166 F 
ENDBRANCH  30  33
ENDBRANCH  26  27
ENDBRANCH  23  25
ENDBRANCH   6  23
TORSDOF 9
