REMARK  Name = ZINC67582470
REMARK  8 active torsions:
REMARK  status: ('A' for Active; 'I' for Inactive)
REMARK    1  A    between atoms: C_1  and  C_2
REMARK    2  A    between atoms: C_2  and  C_4
REMARK    3  A    between atoms: C_2  and  N_11
REMARK    4  A    between atoms: N_14  and  C_15
REMARK    5  A    between atoms: N_14  and  C_16
REMARK    6  A    between atoms: C_16  and  C_18
REMARK    7  A    between atoms: C_16  and  C_19
REMARK    8  A    between atoms: C_23  and  O_25
REMARK                            x       y       z     vdW  Elec       q    Type
REMARK                         _______ _______ _______ _____ _____    ______ ____
ROOT
ATOM      1  N   UNL     1       1.062  -0.645   1.266  0.00  0.00    -0.293 N 
ATOM      2  C   UNL     1       0.240  -0.692   2.333  0.00  0.00    +0.303 C 
ATOM      3  O   UNL     1      -0.917  -0.335   2.224  0.00  0.00    -0.253 OA
ATOM      4  N   UNL     1       0.700  -1.134   3.520  0.00  0.00    -0.282 N 
ATOM      5  C   UNL     1       2.094  -1.564   3.651  0.00  0.00    +0.134 C 
ATOM      6  H   UNL     1       1.986  -0.930   1.353  0.00  0.00    +0.151 HD
ENDROOT
BRANCH   1   8
ATOM      7  C   UNL     1       0.655   1.361  -0.071  0.00  0.00    +0.033 C 
ATOM      8  C   UNL     1       0.562  -0.165  -0.024  0.00  0.00    +0.102 C 
BRANCH   8   9
ATOM      9  C   UNL     1       1.393  -0.753  -1.136  0.00  0.00    -0.026 A 
ATOM     10  C   UNL     1       2.763  -0.872  -0.986  0.00  0.00    +0.005 A 
ATOM     11  C   UNL     1       3.525  -1.411  -2.005  0.00  0.00    +0.002 A 
ATOM     12  C   UNL     1       2.920  -1.832  -3.174  0.00  0.00    +0.020 A 
ATOM     13  C   UNL     1       1.550  -1.713  -3.324  0.00  0.00    +0.041 A 
ATOM     14  C   UNL     1       0.786  -1.179  -2.301  0.00  0.00    +0.025 A 
ATOM     15 CL   UNL     1       0.788  -2.241  -4.792  0.00  0.00    -0.084 Cl
ENDBRANCH   8   9
ENDBRANCH   1   8
BRANCH   4  16
ATOM     16  C   UNL     1      -0.195  -1.184   4.679  0.00  0.00    +0.104 C 
ATOM     17  C   UNL     1       0.309  -0.219   5.754  0.00  0.00    +0.033 C 
BRANCH  16  18
ATOM     18  C   UNL     1      -0.220  -2.585   5.234  0.00  0.00    -0.024 A 
ATOM     19  C   UNL     1      -0.428  -2.790   6.585  0.00  0.00    +0.006 A 
ATOM     20  C   UNL     1      -0.451  -4.074   7.097  0.00  0.00    +0.004 A 
ATOM     21  C   UNL     1      -0.267  -5.156   6.259  0.00  0.00    +0.045 A 
ATOM     22  C   UNL     1      -0.058  -4.954   4.902  0.00  0.00    +0.117 A 
ATOM     23  C   UNL     1      -0.041  -3.664   4.390  0.00  0.00    +0.050 A 
BRANCH  22  24
ATOM     24  O   UNL     1       0.123  -6.017   4.076  0.00  0.00    -0.507 OA
ATOM     25  H   UNL     1      -0.695  -6.365   3.696  0.00  0.00    +0.292 HD
ENDBRANCH  22  24
ENDBRANCH  16  18
ENDBRANCH   4  16
TORSDOF 5
