REMARK  Name = ZINC02618780
REMARK  12 active torsions:
REMARK  status: ('A' for Active; 'I' for Inactive)
REMARK    1  A    between atoms: C_1  and  C_2
REMARK    2  A    between atoms: C_2  and  C_4
REMARK    3  A    between atoms: C_2  and  N_60
REMARK    4  A    between atoms: C_7  and  S_16
REMARK    5  A    between atoms: N_8  and  C_9
REMARK    6  A    between atoms: S_16  and  C_17
REMARK    7  A    between atoms: C_17  and  C_18
REMARK    8  A    between atoms: C_23  and  C_26
REMARK    9  A    between atoms: C_29  and  O_32
REMARK   10  A    between atoms: O_32  and  C_33
REMARK   11  A    between atoms: C_34  and  N_60
REMARK   12  A    between atoms: C_35  and  N_60
REMARK                            x       y       z     vdW  Elec       q    Type
REMARK                         _______ _______ _______ _____ _____    ______ ____
ROOT
ATOM      1  S   UNL     1       1.768  -2.116  -0.026  0.00  0.00    -0.076 S 
ENDROOT
BRANCH   1   5
ATOM      2  C   UNL     1       1.202   1.746   0.000  0.00  0.00    +0.125 A 
ATOM      3  N   UNL     1      -0.015   1.281   0.009  0.00  0.00    -0.135 NA
ATOM      4  N   UNL     1       0.002  -0.004   0.002  0.00  0.00    -0.122 NA
ATOM      5  C   UNL     1       1.242  -0.434  -0.012  0.00  0.00    +0.197 A 
ATOM      6  N   UNL     1       2.049   0.670  -0.014  0.00  0.00    -0.275 N 
BRANCH   6   7
ATOM      7  C   UNL     1       3.452   0.696  -0.027  0.00  0.00    +0.050 A 
ATOM      8  C   UNL     1       4.148   1.216   1.055  0.00  0.00    +0.029 A 
ATOM      9  C   UNL     1       5.529   1.234   1.043  0.00  0.00    +0.040 A 
ATOM     10  C   UNL     1       6.219   0.746  -0.053  0.00  0.00    +0.124 A 
ATOM     11  C   UNL     1       5.526   0.232  -1.137  0.00  0.00    +0.040 A 
ATOM     12  C   UNL     1       4.146   0.206  -1.125  0.00  0.00    +0.029 A 
ATOM     13  F   UNL     1       7.570   0.770  -0.066  0.00  0.00    -0.205 F 
ENDBRANCH   6   7
BRANCH   2  15
ATOM     14  C   UNL     1       1.365   3.797  -1.384  0.00  0.00    -0.005 C 
ATOM     15  C   UNL     1       1.603   3.199   0.004  0.00  0.00    -0.003 C 
BRANCH  15  18
ATOM     16  C   UNL     1       1.243   5.322   1.112  0.00  0.00    -0.096 C 
ATOM     17  C   UNL     1      -0.631   3.855   0.668  0.00  0.00    -0.096 C 
ATOM     18  N   UNL     1       0.803   3.913   1.021  0.00  0.00    +0.382 N 
ATOM     19  H   UNL     1       0.941   3.461   1.932  0.00  0.00    -0.082 HD
ENDBRANCH  15  18
ENDBRANCH   2  15
ENDBRANCH   1   5
BRANCH   1  20
ATOM     20  C   UNL     1       0.161  -2.948  -0.015  0.00  0.00    +0.173 C 
BRANCH  20  21
ATOM     21  C   UNL     1       0.368  -4.441  -0.025  0.00  0.00    +0.229 C 
ATOM     22  O   UNL     1       1.491  -4.897  -0.037  0.00  0.00    -0.275 OA
ATOM     23  N   UNL     1      -0.696  -5.269  -0.019  0.00  0.00    -0.264 N 
ATOM     24  C   UNL     1      -0.505  -6.645  -0.028  0.00  0.00    +0.165 A 
ATOM     25  N   UNL     1      -1.403  -7.613  -0.025  0.00  0.00    -0.225 NA
ATOM     26  C   UNL     1      -1.041  -8.887  -0.035  0.00  0.00    +0.080 A 
ATOM     27  C   UNL     1       0.288  -9.206  -0.049  0.00  0.00    +0.076 A 
ATOM     28  S   UNL     1       1.021  -7.575  -0.055  0.00  0.00    -0.060 S 
ATOM     29  H   UNL     1      -1.595  -4.904  -0.009  0.00  0.00    +0.157 HD
BRANCH  26  30
ATOM     30  C   UNL     1      -2.068  -9.957  -0.031  0.00  0.00    +0.001 A 
ATOM     31  C   UNL     1      -1.681 -11.296  -0.048  0.00  0.00    +0.013 A 
ATOM     32  C   UNL     1      -2.639 -12.289  -0.040  0.00  0.00    +0.046 A 
ATOM     33  C   UNL     1      -3.986 -11.956  -0.025  0.00  0.00    +0.120 A 
ATOM     34  C   UNL     1      -4.375 -10.623  -0.014  0.00  0.00    +0.046 A 
ATOM     35  C   UNL     1      -3.422  -9.626  -0.017  0.00  0.00    +0.013 A 
BRANCH  33  36
ATOM     36  O   UNL     1      -4.927 -12.936  -0.023  0.00  0.00    -0.495 OA
ATOM     37  C   UNL     1      -4.458 -14.286  -0.035  0.00  0.00    +0.277 C 
ENDBRANCH  33  36
ENDBRANCH  26  30
ENDBRANCH  20  21
ENDBRANCH   1  20
TORSDOF 8
