REMARK  Name = ZINC00673615
REMARK  10 active torsions:
REMARK  status: ('A' for Active; 'I' for Inactive)
REMARK    1  A    between atoms: C_1  and  C_2
REMARK    2  A    between atoms: C_2  and  C_34
REMARK    3  A    between atoms: C_6  and  C_14
REMARK    4  A    between atoms: C_8  and  C_12
REMARK    5  A    between atoms: C_9  and  N_11
REMARK    6  A    between atoms: C_17  and  O_22
REMARK    7  A    between atoms: C_18  and  O_20
REMARK    8  A    between atoms: O_20  and  C_21
REMARK    9  A    between atoms: O_22  and  C_23
REMARK   10  A    between atoms: C_23  and  C_24
REMARK                            x       y       z     vdW  Elec       q    Type
REMARK                         _______ _______ _______ _____ _____    ______ ____
ROOT
ATOM      1  C   UNL     1       4.027 -11.560  -1.606  0.00  0.00    +0.012 C 
ATOM      2  C   UNL     1       4.688 -10.464  -0.766  0.00  0.00    -0.021 C 
ATOM      3  C   UNL     1       3.723 -10.001   0.326  0.00  0.00    +0.081 C 
ATOM      4  C   UNL     1       2.475  -9.428  -0.306  0.00  0.00    +0.115 C 
ATOM      5  C   UNL     1       2.531  -8.816  -1.503  0.00  0.00    +0.046 C 
ATOM      6  C   UNL     1       1.284  -8.241  -2.130  0.00  0.00    +0.101 C 
ATOM      7  C   UNL     1       0.062  -8.843  -1.495  0.00  0.00    +0.098 C 
ATOM      8  C   UNL     1       0.149  -9.461  -0.292  0.00  0.00    +0.198 C 
ATOM      9  O   UNL     1       1.315  -9.549   0.366  0.00  0.00    -0.445 OA
ATOM     10  C   UNL     1       3.744  -8.694  -2.207  0.00  0.00    +0.164 C 
ATOM     11  O   UNL     1       3.759  -8.116  -3.275  0.00  0.00    -0.292 OA
ATOM     12  C   UNL     1       5.024  -9.264  -1.658  0.00  0.00    +0.086 C 
ATOM     13  C   UNL     1       5.969 -11.007  -0.130  0.00  0.00    +0.012 C 
ENDROOT
BRANCH   6  14
ATOM     14  C   UNL     1       1.267  -6.747  -1.929  0.00  0.00    -0.031 A 
ATOM     15  C   UNL     1       1.273  -6.223  -0.650  0.00  0.00    +0.008 A 
ATOM     16  C   UNL     1       1.263  -4.854  -0.461  0.00  0.00    +0.050 A 
ATOM     17  C   UNL     1       1.236  -4.003  -1.554  0.00  0.00    +0.162 A 
ATOM     18  C   UNL     1       1.230  -4.531  -2.842  0.00  0.00    +0.162 A 
ATOM     19  C   UNL     1       1.246  -5.904  -3.025  0.00  0.00    +0.054 A 
BRANCH  18  20
ATOM     20  O   UNL     1       1.209  -3.700  -3.918  0.00  0.00    -0.491 OA
ATOM     21  C   UNL     1       1.205  -4.312  -5.210  0.00  0.00    +0.277 C 
ENDBRANCH  18  20
BRANCH  17  22
ATOM     22  O   UNL     1       1.220  -2.656  -1.369  0.00  0.00    -0.484 OA
BRANCH  22  23
ATOM     23  C   UNL     1       1.227  -2.186  -0.020  0.00  0.00    +0.264 C 
BRANCH  23  24
ATOM     24  C   UNL     1       1.208  -0.679  -0.013  0.00  0.00    -0.010 A 
ATOM     25  C   UNL     1       0.002  -0.004   0.002  0.00  0.00    +0.010 A 
ATOM     26  C   UNL     1      -0.017   1.378   0.010  0.00  0.00    +0.039 A 
ATOM     27  C   UNL     1       1.173   2.086   0.002  0.00  0.00    +0.123 A 
ATOM     28  C   UNL     1       2.381   1.408  -0.013  0.00  0.00    +0.039 A 
ATOM     29  C   UNL     1       2.397   0.026  -0.020  0.00  0.00    +0.010 A 
ATOM     30  F   UNL     1       1.156   3.437   0.009  0.00  0.00    -0.205 F 
ENDBRANCH  23  24
ENDBRANCH  22  23
ENDBRANCH  17  22
ENDBRANCH   6  14
BRANCH   8  31
ATOM     31  N   UNL     1      -0.980 -10.008   0.265  0.00  0.00    -0.328 N 
ATOM     32  H   UNL     1      -0.929 -10.453   1.126  0.00  0.00    +0.145 HD
ATOM     33  H   UNL     1      -1.828  -9.951  -0.202  0.00  0.00    +0.145 HD
ENDBRANCH   8  31
BRANCH   7  34
ATOM     34  C   UNL     1      -1.201  -8.764  -2.165  0.00  0.00    +0.101 C 
ATOM     35  N   UNL     1      -2.203  -8.701  -2.697  0.00  0.00    -0.191 NA
ENDBRANCH   7  34
TORSDOF 7
