REMARK  Name = ZINC39660432
REMARK  9 active torsions:
REMARK  status: ('A' for Active; 'I' for Inactive)
REMARK    1  A    between atoms: C_1  and  C_2
REMARK    2  A    between atoms: C_2  and  C_3
REMARK    3  A    between atoms: C_3  and  C_4
REMARK    4  A    between atoms: C_4  and  C_5
REMARK    5  A    between atoms: C_5  and  C_6
REMARK    6  A    between atoms: C_6  and  N_7
REMARK    7  A    between atoms: C_8  and  C_10
REMARK    8  A    between atoms: C_21  and  C_23
REMARK    9  A    between atoms: C_26  and  C_28
REMARK                            x       y       z     vdW  Elec       q    Type
REMARK                         _______ _______ _______ _____ _____    ______ ____
ROOT
ATOM      1  C   UNL     1       3.006  -6.331  -5.199  0.00  0.00    +0.100 C 
ATOM      2  C   UNL     1       4.443  -5.766  -5.257  0.00  0.00    +0.121 C 
ATOM      3  N   UNL     1       5.287  -6.829  -4.662  0.00  0.00    -0.294 N 
ATOM      4  C   UNL     1       4.707  -8.092  -5.177  0.00  0.00    +0.115 C 
ATOM      5  C   UNL     1       3.184  -7.858  -5.151  0.00  0.00    -0.004 C 
ATOM      6  C   UNL     1       2.529  -8.505  -6.367  0.00  0.00    -0.010 C 
ATOM      7  C   UNL     1       2.667 -10.027  -6.266  0.00  0.00    -0.082 C 
ATOM      8  N   UNL     1       2.027 -10.498  -5.032  0.00  0.00    +0.379 N 
ATOM      9  C   UNL     1       2.723  -9.944  -3.865  0.00  0.00    -0.082 C 
ATOM     10  C   UNL     1       2.587  -8.419  -3.863  0.00  0.00    -0.010 C 
ATOM     11  C   UNL     1       6.344  -6.680  -3.839  0.00  0.00    +0.282 C 
ATOM     12  O   UNL     1       6.941  -7.660  -3.432  0.00  0.00    -0.267 OA
ATOM     13  H   UNL     1       1.063 -10.201  -5.020  0.00  0.00    -0.086 HD
ATOM     14  H   UNL     1       2.066 -11.506  -4.998  0.00  0.00    -0.086 HD
ENDROOT
BRANCH  11  15
ATOM     15  C   UNL     1       6.775  -5.340  -3.435  0.00  0.00    +0.190 A 
ATOM     16  C   UNL     1       7.837  -5.046  -2.608  0.00  0.00    +0.055 A 
ATOM     17  C   UNL     1       7.886  -3.654  -2.493  0.00  0.00    +0.051 A 
ATOM     18  C   UNL     1       6.864  -3.152  -3.247  0.00  0.00    +0.139 A 
ATOM     19  O   UNL     1       6.205  -4.176  -3.814  0.00  0.00    -0.450 OA
BRANCH  18  20
ATOM     20  C   UNL     1       6.540  -1.721  -3.415  0.00  0.00    +0.052 A 
ATOM     21  C   UNL     1       6.424  -0.892  -2.297  0.00  0.00    +0.014 A 
ATOM     22  C   UNL     1       6.122   0.443  -2.461  0.00  0.00    +0.001 A 
ATOM     23  C   UNL     1       5.933   0.964  -3.730  0.00  0.00    +0.003 A 
ATOM     24  C   UNL     1       6.045   0.150  -4.843  0.00  0.00    +0.039 A 
ATOM     25  C   UNL     1       6.354  -1.189  -4.694  0.00  0.00    +0.134 A 
ATOM     26  F   UNL     1       6.470  -1.982  -5.782  0.00  0.00    -0.205 F 
ENDBRANCH  18  20
ENDBRANCH  11  15
BRANCH   1  28
ATOM     27  N   UNL     1       0.960  -5.712  -3.956  0.00  0.00    -0.315 N 
ATOM     28  C   UNL     1       2.301  -5.845  -3.959  0.00  0.00    +0.218 C 
ATOM     29  O   UNL     1       2.940  -5.574  -2.965  0.00  0.00    -0.275 OA
ATOM     30  H   UNL     1       0.448  -5.928  -4.751  0.00  0.00    +0.149 HD
BRANCH  27  31
ATOM     31  C   UNL     1       0.274  -5.239  -2.750  0.00  0.00    +0.104 C 
BRANCH  31  32
ATOM     32  C   UNL     1      -1.233  -5.178  -3.011  0.00  0.00    +0.019 C 
BRANCH  32  33
ATOM     33  C   UNL     1      -1.949  -4.685  -1.752  0.00  0.00    +0.002 C 
BRANCH  33  34
ATOM     34  C   UNL     1      -3.455  -4.624  -2.014  0.00  0.00    -0.000 C 
BRANCH  34  36
ATOM     35  C   UNL     1      -5.678  -4.070  -1.016  0.00  0.00    +0.004 C 
ATOM     36  C   UNL     1      -4.171  -4.131  -0.755  0.00  0.00    -0.003 C 
ENDBRANCH  34  36
ENDBRANCH  33  34
ENDBRANCH  32  33
ENDBRANCH  31  32
ENDBRANCH  27  31
ENDBRANCH   1  28
TORSDOF 8
