REMARK  Name = ZINC39466095
REMARK  15 active torsions:
REMARK  status: ('A' for Active; 'I' for Inactive)
REMARK    1  A    between atoms: C_1  and  C_2
REMARK    2  A    between atoms: C_4  and  C_9
REMARK    3  A    between atoms: C_5  and  C_8
REMARK    4  A    between atoms: C_9  and  C_10
REMARK    5  A    between atoms: C_10  and  N_11
REMARK    6  A    between atoms: N_11  and  C_12
REMARK    7  A    between atoms: C_12  and  C_13
REMARK    8  A    between atoms: C_18  and  O_19
REMARK    9  A    between atoms: O_19  and  C_20
REMARK   10  A    between atoms: C_20  and  C_21
REMARK   11  A    between atoms: C_21  and  C_23
REMARK   12  A    between atoms: C_21  and  O_32
REMARK   13  A    between atoms: C_23  and  N_24
REMARK   14  A    between atoms: N_24  and  C_25
REMARK   15  A    between atoms: N_24  and  C_26
REMARK                            x       y       z     vdW  Elec       q    Type
REMARK                         _______ _______ _______ _____ _____    ______ ____
ROOT
ATOM      1  C   UNL     1      -2.191  -1.995  -6.421  0.00  0.00    -0.023 A 
ATOM      2  C   UNL     1      -3.352  -1.340  -6.786  0.00  0.00    +0.005 A 
ATOM      3  C   UNL     1      -3.652  -1.154  -8.122  0.00  0.00    +0.000 A 
ATOM      4  C   UNL     1      -2.791  -1.623  -9.098  0.00  0.00    +0.004 A 
ATOM      5  C   UNL     1      -1.629  -2.278  -8.739  0.00  0.00    +0.046 A 
ATOM      6  C   UNL     1      -1.323  -2.461  -7.398  0.00  0.00    +0.122 A 
ENDROOT
BRANCH   1   7
ATOM      7  C   UNL     1      -1.865  -2.197  -4.964  0.00  0.00    -0.043 C 
BRANCH   7   8
ATOM      8  N   UNL     1      -0.895  -1.182  -4.533  0.00  0.00    +0.382 N 
ATOM      9  H   UNL     1      -1.289  -0.263  -4.665  0.00  0.00    -0.085 HD
ATOM     10  H   UNL     1      -0.052  -1.268  -5.082  0.00  0.00    -0.085 HD
BRANCH   8  11
ATOM     11  C   UNL     1      -0.577  -1.379  -3.113  0.00  0.00    -0.078 C 
BRANCH  11  12
ATOM     12  C   UNL     1       0.433  -0.322  -2.664  0.00  0.00    +0.016 C 
BRANCH  12  15
ATOM     13  C   UNL     1      -0.019   1.526   0.010  0.00  0.00    +0.039 C 
ATOM     14  C   UNL     1       0.002  -0.004   0.002  0.00  0.00    +0.153 C 
ATOM     15  C   UNL     1       0.759  -0.524  -1.207  0.00  0.00    -0.023 C 
ATOM     16  C   UNL     1       1.780  -1.203  -0.679  0.00  0.00    +0.061 C 
ATOM     17  N   UNL     1       1.738  -1.160   0.671  0.00  0.00    -0.159 NA
ATOM     18  N   UNL     1       0.787  -0.521   1.136  0.00  0.00    -0.180 NA
ATOM     19  C   UNL     1       2.837  -1.919  -1.480  0.00  0.00    +0.067 C 
ENDBRANCH  12  15
ENDBRANCH  11  12
ENDBRANCH   8  11
ENDBRANCH   7   8
ENDBRANCH   1   7
BRANCH   6  20
ATOM     20  O   UNL     1      -0.178  -3.100  -7.042  0.00  0.00    -0.489 OA
BRANCH  20  21
ATOM     21  C   UNL     1       0.668  -3.552  -8.100  0.00  0.00    +0.258 C 
BRANCH  21  22
ATOM     22  C   UNL     1       1.899  -4.242  -7.510  0.00  0.00    +0.135 C 
BRANCH  22  23
ATOM     23  O   UNL     1       2.678  -3.288  -6.785  0.00  0.00    -0.390 OA
ATOM     24  H   UNL     1       2.995  -2.550  -7.322  0.00  0.00    +0.210 HD
ENDBRANCH  22  23
BRANCH  22  25
ATOM     25  C   UNL     1       2.743  -4.836  -8.640  0.00  0.00    -0.044 C 
BRANCH  25  26
ATOM     26  N   UNL     1       3.860  -5.600  -8.068  0.00  0.00    +0.381 N 
ATOM     27  C   UNL     1       3.334  -6.755  -7.327  0.00  0.00    -0.096 C 
ATOM     28  H   UNL     1       4.385  -5.009  -7.441  0.00  0.00    -0.082 HD
BRANCH  26  29
ATOM     29  C   UNL     1       4.736  -6.069  -9.149  0.00  0.00    -0.069 C 
ATOM     30  C   UNL     1       5.899  -6.865  -8.554  0.00  0.00    -0.015 C 
ATOM     31  C   UNL     1       6.812  -7.354  -9.680  0.00  0.00    -0.002 C 
ATOM     32  C   UNL     1       7.359  -6.152 -10.451  0.00  0.00    -0.000 C 
ATOM     33  C   UNL     1       6.196  -5.356 -11.047  0.00  0.00    -0.002 C 
ATOM     34  C   UNL     1       5.283  -4.867  -9.921  0.00  0.00    -0.015 C 
ENDBRANCH  26  29
ENDBRANCH  25  26
ENDBRANCH  22  25
ENDBRANCH  21  22
ENDBRANCH  20  21
ENDBRANCH   6  20
TORSDOF 12
