REMARK  Name = ZINC08425775
REMARK  7 active torsions:
REMARK  status: ('A' for Active; 'I' for Inactive)
REMARK    1  A    between atoms: C_1  and  C_2
REMARK    2  A    between atoms: N_4  and  C_33
REMARK    3  A    between atoms: C_7  and  C_9
REMARK    4  A    between atoms: C_9  and  C_10
REMARK    5  A    between atoms: C_9  and  C_19
REMARK    6  A    between atoms: C_21  and  C_32
REMARK    7  A    between atoms: N_23  and  C_26
REMARK                            x       y       z     vdW  Elec       q    Type
REMARK                         _______ _______ _______ _____ _____    ______ ____
ROOT
ATOM      1  C   UNL     1       1.291  -0.651   2.092  0.00  0.00    +0.054 C 
ENDROOT
BRANCH   1   2
ATOM      2  C   UNL     1       1.250   0.779   2.567  0.00  0.00    -0.038 A 
ATOM      3  C   UNL     1       0.210   1.209   3.371  0.00  0.00    +0.008 A 
ATOM      4  C   UNL     1       0.168   2.519   3.809  0.00  0.00    +0.050 A 
ATOM      5  C   UNL     1       1.169   3.405   3.444  0.00  0.00    +0.166 A 
ATOM      6  C   UNL     1       2.216   2.972   2.634  0.00  0.00    +0.166 A 
ATOM      7  C   UNL     1       2.254   1.656   2.203  0.00  0.00    +0.053 A 
ATOM      8  O   UNL     1       3.062   4.021   2.418  0.00  0.00    -0.453 OA
ATOM      9  C   UNL     1       2.311   5.199   2.764  0.00  0.00    +0.466 C 
ATOM     10  O   UNL     1       1.359   4.725   3.735  0.00  0.00    -0.453 OA
ENDBRANCH   1   2
BRANCH   1  17
ATOM     11  C   UNL     1       0.024   1.373  -0.111  0.00  0.00    +0.063 C 
ATOM     12  C   UNL     1       0.038  -0.131  -0.012  0.00  0.00    +0.047 C 
ATOM     13  N   UNL     1       0.058  -0.954  -0.987  0.00  0.00    -0.181 NA
ATOM     14  N   UNL     1       0.068  -2.284  -0.581  0.00  0.00    -0.160 N 
ATOM     15  C   UNL     1       0.055  -2.382   0.765  0.00  0.00    +0.249 C 
ATOM     16  O   UNL     1       0.060  -3.395   1.433  0.00  0.00    -0.273 OA
ATOM     17  C   UNL     1       0.040  -0.949   1.262  0.00  0.00    +0.131 C 
BRANCH  14  18
ATOM     18  C   UNL     1       0.088  -3.379  -1.453  0.00  0.00    +0.060 A 
ATOM     19  C   UNL     1       0.209  -4.668  -0.950  0.00  0.00    +0.025 A 
ATOM     20  C   UNL     1       0.229  -5.745  -1.814  0.00  0.00    +0.002 A 
ATOM     21  C   UNL     1       0.130  -5.542  -3.178  0.00  0.00    +0.000 A 
ATOM     22  C   UNL     1       0.009  -4.260  -3.682  0.00  0.00    +0.002 A 
ATOM     23  C   UNL     1      -0.018  -3.178  -2.824  0.00  0.00    +0.025 A 
ENDBRANCH  14  18
ENDBRANCH   1  17
BRANCH   1  24
ATOM     24  C   UNL     1       1.337  -1.588   3.300  0.00  0.00    +0.131 C 
ATOM     25  C   UNL     1       2.437  -1.174   4.255  0.00  0.00    +0.047 C 
ATOM     26  N   UNL     1       1.881  -0.877   5.364  0.00  0.00    -0.181 NA
ATOM     27  N   UNL     1       0.497  -1.025   5.339  0.00  0.00    -0.160 N 
ATOM     28  C   UNL     1       0.074  -1.455   4.128  0.00  0.00    +0.249 C 
ATOM     29  O   UNL     1      -1.065  -1.683   3.779  0.00  0.00    -0.273 OA
ATOM     30  C   UNL     1       3.912  -1.122   3.952  0.00  0.00    +0.063 C 
BRANCH  27  31
ATOM     31  C   UNL     1      -0.346  -0.765   6.426  0.00  0.00    +0.060 A 
ATOM     32  C   UNL     1      -1.717  -0.949   6.302  0.00  0.00    +0.025 A 
ATOM     33  C   UNL     1      -2.546  -0.691   7.376  0.00  0.00    +0.002 A 
ATOM     34  C   UNL     1      -2.013  -0.250   8.573  0.00  0.00    +0.000 A 
ATOM     35  C   UNL     1      -0.649  -0.065   8.699  0.00  0.00    +0.002 A 
ATOM     36  C   UNL     1       0.187  -0.327   7.631  0.00  0.00    +0.025 A 
ENDBRANCH  27  31
ENDBRANCH   1  24
TORSDOF 5
