REMARK  Name = ZINC39690585
REMARK  7 active torsions:
REMARK  status: ('A' for Active; 'I' for Inactive)
REMARK    1  A    between atoms: C_1  and  C_2
REMARK    2  A    between atoms: C_2  and  C_4
REMARK    3  A    between atoms: C_2  and  O_28
REMARK    4  A    between atoms: C_8  and  C_17
REMARK    5  A    between atoms: N_19  and  C_20
REMARK    6  A    between atoms: C_20  and  C_21
REMARK    7  A    between atoms: O_28  and  C_29
REMARK                            x       y       z     vdW  Elec       q    Type
REMARK                         _______ _______ _______ _____ _____    ______ ____
ROOT
ATOM      1  C   UNL     1       1.038  -0.318   1.594  0.00  0.00    +0.256 C 
ATOM      2  O   UNL     1       2.169  -0.755   1.578  0.00  0.00    -0.272 OA
ATOM      3  N   UNL     1       0.438  -0.042   2.769  0.00  0.00    -0.297 N 
ATOM      4  C   UNL     1      -0.929   0.487   2.988  0.00  0.00    +0.121 C 
ATOM      5  C   UNL     1      -1.449  -0.278   4.226  0.00  0.00    +0.100 C 
ATOM      6  C   UNL     1      -0.182  -0.724   4.973  0.00  0.00    -0.004 C 
ATOM      7  C   UNL     1       0.994  -0.205   4.133  0.00  0.00    +0.115 C 
ATOM      8  C   UNL     1      -0.128  -2.246   5.061  0.00  0.00    -0.010 C 
ATOM      9  C   UNL     1       1.111  -2.663   5.858  0.00  0.00    -0.082 C 
ATOM     10  N   UNL     1       1.051  -2.078   7.202  0.00  0.00    +0.379 N 
ATOM     11  C   UNL     1       1.093  -0.613   7.113  0.00  0.00    -0.082 C 
ATOM     12  C   UNL     1      -0.147  -0.109   6.369  0.00  0.00    -0.010 C 
ATOM     13  H   UNL     1       0.194  -2.361   7.653  0.00  0.00    -0.086 HD
ATOM     14  H   UNL     1       1.837  -2.403   7.745  0.00  0.00    -0.086 HD
ENDROOT
BRANCH   5  15
ATOM     15  C   UNL     1      -2.259  -1.476   3.799  0.00  0.00    +0.218 C 
ATOM     16  O   UNL     1      -2.002  -2.042   2.757  0.00  0.00    -0.275 OA
ATOM     17  N   UNL     1      -3.268  -1.919   4.575  0.00  0.00    -0.311 N 
ATOM     18  H   UNL     1      -3.473  -1.466   5.409  0.00  0.00    +0.149 HD
BRANCH  17  19
ATOM     19  C   UNL     1      -4.054  -3.083   4.161  0.00  0.00    +0.140 C 
BRANCH  19  20
ATOM     20  C   UNL     1      -5.112  -3.369   5.196  0.00  0.00    -0.016 A 
ATOM     21  C   UNL     1      -4.911  -4.367   6.131  0.00  0.00    +0.006 A 
ATOM     22  C   UNL     1      -5.881  -4.629   7.081  0.00  0.00    +0.000 A 
ATOM     23  C   UNL     1      -7.051  -3.893   7.096  0.00  0.00    +0.001 A 
ATOM     24  C   UNL     1      -7.253  -2.895   6.161  0.00  0.00    +0.015 A 
ATOM     25  C   UNL     1      -6.280  -2.629   5.214  0.00  0.00    +0.023 A 
ATOM     26 BR   UNL     1      -6.551  -1.259   3.939  0.00  0.00    -0.050 Br
ENDBRANCH  19  20
ENDBRANCH  17  19
ENDBRANCH   5  15
BRANCH   1  28
ATOM     27  C   UNL     1       0.040   1.414   0.126  0.00  0.00    +0.062 C 
ATOM     28  C   UNL     1       0.303  -0.083   0.299  0.00  0.00    +0.256 C 
BRANCH  28  29
ATOM     29  O   UNL     1       1.096  -0.557  -0.791  0.00  0.00    -0.480 OA
BRANCH  29  30
ATOM     30  C   UNL     1       0.436  -0.919  -1.923  0.00  0.00    +0.122 A 
ATOM     31  C   UNL     1      -0.932  -0.714  -2.024  0.00  0.00    +0.045 A 
ATOM     32  C   UNL     1      -1.601  -1.083  -3.176  0.00  0.00    +0.004 A 
ATOM     33  C   UNL     1      -0.907  -1.655  -4.226  0.00  0.00    +0.000 A 
ATOM     34  C   UNL     1       0.456  -1.861  -4.127  0.00  0.00    +0.004 A 
ATOM     35  C   UNL     1       1.131  -1.488  -2.980  0.00  0.00    +0.045 A 
ENDBRANCH  29  30
ENDBRANCH  28  29
ENDBRANCH   1  28
TORSDOF 6
