REMARK  Name = ZINC44551589
REMARK  6 active torsions:
REMARK  status: ('A' for Active; 'I' for Inactive)
REMARK    1  A    between atoms: C_1  and  C_2
REMARK    2  A    between atoms: C_7  and  C_9
REMARK    3  A    between atoms: C_7  and  C_10
REMARK    4  A    between atoms: C_17  and  C_19
REMARK    5  A    between atoms: N_20  and  N_21
REMARK    6  A    between atoms: C_22  and  C_23
REMARK                            x       y       z     vdW  Elec       q    Type
REMARK                         _______ _______ _______ _____ _____    ______ ____
ROOT
ATOM      1  C   UNL     1      -0.019   1.532   0.011  0.00  0.00    +0.013 C 
ATOM      2  C   UNL     1       0.002  -0.004   0.002  0.00  0.00    -0.014 C 
ATOM      3  C   UNL     1      -1.426  -0.614  -0.024  0.00  0.00    +0.030 C 
ATOM      4  C   UNL     1      -1.087  -2.044  -0.513  0.00  0.00    +0.076 C 
ATOM      5  C   UNL     1      -0.481  -2.795   0.670  0.00  0.00    +0.029 C 
ATOM      6  C   UNL     1       0.727  -2.106   1.280  0.00  0.00    -0.033 C 
ATOM      7  C   UNL     1       0.726  -0.590   1.213  0.00  0.00    +0.014 C 
ATOM      8  C   UNL     1       0.767  -2.497   2.779  0.00  0.00    +0.011 C 
ATOM      9  C   UNL     1       2.013  -2.662   0.653  0.00  0.00    +0.011 C 
ATOM     10  N   UNL     1      -0.052  -1.856  -1.548  0.00  0.00    -0.310 N 
ATOM     11  C   UNL     1       0.625  -0.576  -1.291  0.00  0.00    +0.113 C 
ATOM     12  C   UNL     1       0.228  -2.729  -2.592  0.00  0.00    +0.141 A 
ATOM     13  C   UNL     1      -0.571  -3.856  -2.794  0.00  0.00    +0.154 A 
ATOM     14  N   UNL     1      -0.307  -4.687  -3.785  0.00  0.00    -0.258 NA
ATOM     15  C   UNL     1       0.714  -4.458  -4.590  0.00  0.00    +0.142 A 
ATOM     16  C   UNL     1       1.518  -3.334  -4.396  0.00  0.00    +0.123 A 
ATOM     17  N   UNL     1       1.251  -2.491  -3.399  0.00  0.00    -0.226 NA
ENDROOT
BRANCH  16  18
ATOM     18  C   UNL     1       2.661  -3.078  -5.296  0.00  0.00    +0.137 C 
ATOM     19  N   UNL     1       2.922  -3.909  -6.281  0.00  0.00    -0.263 N 
ATOM     20  N   UNL     1       3.455  -1.967  -5.102  0.00  0.00    -0.342 N 
ATOM     21  H   UNL     1       3.263  -1.354  -4.375  0.00  0.00    +0.144 HD
ATOM     22  H   UNL     1       4.206  -1.799  -5.693  0.00  0.00    +0.144 HD
ATOM     23  H   UNL     1       2.363  -4.690  -6.418  0.00  0.00    +0.190 HD
BRANCH  19  24
ATOM     24  N   UNL     1       3.920  -3.685  -7.067  0.00  0.00    -0.180 NA
ATOM     25  C   UNL     1       4.179  -4.510  -8.047  0.00  0.00    +0.140 C 
BRANCH  25  26
ATOM     26  C   UNL     1       5.317  -4.255  -8.943  0.00  0.00    -0.005 A 
ATOM     27  C   UNL     1       6.128  -3.132  -8.746  0.00  0.00    +0.011 A 
ATOM     28  C   UNL     1       7.193  -2.899  -9.589  0.00  0.00    +0.020 A 
ATOM     29  C   UNL     1       7.461  -3.774 -10.630  0.00  0.00    +0.041 A 
ATOM     30  C   UNL     1       6.662  -4.888 -10.831  0.00  0.00    +0.020 A 
ATOM     31  C   UNL     1       5.597  -5.136  -9.992  0.00  0.00    +0.011 A 
ATOM     32 CL   UNL     1       8.804  -3.472 -11.688  0.00  0.00    -0.084 Cl
ENDBRANCH  25  26
ENDBRANCH  19  24
ENDBRANCH  16  18
TORSDOF 3
