REMARK  Name = ZINC13263812
REMARK  7 active torsions:
REMARK  status: ('A' for Active; 'I' for Inactive)
REMARK    1  A    between atoms: C_1  and  C_2
REMARK    2  A    between atoms: C_5  and  C_13
REMARK    3  A    between atoms: C_10  and  C_11
REMARK    4  A    between atoms: C_13  and  C_14
REMARK    5  A    between atoms: C_14  and  C_15
REMARK    6  A    between atoms: C_15  and  C_35
REMARK    7  A    between atoms: N_25  and  C_26
REMARK                            x       y       z     vdW  Elec       q    Type
REMARK                         _______ _______ _______ _____ _____    ______ ____
ROOT
ATOM      1  C   UNL     1       2.512  -2.781  -0.149  0.00  0.00    +0.104 C 
ATOM      2  N   UNL     1       2.359  -4.053  -0.866  0.00  0.00    -0.323 N 
ATOM      3  C   UNL     1       1.269  -4.863  -0.566  0.00  0.00    +0.041 A 
ATOM      4  C   UNL     1       1.324  -6.239  -0.706  0.00  0.00    +0.024 A 
ATOM      5  C   UNL     1       0.212  -7.002  -0.406  0.00  0.00    +0.002 A 
ATOM      6  C   UNL     1      -0.957  -6.401   0.032  0.00  0.00    +0.001 A 
ATOM      7  C   UNL     1      -1.028  -5.032   0.181  0.00  0.00    +0.015 A 
ATOM      8  C   UNL     1       0.088  -4.250  -0.113  0.00  0.00    +0.058 A 
ATOM      9  C   UNL     1       0.071  -2.787   0.058  0.00  0.00    +0.254 C 
ATOM     10  O   UNL     1      -0.972  -2.207   0.292  0.00  0.00    -0.270 OA
ATOM     11  N   UNL     1       1.223  -2.095  -0.051  0.00  0.00    -0.246 N 
ATOM     12  C   UNL     1       3.504  -1.892  -0.901  0.00  0.00    +0.053 C 
ATOM     13  H   UNL     1       3.006  -4.323  -1.536  0.00  0.00    +0.148 HD
ENDROOT
BRANCH  11  14
ATOM     14  C   UNL     1       1.187  -0.695  -0.066  0.00  0.00    +0.042 A 
ATOM     15  C   UNL     1       0.665  -0.026  -1.165  0.00  0.00    +0.027 A 
ATOM     16  C   UNL     1       0.627   1.355  -1.180  0.00  0.00    +0.051 A 
ATOM     17  C   UNL     1       1.111   2.076  -0.100  0.00  0.00    +0.166 A 
ATOM     18  C   UNL     1       1.635   1.407   1.004  0.00  0.00    +0.168 A 
ATOM     19  C   UNL     1       1.672   0.023   1.019  0.00  0.00    +0.073 A 
ATOM     20  O   UNL     1       2.034   2.332   1.925  0.00  0.00    -0.453 OA
ATOM     21  C   UNL     1       2.134   3.575   1.202  0.00  0.00    +0.466 C 
ATOM     22  O   UNL     1       1.187   3.421   0.128  0.00  0.00    -0.453 OA
ENDBRANCH  11  14
BRANCH   1  23
ATOM     23  C   UNL     1       3.048  -3.055   1.258  0.00  0.00    +0.050 C 
BRANCH  23  24
ATOM     24  C   UNL     1       4.450  -3.659   1.161  0.00  0.00    +0.039 C 
BRANCH  24  29
ATOM     25  C   UNL     1       7.461  -1.027   5.280  0.00  0.00    +0.048 C 
ATOM     26  C   UNL     1       6.951  -2.435   5.452  0.00  0.00    +0.010 A 
ATOM     27  C   UNL     1       6.177  -3.213   4.486  0.00  0.00    +0.024 A 
ATOM     28  C   UNL     1       5.692  -2.963   3.200  0.00  0.00    +0.015 A 
ATOM     29  C   UNL     1       4.979  -3.928   2.546  0.00  0.00    -0.046 A 
ATOM     30  C   UNL     1       4.742  -5.157   3.148  0.00  0.00    +0.007 A 
ATOM     31  C   UNL     1       5.216  -5.425   4.414  0.00  0.00    +0.047 A 
ATOM     32  C   UNL     1       5.940  -4.457   5.101  0.00  0.00    +0.136 A 
ATOM     33  O   UNL     1       6.517  -4.426   6.318  0.00  0.00    -0.448 OA
ATOM     34  C   UNL     1       7.117  -3.237   6.536  0.00  0.00    +0.220 A 
BRANCH  34  35
ATOM     35  C   UNL     1       7.839  -2.867   7.759  0.00  0.00    +0.421 C 
ATOM     36  O   UNL     1       8.347  -1.767   7.856  0.00  0.00    -0.237 OA
ATOM     37  O   UNL     1       7.941  -3.748   8.775  0.00  0.00    -0.237 OA
ENDBRANCH  34  35
ENDBRANCH  24  29
ENDBRANCH  23  24
ENDBRANCH   1  23
TORSDOF 5
