REMARK  Name = ZINC09477062
REMARK  4 active torsions:
REMARK  status: ('A' for Active; 'I' for Inactive)
REMARK    1  A    between atoms: C_1  and  C_2
REMARK    2  A    between atoms: C_10  and  C_12
REMARK    3  A    between atoms: C_22  and  C_25
REMARK    4  A    between atoms: C_28  and  O_31
REMARK                            x       y       z     vdW  Elec       q    Type
REMARK                         _______ _______ _______ _____ _____    ______ ____
ROOT
ATOM      1  C   UNL     1       2.083   0.204   3.157  0.00  0.00    +0.069 C 
ATOM      2  C   UNL     1       3.143   1.082   2.544  0.00  0.00    +0.087 A 
ATOM      3  C   UNL     1       3.281   1.413   1.199  0.00  0.00    +0.049 A 
ATOM      4  C   UNL     1       4.386   2.224   1.157  0.00  0.00    +0.226 A 
ATOM      5  O   UNL     1       4.819   2.329   2.408  0.00  0.00    -0.339 OA
ATOM      6  N   UNL     1       4.121   1.688   3.170  0.00  0.00    -0.081 NA
ATOM      7  N   UNL     1       4.838   2.752  -0.035  0.00  0.00    -0.286 N 
ATOM      8  C   UNL     1       4.357   2.227  -1.211  0.00  0.00    +0.019 C 
ATOM      9  C   UNL     1       3.268   1.430  -1.258  0.00  0.00    +0.024 C 
ATOM     10  C   UNL     1       2.490   1.047  -0.016  0.00  0.00    +0.091 C 
ATOM     11  C   UNL     1       2.803   0.912  -2.481  0.00  0.00    +0.162 C 
ATOM     12  O   UNL     1       1.833   0.180  -2.485  0.00  0.00    -0.292 OA
ATOM     13  C   UNL     1       3.478   1.244  -3.782  0.00  0.00    +0.088 C 
ATOM     14  C   UNL     1       4.145   2.618  -3.658  0.00  0.00    +0.032 C 
ATOM     15  C   UNL     1       5.112   2.578  -2.473  0.00  0.00    +0.059 C 
ATOM     16  H   UNL     1       5.482   3.477  -0.043  0.00  0.00    +0.155 HD
ENDROOT
BRANCH  10  17
ATOM     17  C   UNL     1       1.175   1.783   0.000  0.00  0.00    -0.034 A 
ATOM     18  C   UNL     1      -0.013   1.076   0.008  0.00  0.00    +0.004 A 
ATOM     19  C   UNL     1      -1.219   1.750   0.017  0.00  0.00    +0.002 A 
ATOM     20  C   UNL     1      -1.238   3.132   0.030  0.00  0.00    +0.020 A 
ATOM     21  C   UNL     1      -0.050   3.841   0.023  0.00  0.00    +0.041 A 
ATOM     22  C   UNL     1       1.157   3.165   0.008  0.00  0.00    +0.024 A 
ATOM     23 CL   UNL     1      -0.074   5.576   0.032  0.00  0.00    -0.084 Cl
ENDBRANCH  10  17
BRANCH  14  24
ATOM     24  C   UNL     1       4.904   2.932  -4.922  0.00  0.00    -0.043 A 
ATOM     25  C   UNL     1       5.918   2.092  -5.344  0.00  0.00    +0.007 A 
ATOM     26  C   UNL     1       6.611   2.374  -6.505  0.00  0.00    +0.045 A 
ATOM     27  C   UNL     1       6.296   3.507  -7.242  0.00  0.00    +0.117 A 
ATOM     28  C   UNL     1       5.282   4.351  -6.813  0.00  0.00    +0.045 A 
ATOM     29  C   UNL     1       4.588   4.061  -5.654  0.00  0.00    +0.007 A 
BRANCH  27  30
ATOM     30  O   UNL     1       6.981   3.791  -8.381  0.00  0.00    -0.507 OA
ATOM     31  H   UNL     1       7.765   4.339  -8.243  0.00  0.00    +0.292 HD
ENDBRANCH  27  30
ENDBRANCH  14  24
TORSDOF 3
