REMARK  Name = ZINC09276114
REMARK  12 active torsions:
REMARK  status: ('A' for Active; 'I' for Inactive)
REMARK    1  A    between atoms: C_1  and  C_2
REMARK    2  A    between atoms: N_7  and  S_9
REMARK    3  A    between atoms: S_9  and  C_12
REMARK    4  A    between atoms: C_15  and  C_18
REMARK    5  A    between atoms: C_18  and  N_20
REMARK    6  A    between atoms: N_22  and  C_33
REMARK    7  A    between atoms: C_26  and  C_30
REMARK    8  A    between atoms: C_30  and  C_31
REMARK    9  A    between atoms: C_30  and  C_32
REMARK   10  A    between atoms: C_33  and  C_34
REMARK   11  A    between atoms: C_34  and  O_36
REMARK   12  A    between atoms: O_36  and  C_37
REMARK                            x       y       z     vdW  Elec       q    Type
REMARK                         _______ _______ _______ _____ _____    ______ ____
ROOT
ATOM      1  C   UNL     1      -3.846   3.106   5.067  0.00  0.00    +0.269 C 
ATOM      2  O   UNL     1      -3.212   4.062   5.477  0.00  0.00    -0.268 OA
ENDROOT
BRANCH   1   3
ATOM      3  N   UNL     1      -4.338   2.211   5.930  0.00  0.00    -0.152 NA
ATOM      4  C   UNL     1      -4.135   2.364   7.234  0.00  0.00    +0.167 A 
ATOM      5  N   UNL     1      -4.558   1.568   8.253  0.00  0.00    -0.310 N 
ATOM      6  C   UNL     1      -4.242   1.889   9.560  0.00  0.00    +0.058 A 
ATOM      7  C   UNL     1      -4.580   1.196  10.733  0.00  0.00    +0.027 A 
ATOM      8  C   UNL     1      -4.186   1.663  11.964  0.00  0.00    +0.006 A 
ATOM      9  C   UNL     1      -3.445   2.827  12.087  0.00  0.00    -0.044 A 
ATOM     10  C   UNL     1      -3.098   3.530  10.947  0.00  0.00    +0.021 A 
ATOM     11  C   UNL     1      -3.492   3.064   9.715  0.00  0.00    +0.039 A 
ATOM     12  S   UNL     1      -3.273   3.630   8.047  0.00  0.00    -0.052 S 
BRANCH   9  13
ATOM     13  C   UNL     1      -3.023   3.323  13.446  0.00  0.00    +0.013 C 
ATOM     14  C   UNL     1      -4.264   3.589  14.300  0.00  0.00    +0.012 C 
ATOM     15  C   UNL     1      -2.153   2.264  14.127  0.00  0.00    +0.012 C 
ENDBRANCH   9  13
BRANCH   5  16
ATOM     16  C   UNL     1      -5.345   0.366   7.965  0.00  0.00    +0.244 C 
BRANCH  16  17
ATOM     17  C   UNL     1      -6.345   0.670   6.879  0.00  0.00    +0.327 C 
ATOM     18  O   UNL     1      -6.512   1.809   6.512  0.00  0.00    -0.249 OA
BRANCH  17  19
ATOM     19  O   UNL     1      -7.052  -0.325   6.321  0.00  0.00    -0.467 OA
ATOM     20  C   UNL     1      -7.998   0.041   5.281  0.00  0.00    +0.280 C 
ENDBRANCH  17  19
ENDBRANCH  16  17
ENDBRANCH   5  16
ENDBRANCH   1   3
BRANCH   1  24
ATOM     21  C   UNL     1      -4.495   2.615   0.896  0.00  0.00    +0.106 A 
ATOM     22  C   UNL     1      -5.010   1.690   1.786  0.00  0.00    +0.029 A 
ATOM     23  C   UNL     1      -4.798   1.841   3.142  0.00  0.00    +0.015 A 
ATOM     24  C   UNL     1      -4.072   2.935   3.614  0.00  0.00    +0.039 A 
ATOM     25  C   UNL     1      -3.561   3.867   2.711  0.00  0.00    +0.015 A 
ATOM     26  C   UNL     1      -3.775   3.702   1.358  0.00  0.00    +0.029 A 
BRANCH  21  27
ATOM     27  S   UNL     1      -4.764   2.412  -0.834  0.00  0.00    +0.061 S 
ATOM     28  O   UNL     1      -4.653   3.704  -1.416  0.00  0.00    -0.153 OA
ATOM     29  O   UNL     1      -5.930   1.612  -0.972  0.00  0.00    -0.153 OA
BRANCH  27  35
ATOM     30  C   UNL     1       0.211   2.146  -1.809  0.00  0.00    +0.009 C 
ATOM     31  C   UNL     1      -1.073   1.571  -1.208  0.00  0.00    +0.002 C 
ATOM     32  C   UNL     1      -1.084   0.051  -1.386  0.00  0.00    +0.006 C 
ATOM     33  C   UNL     1      -2.352  -0.529  -0.756  0.00  0.00    +0.017 C 
ATOM     34  C   UNL     1      -3.580   0.050  -1.465  0.00  0.00    +0.109 C 
ATOM     35  N   UNL     1      -3.503   1.517  -1.424  0.00  0.00    -0.176 NA
ATOM     36  C   UNL     1      -2.287   2.174  -1.922  0.00  0.00    +0.112 C 
ENDBRANCH  27  35
ENDBRANCH  21  27
ENDBRANCH   1  24
TORSDOF 8
