REMARK  Name = ZINC03352882
REMARK  10 active torsions:
REMARK  status: ('A' for Active; 'I' for Inactive)
REMARK    1  A    between atoms: C_1  and  C_2
REMARK    2  A    between atoms: C_2  and  C_4
REMARK    3  A    between atoms: C_2  and  N_54
REMARK    4  A    between atoms: N_6  and  C_7
REMARK    5  A    between atoms: C_12  and  O_13
REMARK    6  A    between atoms: O_13  and  C_14
REMARK    7  A    between atoms: C_22  and  C_23
REMARK    8  A    between atoms: C_22  and  N_54
REMARK    9  A    between atoms: C_26  and  S_29
REMARK   10  A    between atoms: S_29  and  N_32
REMARK                            x       y       z     vdW  Elec       q    Type
REMARK                         _______ _______ _______ _____ _____    ______ ____
ROOT
ATOM      1  C   UNL     1      -3.019  -2.851   0.117  0.00  0.00    +0.203 C 
ATOM      2  O   UNL     1      -3.288  -1.669   0.126  0.00  0.00    -0.277 OA
ATOM      3  N   UNL     1      -1.736  -3.249   0.001  0.00  0.00    -0.284 N 
ATOM      4  H   UNL     1      -1.527  -4.192  -0.087  0.00  0.00    +0.155 HD
ENDROOT
BRANCH   3   5
ATOM      5  C   UNL     1      -0.705  -2.301   0.007  0.00  0.00    +0.079 A 
ATOM      6  C   UNL     1      -0.900  -1.077   0.625  0.00  0.00    +0.074 A 
ATOM      7  C   UNL     1       0.118  -0.133   0.635  0.00  0.00    +0.138 A 
ATOM      8  C   UNL     1       1.339  -0.432   0.015  0.00  0.00    +0.031 A 
ATOM      9  C   UNL     1       1.531  -1.663  -0.605  0.00  0.00    +0.059 A 
ATOM     10  C   UNL     1       0.512  -2.596  -0.609  0.00  0.00    +0.142 A 
ATOM     11  C   UNL     1       2.186   0.761   0.203  0.00  0.00    +0.028 A 
ATOM     12  C   UNL     1       3.484   1.092  -0.170  0.00  0.00    +0.012 A 
ATOM     13  C   UNL     1       3.999   2.326   0.168  0.00  0.00    +0.001 A 
ATOM     14  C   UNL     1       3.226   3.232   0.876  0.00  0.00    +0.004 A 
ATOM     15  C   UNL     1       1.937   2.914   1.252  0.00  0.00    +0.047 A 
ATOM     16  C   UNL     1       1.401   1.675   0.920  0.00  0.00    +0.136 A 
ATOM     17  O   UNL     1       0.195   1.114   1.155  0.00  0.00    -0.455 OA
BRANCH  10  18
ATOM     18  O   UNL     1       0.694  -3.801  -1.213  0.00  0.00    -0.493 OA
ATOM     19  C   UNL     1       1.965  -4.035  -1.824  0.00  0.00    +0.277 C 
ENDBRANCH  10  18
ENDBRANCH   3   5
BRANCH   1  21
ATOM     20  C   UNL     1      -4.119  -4.768  -1.007  0.00  0.00    -0.004 C 
ATOM     21  C   UNL     1      -4.118  -3.875   0.236  0.00  0.00    +0.014 C 
BRANCH  21  22
ATOM     22  N   UNL     1      -5.415  -3.183   0.345  0.00  0.00    +0.389 N 
ATOM     23  H   UNL     1      -5.762  -2.961  -0.595  0.00  0.00    -0.084 HD
ATOM     24  H   UNL     1      -5.291  -2.313   0.877  0.00  0.00    -0.084 HD
BRANCH  22  25
ATOM     25  C   UNL     1      -6.397  -4.040   1.036  0.00  0.00    -0.046 C 
BRANCH  25  26
ATOM     26  C   UNL     1      -7.710  -3.307   1.134  0.00  0.00    -0.064 A 
ATOM     27  C   UNL     1      -7.979  -2.513   2.233  0.00  0.00    +0.003 A 
ATOM     28  C   UNL     1      -9.182  -1.838   2.320  0.00  0.00    +0.029 A 
ATOM     29  C   UNL     1     -10.120  -1.964   1.313  0.00  0.00    +0.105 A 
ATOM     30  C   UNL     1      -9.854  -2.762   0.216  0.00  0.00    +0.029 A 
ATOM     31  C   UNL     1      -8.649  -3.434   0.127  0.00  0.00    +0.003 A 
BRANCH  29  32
ATOM     32  S   UNL     1     -11.655  -1.106   1.426  0.00  0.00    +0.056 S 
ATOM     33  O   UNL     1     -11.438   0.004   2.286  0.00  0.00    -0.153 OA
ATOM     34  O   UNL     1     -12.136  -0.958   0.097  0.00  0.00    -0.153 OA
BRANCH  32  35
ATOM     35  N   UNL     1     -12.719  -2.108   2.205  0.00  0.00    -0.204 NA
ATOM     36  H   UNL     1     -12.431  -2.986   2.499  0.00  0.00    +0.144 HD
ATOM     37  H   UNL     1     -13.630  -1.816   2.368  0.00  0.00    +0.144 HD
ENDBRANCH  32  35
ENDBRANCH  29  32
ENDBRANCH  25  26
ENDBRANCH  22  25
ENDBRANCH  21  22
ENDBRANCH   1  21
TORSDOF 8
