REMARK  Name = ZINC11819672
REMARK  10 active torsions:
REMARK  status: ('A' for Active; 'I' for Inactive)
REMARK    1  A    between atoms: C_1  and  C_2
REMARK    2  A    between atoms: C_2  and  C_3
REMARK    3  A    between atoms: C_3  and  C_4
REMARK    4  A    between atoms: C_6  and  C_10
REMARK    5  A    between atoms: C_10  and  N_11
REMARK    6  A    between atoms: N_11  and  C_12
REMARK    7  A    between atoms: C_13  and  C_15
REMARK    8  A    between atoms: C_15  and  C_16
REMARK    9  A    between atoms: C_23  and  C_24
REMARK   10  A    between atoms: C_23  and  N_63
REMARK                            x       y       z     vdW  Elec       q    Type
REMARK                         _______ _______ _______ _____ _____    ______ ____
ROOT
ATOM      1  C   UNL     1       4.286   5.091  -1.429  0.00  0.00    +0.028 C 
ATOM      2  C   UNL     1       4.916   4.909  -2.781  0.00  0.00    +0.200 C 
ATOM      3  O   UNL     1       5.701   5.746  -3.174  0.00  0.00    -0.278 OA
ATOM      4  N   UNL     1       4.648   3.862  -3.569  0.00  0.00    -0.318 N 
ATOM      5  C   UNL     1       3.693   2.819  -3.205  0.00  0.00    +0.085 C 
ATOM      6  C   UNL     1       3.427   2.854  -1.699  0.00  0.00    -0.058 C 
ATOM      7  H   UNL     1       5.109   3.792  -4.419  0.00  0.00    +0.149 HD
ATOM      8  N   UNL     1       3.085   4.241  -1.327  0.00  0.00    +0.391 N 
ATOM      9  H   UNL     1       2.368   4.595  -1.972  0.00  0.00    -0.080 HD
ENDROOT
BRANCH   1  10
ATOM     10  C   UNL     1       3.877   6.554  -1.252  0.00  0.00    +0.090 C 
BRANCH  10  13
ATOM     11  N   UNL     1       2.249   8.127  -2.251  0.00  0.00    -0.299 N 
ATOM     12  C   UNL     1       2.643   9.105  -1.234  0.00  0.00    +0.132 C 
ATOM     13  C   UNL     1       2.826   6.909  -2.273  0.00  0.00    +0.215 C 
ATOM     14  O   UNL     1       2.500   6.098  -3.114  0.00  0.00    -0.276 OA
BRANCH  11  15
ATOM     15  C   UNL     1       1.227   8.471  -3.242  0.00  0.00    +0.164 C 
BRANCH  15  18
ATOM     16  C   UNL     1      -2.126   8.236  -1.735  0.00  0.00    +0.036 A 
ATOM     17  C   UNL     1      -1.016   8.946  -2.042  0.00  0.00    +0.049 A 
ATOM     18  C   UNL     1      -0.133   8.095  -2.714  0.00  0.00    +0.080 A 
ATOM     19  N   UNL     1      -0.689   6.914  -2.800  0.00  0.00    -0.177 NA
ATOM     20  N   UNL     1      -1.948   6.978  -2.189  0.00  0.00    -0.281 N 
ATOM     21  H   UNL     1      -2.600   6.224  -2.104  0.00  0.00    +0.189 HD
BRANCH  16  22
ATOM     22  C   UNL     1      -3.341   8.756  -1.011  0.00  0.00    +0.054 C 
BRANCH  22  24
ATOM     23  C   UNL     1      -4.342   9.204   1.234  0.00  0.00    +0.004 C 
ATOM     24  C   UNL     1      -3.108   8.676   0.499  0.00  0.00    +0.003 C 
ENDBRANCH  22  24
ENDBRANCH  16  22
ENDBRANCH  15  18
ENDBRANCH  11  15
ENDBRANCH  10  13
ENDBRANCH   1  10
BRANCH   8  25
ATOM     25  C   UNL     1       2.551   4.281   0.053  0.00  0.00    -0.041 C 
BRANCH  25  26
ATOM     26  C   UNL     1       1.263   3.501   0.104  0.00  0.00    -0.056 A 
ATOM     27  C   UNL     1       0.073   4.133  -0.096  0.00  0.00    +0.002 A 
ATOM     28  C   UNL     1      -1.129   3.429  -0.053  0.00  0.00    +0.001 A 
ATOM     29  C   UNL     1      -1.148   2.089   0.186  0.00  0.00    +0.008 A 
ATOM     30  C   UNL     1       0.060   1.404   0.403  0.00  0.00    -0.018 A 
ATOM     31  C   UNL     1       1.282   2.120   0.358  0.00  0.00    -0.017 A 
ATOM     32  C   UNL     1       2.490   1.433   0.569  0.00  0.00    +0.009 A 
ATOM     33  C   UNL     1       2.471   0.095   0.813  0.00  0.00    +0.001 A 
ATOM     34  C   UNL     1       1.269  -0.609   0.856  0.00  0.00    +0.001 A 
ATOM     35  C   UNL     1       0.079   0.022   0.657  0.00  0.00    +0.008 A 
ENDBRANCH  25  26
ENDBRANCH   8  25
TORSDOF 8
