REMARK  Name = ZINC09631345
REMARK  6 active torsions:
REMARK  status: ('A' for Active; 'I' for Inactive)
REMARK    1  A    between atoms: C_3  and  S_6
REMARK    2  A    between atoms: S_6  and  N_9
REMARK    3  A    between atoms: N_9  and  C_10
REMARK    4  A    between atoms: C_13  and  C_16
REMARK    5  A    between atoms: N_18  and  N_19
REMARK    6  A    between atoms: C_20  and  C_22
REMARK                            x       y       z     vdW  Elec       q    Type
REMARK                         _______ _______ _______ _____ _____    ______ ____
ROOT
ATOM      1  C   UNL     1      -7.270   1.046   1.607  0.00  0.00    +0.260 C 
ATOM      2  O   UNL     1      -6.772   1.729   2.481  0.00  0.00    -0.269 OA
ATOM      3  N   UNL     1      -6.553   0.727   0.511  0.00  0.00    -0.230 N 
ATOM      4  H   UNL     1      -6.950   0.181  -0.187  0.00  0.00    +0.173 HD
ENDROOT
BRANCH   1   8
ATOM      5  C   UNL     1     -11.265  -0.335   2.006  0.00  0.00    +0.048 A 
ATOM      6  C   UNL     1     -10.697   0.447   3.008  0.00  0.00    +0.025 A 
ATOM      7  C   UNL     1      -9.402   0.895   2.882  0.00  0.00    +0.015 A 
ATOM      8  C   UNL     1      -8.658   0.566   1.746  0.00  0.00    +0.038 A 
ATOM      9  C   UNL     1      -9.233  -0.215   0.739  0.00  0.00    +0.015 A 
ATOM     10  C   UNL     1     -10.527  -0.665   0.874  0.00  0.00    +0.025 A 
BRANCH   5  11
ATOM     11  N   UNL     1     -12.574  -0.788   2.138  0.00  0.00    -0.216 N 
ATOM     12  H   UNL     1     -12.746  -1.715   2.363  0.00  0.00    +0.174 HD
BRANCH  11  13
ATOM     13  S   UNL     1     -13.838   0.257   1.908  0.00  0.00    +0.079 S 
ATOM     14  O   UNL     1     -15.027  -0.504   2.064  0.00  0.00    -0.149 OA
ATOM     15  O   UNL     1     -13.562   1.408   2.695  0.00  0.00    -0.149 OA
BRANCH  13  18
ATOM     16  C   UNL     1     -14.256   0.842  -2.086  0.00  0.00    +0.010 A 
ATOM     17  C   UNL     1     -14.452   0.269  -0.844  0.00  0.00    +0.036 A 
ATOM     18  C   UNL     1     -13.788   0.774   0.225  0.00  0.00    +0.146 A 
ATOM     19  S   UNL     1     -12.855   2.105  -0.515  0.00  0.00    -0.077 S 
ATOM     20  C   UNL     1     -13.406   1.892  -2.200  0.00  0.00    +0.047 A 
ENDBRANCH  13  18
ENDBRANCH  11  13
ENDBRANCH   5  11
ENDBRANCH   1   8
BRANCH   3  21
ATOM     21  N   UNL     1      -5.235   1.182   0.379  0.00  0.00    -0.234 N 
ATOM     22  C   UNL     1      -4.518   0.864  -0.718  0.00  0.00    +0.235 C 
ATOM     23  O   UNL     1      -5.014   0.182  -1.589  0.00  0.00    -0.274 OA
ATOM     24  H   UNL     1      -4.838   1.728   1.076  0.00  0.00    +0.173 HD
BRANCH  22  25
ATOM     25  C   UNL     1      -3.100   1.354  -0.860  0.00  0.00    +0.049 C 
ATOM     26  C   UNL     1      -2.518   0.855  -2.184  0.00  0.00    +0.019 C 
ATOM     27  C   UNL     1      -1.079   1.352  -2.328  0.00  0.00    -0.009 C 
ATOM     28  C   UNL     1      -0.236   0.820  -1.167  0.00  0.00    +0.007 C 
ATOM     29  C   UNL     1      -0.818   1.319   0.157  0.00  0.00    -0.009 C 
ATOM     30  C   UNL     1      -2.258   0.821   0.301  0.00  0.00    +0.019 C 
ATOM     31  C   UNL     1      -0.803   2.849   0.176  0.00  0.00    +0.007 C 
ATOM     32  C   UNL     1      -1.646   3.381  -0.985  0.00  0.00    -0.009 C 
ATOM     33  C   UNL     1      -1.064   2.882  -2.309  0.00  0.00    +0.007 C 
ATOM     34  C   UNL     1      -3.085   2.884  -0.840  0.00  0.00    +0.019 C 
ENDBRANCH  22  25
ENDBRANCH   3  21
TORSDOF 6
