REMARK  Name = ZINC21221313
REMARK  12 active torsions:
REMARK  status: ('A' for Active; 'I' for Inactive)
REMARK    1  A    between atoms: C_1  and  C_2
REMARK    2  A    between atoms: C_2  and  C_3
REMARK    3  A    between atoms: C_3  and  O_4
REMARK    4  A    between atoms: O_4  and  C_5
REMARK    5  A    between atoms: C_10  and  C_11
REMARK    6  A    between atoms: C_16  and  C_21
REMARK    7  A    between atoms: C_24  and  O_29
REMARK    8  A    between atoms: C_25  and  O_27
REMARK    9  A    between atoms: O_27  and  C_28
REMARK   10  A    between atoms: O_29  and  C_30
REMARK   11  A    between atoms: C_30  and  C_31
REMARK   12  A    between atoms: C_30  and  C_32
REMARK                            x       y       z     vdW  Elec       q    Type
REMARK                         _______ _______ _______ _____ _____    ______ ____
ROOT
ATOM      1  C   UNL     1      -2.775   2.625   0.326  0.00  0.00    +0.139 C 
ATOM      2  C   UNL     1      -1.377   3.188   0.239  0.00  0.00    +0.037 C 
ATOM      3  C   UNL     1      -1.022   4.460   0.492  0.00  0.00    +0.017 C 
ATOM      4  C   UNL     1       0.429   4.893   0.371  0.00  0.00    +0.059 C 
ATOM      5  C   UNL     1       1.352   3.734   0.742  0.00  0.00    +0.032 C 
ATOM      6  C   UNL     1       1.058   2.577  -0.220  0.00  0.00    +0.088 C 
ATOM      7  C   UNL     1      -0.398   2.234  -0.123  0.00  0.00    +0.163 C 
ATOM      8  O   UNL     1      -0.750   1.096  -0.368  0.00  0.00    -0.292 OA
ATOM      9  N   UNL     1      -1.883   5.447   0.848  0.00  0.00    -0.316 N 
ATOM     10  C   UNL     1      -2.869   5.330   1.821  0.00  0.00    +0.052 A 
ATOM     11  C   UNL     1      -2.846   6.069   2.991  0.00  0.00    +0.025 A 
ATOM     12  C   UNL     1      -3.885   5.938   3.896  0.00  0.00    +0.002 A 
ATOM     13  C   UNL     1      -4.937   5.079   3.633  0.00  0.00    +0.002 A 
ATOM     14  C   UNL     1      -4.952   4.326   2.471  0.00  0.00    +0.025 A 
ATOM     15  C   UNL     1      -3.902   4.439   1.574  0.00  0.00    +0.049 A 
ATOM     16  N   UNL     1      -3.817   3.622   0.448  0.00  0.00    -0.331 N 
ATOM     17  H   UNL     1      -1.830   6.428   0.353  0.00  0.00    +0.152 HD
ATOM     18  H   UNL     1      -4.559   3.743  -0.356  0.00  0.00    +0.147 HD
ENDROOT
BRANCH   1  24
ATOM     19  C   UNL     1      -3.833   0.733   1.587  0.00  0.00    +0.126 A 
ATOM     20  C   UNL     1      -3.895  -0.112   2.686  0.00  0.00    +0.046 A 
ATOM     21  C   UNL     1      -2.985   0.027   3.716  0.00  0.00    +0.004 A 
ATOM     22  C   UNL     1      -2.008   1.004   3.649  0.00  0.00    +0.001 A 
ATOM     23  C   UNL     1      -1.940   1.844   2.553  0.00  0.00    +0.009 A 
ATOM     24  C   UNL     1      -2.849   1.709   1.521  0.00  0.00    +0.019 A 
BRANCH  19  25
ATOM     25  O   UNL     1      -4.731   0.602   0.576  0.00  0.00    -0.492 OA
BRANCH  25  26
ATOM     26  C   UNL     1      -5.716  -0.424   0.712  0.00  0.00    +0.229 C 
BRANCH  26  28
ATOM     27  C   UNL     1      -7.685  -1.518  -0.368  0.00  0.00    +0.007 C 
ATOM     28  C   UNL     1      -6.631  -0.419  -0.514  0.00  0.00    +0.038 C 
ENDBRANCH  26  28
ENDBRANCH  25  26
ENDBRANCH  19  25
ENDBRANCH   1  24
BRANCH   5  29
ATOM     29  C   UNL     1       2.790   4.162   0.603  0.00  0.00    -0.040 A 
ATOM     30  C   UNL     1       3.259   4.619  -0.615  0.00  0.00    +0.008 A 
ATOM     31  C   UNL     1       4.578   5.013  -0.747  0.00  0.00    +0.050 A 
ATOM     32  C   UNL     1       5.432   4.950   0.341  0.00  0.00    +0.162 A 
ATOM     33  C   UNL     1       4.960   4.490   1.567  0.00  0.00    +0.162 A 
ATOM     34  C   UNL     1       3.637   4.102   1.694  0.00  0.00    +0.053 A 
BRANCH  33  35
ATOM     35  O   UNL     1       5.796   4.427   2.639  0.00  0.00    -0.491 OA
ATOM     36  C   UNL     1       5.242   3.945   3.865  0.00  0.00    +0.277 C 
ENDBRANCH  33  35
BRANCH  32  37
ATOM     37  O   UNL     1       6.729   5.338   0.213  0.00  0.00    -0.486 OA
BRANCH  37  38
ATOM     38  C   UNL     1       7.176   5.684  -1.100  0.00  0.00    +0.167 C 
ATOM     39  C   UNL     1       6.836   7.148  -1.386  0.00  0.00    +0.051 C 
ATOM     40  C   UNL     1       8.690   5.485  -1.192  0.00  0.00    +0.051 C 
ENDBRANCH  37  38
ENDBRANCH  32  37
ENDBRANCH   5  29
TORSDOF 8
