REMARK  Name = ZINC39676240
REMARK  8 active torsions:
REMARK  status: ('A' for Active; 'I' for Inactive)
REMARK    1  A    between atoms: C_1  and  C_2
REMARK    2  A    between atoms: C_2  and  C_3
REMARK    3  A    between atoms: C_3  and  C_4
REMARK    4  A    between atoms: C_3  and  C_6
REMARK    5  A    between atoms: C_4  and  C_5
REMARK    6  A    between atoms: C_10  and  C_19
REMARK    7  A    between atoms: N_21  and  C_22
REMARK    8  A    between atoms: C_22  and  C_23
REMARK                            x       y       z     vdW  Elec       q    Type
REMARK                         _______ _______ _______ _____ _____    ______ ____
ROOT
ATOM      1  C   UNL     1       0.557  -1.958  -1.197  0.00  0.00    +0.219 C 
ATOM      2  O   UNL     1      -0.162  -2.511  -0.391  0.00  0.00    -0.275 OA
ATOM      3  N   UNL     1       1.178  -2.679  -2.152  0.00  0.00    -0.300 N 
ATOM      4  C   UNL     1       2.010  -2.177  -3.271  0.00  0.00    +0.121 C 
ATOM      5  C   UNL     1       3.171  -3.192  -3.378  0.00  0.00    +0.100 C 
ATOM      6  C   UNL     1       2.620  -4.485  -2.755  0.00  0.00    -0.004 C 
ATOM      7  C   UNL     1       1.187  -4.152  -2.317  0.00  0.00    +0.115 C 
ATOM      8  C   UNL     1       2.611  -5.607  -3.789  0.00  0.00    -0.010 C 
ATOM      9  C   UNL     1       2.114  -6.897  -3.130  0.00  0.00    -0.082 C 
ATOM     10  N   UNL     1       2.994  -7.247  -2.008  0.00  0.00    +0.379 N 
ATOM     11  C   UNL     1       2.926  -6.205  -0.976  0.00  0.00    -0.082 C 
ATOM     12  C   UNL     1       3.457  -4.886  -1.544  0.00  0.00    -0.010 C 
ATOM     13  H   UNL     1       2.701  -8.128  -1.615  0.00  0.00    -0.086 HD
ATOM     14  H   UNL     1       3.944  -7.328  -2.340  0.00  0.00    -0.086 HD
ENDROOT
BRANCH   5  15
ATOM     15  C   UNL     1       3.539  -3.417  -4.822  0.00  0.00    +0.219 C 
ATOM     16  O   UNL     1       2.714  -3.236  -5.693  0.00  0.00    -0.275 OA
ATOM     17  N   UNL     1       4.783  -3.820  -5.146  0.00  0.00    -0.308 N 
ATOM     18  H   UNL     1       5.443  -3.965  -4.449  0.00  0.00    +0.149 HD
BRANCH  17  19
ATOM     19  C   UNL     1       5.141  -4.039  -6.550  0.00  0.00    +0.178 C 
BRANCH  19  20
ATOM     20  C   UNL     1       6.578  -4.482  -6.639  0.00  0.00    +0.128 A 
ATOM     21  N   UNL     1       7.101  -4.732  -7.868  0.00  0.00    -0.309 N 
ATOM     22  H   UNL     1       6.547  -4.622  -8.656  0.00  0.00    +0.170 HD
ATOM     23  C   UNL     1       8.387  -5.131  -8.001  0.00  0.00    +0.259 A 
ATOM     24  O   UNL     1       8.868  -5.358  -9.096  0.00  0.00    -0.267 OA
ATOM     25  C   UNL     1       9.180  -5.281  -6.772  0.00  0.00    +0.065 A 
ATOM     26  C   UNL     1      10.513  -5.688  -6.801  0.00  0.00    +0.015 A 
ATOM     27  C   UNL     1      11.210  -5.812  -5.619  0.00  0.00    +0.001 A 
ATOM     28  C   UNL     1      10.595  -5.537  -4.404  0.00  0.00    +0.002 A 
ATOM     29  C   UNL     1       9.279  -5.134  -4.355  0.00  0.00    +0.028 A 
ATOM     30  C   UNL     1       8.552  -5.000  -5.539  0.00  0.00    +0.078 A 
ATOM     31  N   UNL     1       7.256  -4.601  -5.537  0.00  0.00    -0.232 NA
ENDBRANCH  19  20
ENDBRANCH  17  19
ENDBRANCH   5  15
BRANCH   1  32
ATOM     32  C   UNL     1       0.755  -0.466  -1.130  0.00  0.00    +0.075 C 
BRANCH  32  34
ATOM     33  C   UNL     1      -0.110   1.740  -1.924  0.00  0.00    +0.004 C 
ATOM     34  C   UNL     1      -0.377   0.234  -1.884  0.00  0.00    +0.009 C 
ENDBRANCH  32  34
BRANCH  32  35
ATOM     35  C   UNL     1       0.749  -0.015   0.332  0.00  0.00    +0.009 C 
ATOM     36  C   UNL     1       1.963  -0.606   1.053  0.00  0.00    +0.004 C 
ENDBRANCH  32  35
ENDBRANCH   1  32
TORSDOF 6
