REMARK  Name = ZINC12883749
REMARK  8 active torsions:
REMARK  status: ('A' for Active; 'I' for Inactive)
REMARK    1  A    between atoms: C_1  and  C_2
REMARK    2  A    between atoms: C_2  and  C_3
REMARK    3  A    between atoms: C_3  and  C_5
REMARK    4  A    between atoms: C_3  and  C_6
REMARK    5  A    between atoms: C_6  and  C_8
REMARK    6  A    between atoms: C_6  and  N_17
REMARK    7  A    between atoms: N_10  and  C_11
REMARK    8  A    between atoms: C_18  and  C_20
REMARK                            x       y       z     vdW  Elec       q    Type
REMARK                         _______ _______ _______ _____ _____    ______ ____
ROOT
ATOM      1  C   UNL     1      -0.843   1.931  -0.776  0.00  0.00    +0.167 C 
ATOM      2  C   UNL     1      -0.477   1.591   0.676  0.00  0.00    +0.069 C 
ATOM      3  C   UNL     1      -1.468   2.218   1.623  0.00  0.00    -0.015 A 
ATOM      4  C   UNL     1      -1.663   1.903   3.026  0.00  0.00    +0.003 A 
ATOM      5  C   UNL     1      -1.051   0.979   3.879  0.00  0.00    +0.010 A 
ATOM      6  C   UNL     1      -1.490   0.951   5.180  0.00  0.00    +0.001 A 
ATOM      7  C   UNL     1      -2.491   1.792   5.637  0.00  0.00    +0.002 A 
ATOM      8  C   UNL     1      -3.114   2.713   4.814  0.00  0.00    +0.026 A 
ATOM      9  C   UNL     1      -2.689   2.765   3.488  0.00  0.00    +0.047 A 
ATOM     10  N   UNL     1      -3.073   3.535   2.438  0.00  0.00    -0.356 N 
ATOM     11  H   UNL     1      -3.761   4.218   2.470  0.00  0.00    +0.166 HD
ATOM     12  C   UNL     1      -2.349   3.197   1.327  0.00  0.00    +0.046 A 
ATOM     13  C   UNL     1      -2.477   3.794  -0.053  0.00  0.00    +0.155 C 
ATOM     14  N   UNL     1      -1.291   3.327  -0.809  0.00  0.00    -0.273 N 
ATOM     15  C   UNL     1      -0.746   4.378  -1.435  0.00  0.00    +0.248 C 
ATOM     16  O   UNL     1       0.108   4.313  -2.299  0.00  0.00    -0.270 OA
ATOM     17  C   UNL     1      -1.335   5.619  -0.922  0.00  0.00    +0.042 A 
ATOM     18  C   UNL     1      -2.391   5.281  -0.052  0.00  0.00    -0.009 A 
ATOM     19  C   UNL     1      -3.124   6.248   0.600  0.00  0.00    +0.006 A 
ATOM     20  C   UNL     1      -2.783   7.575   0.353  0.00  0.00    +0.000 A 
ATOM     21  C   UNL     1      -1.758   7.915  -0.506  0.00  0.00    +0.001 A 
ATOM     22  C   UNL     1      -1.007   6.954  -1.167  0.00  0.00    +0.013 A 
ENDROOT
BRANCH   1  24
ATOM     23  N   UNL     1      -1.770  -0.309  -1.267  0.00  0.00    -0.302 N 
ATOM     24  C   UNL     1      -1.952   1.026  -1.248  0.00  0.00    +0.235 C 
ATOM     25  O   UNL     1      -3.008   1.500  -1.610  0.00  0.00    -0.274 OA
ATOM     26  H   UNL     1      -0.926  -0.688  -0.977  0.00  0.00    +0.150 HD
BRANCH  23  27
ATOM     27  C   UNL     1      -2.849  -1.188  -1.726  0.00  0.00    +0.162 C 
BRANCH  27  28
ATOM     28  C   UNL     1      -2.680  -2.553  -1.109  0.00  0.00    +0.234 C 
ATOM     29  O   UNL     1      -1.599  -2.895  -0.679  0.00  0.00    -0.274 OA
ATOM     30  N   UNL     1      -3.731  -3.394  -1.037  0.00  0.00    -0.311 N 
ATOM     31  H   UNL     1      -4.576  -3.150  -1.445  0.00  0.00    +0.149 HD
BRANCH  30  32
ATOM     32  C   UNL     1      -3.595  -4.678  -0.343  0.00  0.00    +0.073 C 
ATOM     33  C   UNL     1      -3.016  -5.718  -1.303  0.00  0.00    +0.022 C 
ATOM     34  C   UNL     1      -2.874  -7.058  -0.578  0.00  0.00    +0.002 C 
ATOM     35  C   UNL     1      -4.249  -7.522  -0.092  0.00  0.00    +0.000 C 
ATOM     36  C   UNL     1      -4.829  -6.482   0.868  0.00  0.00    +0.002 C 
ATOM     37  C   UNL     1      -4.970  -5.142   0.143  0.00  0.00    +0.022 C 
ENDBRANCH  30  32
ENDBRANCH  27  28
BRANCH  27  38
ATOM     38  C   UNL     1      -2.796  -1.307  -3.250  0.00  0.00    +0.015 C 
ATOM     39  C   UNL     1      -1.396  -1.748  -3.680  0.00  0.00    +0.010 C 
BRANCH  38  41
ATOM     40  C   UNL     1      -4.577   0.412  -3.588  0.00  0.00    +0.004 C 
ATOM     41  C   UNL     1      -3.119   0.050  -3.878  0.00  0.00    +0.002 C 
ENDBRANCH  38  41
ENDBRANCH  27  38
ENDBRANCH  23  27
ENDBRANCH   1  24
TORSDOF 6
