REMARK  Name = ZINC16648977
REMARK  12 active torsions:
REMARK  status: ('A' for Active; 'I' for Inactive)
REMARK    1  A    between atoms: C_1  and  C_2
REMARK    2  A    between atoms: C_5  and  C_8
REMARK    3  A    between atoms: C_8  and  N_9
REMARK    4  A    between atoms: N_9  and  C_10
REMARK    5  A    between atoms: C_10  and  C_11
REMARK    6  A    between atoms: C_11  and  C_12
REMARK    7  A    between atoms: C_22  and  C_24
REMARK    8  A    between atoms: C_24  and  N_25
REMARK    9  A    between atoms: N_25  and  C_26
REMARK   10  A    between atoms: C_26  and  C_27
REMARK   11  A    between atoms: C_26  and  C_28
REMARK   12  A    between atoms: C_29  and  C_31
REMARK                            x       y       z     vdW  Elec       q    Type
REMARK                         _______ _______ _______ _____ _____    ______ ____
ROOT
ATOM      1  N   UNL     1       0.696  -3.360  -1.167  0.00  0.00    -0.296 N 
ATOM      2  C   UNL     1      -0.433  -3.125  -1.865  0.00  0.00    +0.233 C 
ATOM      3  O   UNL     1      -0.504  -3.451  -3.031  0.00  0.00    -0.274 OA
ENDROOT
BRANCH   1   4
ATOM      4  C   UNL     1       0.745  -3.069   0.267  0.00  0.00    +0.143 C 
BRANCH   4   9
ATOM      5  C   UNL     1       3.024   2.176   1.095  0.00  0.00    +0.044 C 
ATOM      6  C   UNL     1       2.430   0.808   0.879  0.00  0.00    -0.050 A 
ATOM      7  C   UNL     1       1.058   0.654   0.812  0.00  0.00    +0.003 A 
ATOM      8  C   UNL     1       0.512  -0.601   0.614  0.00  0.00    +0.005 A 
ATOM      9  C   UNL     1       1.339  -1.701   0.483  0.00  0.00    -0.030 A 
ATOM     10  C   UNL     1       2.711  -1.546   0.549  0.00  0.00    +0.005 A 
ATOM     11  C   UNL     1       3.256  -0.291   0.747  0.00  0.00    +0.003 A 
ENDBRANCH   4   9
ENDBRANCH   1   4
BRANCH   1  12
ATOM     12  C   UNL     1       1.875  -3.907  -1.844  0.00  0.00    +0.113 C 
BRANCH  12  13
ATOM     13  C   UNL     1       1.829  -5.436  -1.793  0.00  0.00    +0.056 C 
BRANCH  13  14
ATOM     14  C   UNL     1       3.041  -5.998  -2.489  0.00  0.00    -0.021 A 
ATOM     15  C   UNL     1       3.111  -6.404  -3.767  0.00  0.00    +0.087 A 
ATOM     16  N   UNL     1       4.374  -6.853  -4.045  0.00  0.00    -0.360 N 
ATOM     17  H   UNL     1       4.667  -7.194  -4.904  0.00  0.00    +0.165 HD
ATOM     18  C   UNL     1       5.164  -6.752  -2.922  0.00  0.00    +0.047 A 
ATOM     19  C   UNL     1       4.364  -6.213  -1.898  0.00  0.00    +0.003 A 
ATOM     20  C   UNL     1       4.907  -5.995  -0.631  0.00  0.00    +0.010 A 
ATOM     21  C   UNL     1       6.216  -6.308  -0.391  0.00  0.00    +0.001 A 
ATOM     22  C   UNL     1       7.009  -6.841  -1.397  0.00  0.00    +0.002 A 
ATOM     23  C   UNL     1       6.493  -7.064  -2.655  0.00  0.00    +0.026 A 
ENDBRANCH  13  14
ENDBRANCH  12  13
ENDBRANCH   1  12
BRANCH   2  24
ATOM     24  C   UNL     1      -1.606  -2.456  -1.196  0.00  0.00    +0.204 C 
BRANCH  24  25
ATOM     25  N   UNL     1      -2.717  -2.354  -2.146  0.00  0.00    -0.286 N 
ATOM     26  C   UNL     1      -2.833  -1.266  -2.932  0.00  0.00    +0.248 C 
ATOM     27  O   UNL     1      -1.973  -0.406  -2.912  0.00  0.00    -0.270 OA
BRANCH  26  28
ATOM     28  C   UNL     1      -4.004  -1.116  -3.816  0.00  0.00    +0.045 A 
ATOM     29  C   UNL     1      -4.283  -2.075  -4.779  0.00  0.00    +0.014 A 
ATOM     30  C   UNL     1      -5.385  -1.940  -5.614  0.00  0.00    +0.001 A 
ATOM     31  C   UNL     1      -6.219  -0.868  -5.514  0.00  0.00    +0.008 A 
ATOM     32  C   UNL     1      -5.975   0.129  -4.553  0.00  0.00    -0.017 A 
ATOM     33  C   UNL     1      -4.861   0.006  -3.688  0.00  0.00    -0.006 A 
ATOM     34  C   UNL     1      -4.615   1.003  -2.734  0.00  0.00    +0.009 A 
ATOM     35  C   UNL     1      -5.456   2.071  -2.643  0.00  0.00    +0.001 A 
ATOM     36  C   UNL     1      -6.556   2.191  -3.489  0.00  0.00    +0.001 A 
ATOM     37  C   UNL     1      -6.821   1.244  -4.431  0.00  0.00    +0.008 A 
ENDBRANCH  26  28
BRANCH  25  38
ATOM     38  C   UNL     1      -3.701  -3.435  -2.242  0.00  0.00    +0.071 C 
ATOM     39  C   UNL     1      -2.986  -4.747  -2.572  0.00  0.00    +0.028 C 
ATOM     40  C   UNL     1      -4.434  -3.577  -0.907  0.00  0.00    +0.028 C 
ENDBRANCH  25  38
ENDBRANCH  24  25
ENDBRANCH   2  24
TORSDOF 9
