REMARK  Name = ZINC22205681
REMARK  4 active torsions:
REMARK  status: ('A' for Active; 'I' for Inactive)
REMARK    1  A    between atoms: C_4  and  N_10
REMARK    2  A    between atoms: C_5  and  C_7
REMARK    3  A    between atoms: N_25  and  C_28
REMARK    4  A    between atoms: C_33  and  C_34
REMARK                            x       y       z     vdW  Elec       q    Type
REMARK                         _______ _______ _______ _____ _____    ______ ____
ROOT
ATOM      1  N   UNL     1      -3.709   2.944   0.047  0.00  0.00    -0.202 N 
ATOM      2  C   UNL     1      -3.724   3.600  -1.129  0.00  0.00    +0.258 C 
ATOM      3  O   UNL     1      -3.714   2.975  -2.171  0.00  0.00    -0.269 OA
ATOM      4  C   UNL     1      -3.759   5.074  -1.158  0.00  0.00    +0.046 A 
ATOM      5  C   UNL     1      -3.782   5.796  -2.341  0.00  0.00    +0.014 A 
ATOM      6  C   UNL     1      -3.809   7.188  -2.328  0.00  0.00    +0.014 A 
ATOM      7  C   UNL     1      -3.815   7.887  -1.131  0.00  0.00    +0.046 A 
ATOM      8  C   UNL     1      -3.791   7.170   0.088  0.00  0.00    +0.008 A 
ATOM      9  C   UNL     1      -3.763   5.768   0.075  0.00  0.00    +0.008 A 
ATOM     10  C   UNL     1      -3.741   5.051   1.294  0.00  0.00    +0.046 A 
ATOM     11  C   UNL     1      -3.746   5.750   2.490  0.00  0.00    +0.014 A 
ATOM     12  C   UNL     1      -3.773   7.142   2.504  0.00  0.00    +0.014 A 
ATOM     13  C   UNL     1      -3.795   7.864   1.321  0.00  0.00    +0.046 A 
ATOM     14  C   UNL     1      -3.824   9.338   1.292  0.00  0.00    +0.258 C 
ATOM     15  O   UNL     1      -3.829   9.964   2.333  0.00  0.00    -0.269 OA
ATOM     16  N   UNL     1      -3.846   9.994   0.116  0.00  0.00    -0.202 N 
ATOM     17  C   UNL     1      -3.845   9.360  -1.073  0.00  0.00    +0.258 C 
ATOM     18  O   UNL     1      -3.865  10.006  -2.102  0.00  0.00    -0.269 OA
ATOM     19  C   UNL     1      -3.713   3.578   1.236  0.00  0.00    +0.258 C 
ATOM     20  O   UNL     1      -3.694   2.932   2.265  0.00  0.00    -0.269 OA
ENDROOT
BRANCH   1  24
ATOM     21  C   UNL     1      -3.628  -1.227   0.013  0.00  0.00    +0.001 A 
ATOM     22  C   UNL     1      -4.838  -0.552   0.022  0.00  0.00    +0.002 A 
ATOM     23  C   UNL     1      -4.867   0.828   0.030  0.00  0.00    +0.025 A 
ATOM     24  C   UNL     1      -3.681   1.549   0.034  0.00  0.00    +0.057 A 
ATOM     25  C   UNL     1      -2.455   0.869   0.018  0.00  0.00    +0.058 A 
ATOM     26  C   UNL     1      -2.441  -0.528   0.011  0.00  0.00    +0.015 A 
BRANCH  25  27
ATOM     27  C   UNL     1      -1.187   1.624   0.017  0.00  0.00    +0.243 C 
ATOM     28  O   UNL     1      -1.204   2.840   0.023  0.00  0.00    -0.270 OA
ATOM     29  N   UNL     1      -0.011   0.966   0.007  0.00  0.00    -0.325 N 
ATOM     30  H   UNL     1       0.934   1.529   0.006  0.00  0.00    +0.145 HD
ATOM     31  H   UNL     1       0.004  -0.134   0.001  0.00  0.00    +0.145 HD
ENDBRANCH  25  27
ENDBRANCH   1  24
BRANCH  16  32
ATOM     32  C   UNL     1      -3.873  11.389   0.129  0.00  0.00    +0.057 A 
ATOM     33  C   UNL     1      -2.687  12.110   0.133  0.00  0.00    +0.025 A 
ATOM     34  C   UNL     1      -2.717  13.490   0.141  0.00  0.00    +0.002 A 
ATOM     35  C   UNL     1      -3.926  14.165   0.156  0.00  0.00    +0.001 A 
ATOM     36  C   UNL     1      -5.114  13.466   0.158  0.00  0.00    +0.015 A 
ATOM     37  C   UNL     1      -5.099  12.069   0.145  0.00  0.00    +0.058 A 
BRANCH  37  38
ATOM     38  C   UNL     1      -6.367  11.314   0.147  0.00  0.00    +0.243 C 
ATOM     39  O   UNL     1      -6.351  10.098   0.135  0.00  0.00    -0.270 OA
ATOM     40  N   UNL     1      -7.543  11.972   0.162  0.00  0.00    -0.325 N 
ATOM     41  H   UNL     1      -8.489  11.409   0.163  0.00  0.00    +0.145 HD
ATOM     42  H   UNL     1      -7.559  13.072   0.173  0.00  0.00    +0.145 HD
ENDBRANCH  37  38
ENDBRANCH  16  32
TORSDOF 4
