REMARK  Name = ZINC13500998
REMARK  13 active torsions:
REMARK  status: ('A' for Active; 'I' for Inactive)
REMARK    1  A    between atoms: C_1  and  C_2
REMARK    2  A    between atoms: C_2  and  C_3
REMARK    3  A    between atoms: C_3  and  C_4
REMARK    4  A    between atoms: C_4  and  C_6
REMARK    5  A    between atoms: C_4  and  N_75
REMARK    6  A    between atoms: N_10  and  C_11
REMARK    7  A    between atoms: C_16  and  C_17
REMARK    8  A    between atoms: C_16  and  N_75
REMARK    9  A    between atoms: C_17  and  C_18
REMARK   10  A    between atoms: C_22  and  C_24
REMARK   11  A    between atoms: C_25  and  C_26
REMARK   12  A    between atoms: C_25  and  N_75
REMARK   13  A    between atoms: C_32  and  C_38
REMARK                            x       y       z     vdW  Elec       q    Type
REMARK                         _______ _______ _______ _____ _____    ______ ____
ROOT
ATOM      1  N   UNL     1       1.514   1.881   3.216  0.00  0.00    +0.389 N 
ATOM      2  H   UNL     1       1.982   1.643   4.098  0.00  0.00    -0.080 HD
ENDROOT
BRANCH   1   3
ATOM      3  C   UNL     1       0.435   0.901   2.966  0.00  0.00    +0.003 C 
BRANCH   3   4
ATOM      4  C   UNL     1      -0.156   1.104   1.594  0.00  0.00    +0.138 A 
ATOM      5  N   UNL     1       0.504   1.215   0.467  0.00  0.00    -0.115 NA
ATOM      6  N   UNL     1      -0.354   1.376  -0.481  0.00  0.00    -0.023 NA
ATOM      7  N   UNL     1      -1.543   1.371   0.012  0.00  0.00    -0.044 NA
ATOM      8  N   UNL     1      -1.463   1.201   1.288  0.00  0.00    -0.228 N 
BRANCH   8   9
ATOM      9  C   UNL     1      -2.584   1.129   2.229  0.00  0.00    +0.111 C 
ATOM     10  C   UNL     1      -3.536  -0.017   1.829  0.00  0.00    +0.027 C 
ATOM     11  C   UNL     1      -4.949   0.537   2.142  0.00  0.00    +0.002 C 
ATOM     12  C   UNL     1      -4.832   2.026   1.732  0.00  0.00    +0.002 C 
ATOM     13  C   UNL     1      -3.408   2.427   2.167  0.00  0.00    +0.027 C 
ENDBRANCH   8   9
ENDBRANCH   3   4
BRANCH   3  14
ATOM     14  C   UNL     1       1.016  -0.510   3.067  0.00  0.00    -0.008 C 
BRANCH  14  16
ATOM     15  C   UNL     1       1.957  -2.216   4.632  0.00  0.00    +0.004 C 
ATOM     16  C   UNL     1       1.489  -0.765   4.500  0.00  0.00    -0.005 C 
ENDBRANCH  14  16
ENDBRANCH   3  14
ENDBRANCH   1   3
BRANCH   1  17
ATOM     17  C   UNL     1       0.946   3.241   3.325  0.00  0.00    -0.073 C 
BRANCH  17  18
ATOM     18  C   UNL     1       0.132   3.333   4.617  0.00  0.00    +0.016 C 
BRANCH  18  19
ATOM     19  C   UNL     1      -0.325   4.754   4.823  0.00  0.00    -0.049 A 
ATOM     20  C   UNL     1       0.511   5.666   5.440  0.00  0.00    +0.003 A 
ATOM     21  C   UNL     1       0.094   6.970   5.626  0.00  0.00    +0.001 A 
ATOM     22  C   UNL     1      -1.163   7.361   5.202  0.00  0.00    +0.003 A 
ATOM     23  C   UNL     1      -2.000   6.448   4.590  0.00  0.00    -0.050 A 
ATOM     24  C   UNL     1      -1.581   5.144   4.400  0.00  0.00    +0.007 A 
ATOM     25  C   UNL     1      -3.370   6.874   4.128  0.00  0.00    +0.044 C 
ENDBRANCH  18  19
ENDBRANCH  17  18
ENDBRANCH   1  17
BRANCH   1  26
ATOM     26  C   UNL     1       2.503   1.833   2.118  0.00  0.00    -0.037 C 
BRANCH  26  27
ATOM     27  C   UNL     1       3.759   2.534   2.568  0.00  0.00    +0.001 A 
ATOM     28  C   UNL     1       4.770   1.819   3.121  0.00  0.00    +0.017 A 
ATOM     29  C   UNL     1       5.978   2.529   3.544  0.00  0.00    -0.001 A 
ATOM     30  C   UNL     1       7.056   1.845   4.116  0.00  0.00    +0.010 A 
ATOM     31  C   UNL     1       8.168   2.538   4.504  0.00  0.00    +0.001 A 
ATOM     32  C   UNL     1       8.238   3.914   4.337  0.00  0.00    +0.005 A 
ATOM     33  C   UNL     1       7.187   4.608   3.775  0.00  0.00    -0.026 A 
ATOM     34  C   UNL     1       6.045   3.924   3.372  0.00  0.00    +0.052 A 
ATOM     35  N   UNL     1       4.980   4.593   2.808  0.00  0.00    -0.322 N 
ATOM     36  H   UNL     1       5.027   5.555   2.690  0.00  0.00    +0.169 HD
ATOM     37  C   UNL     1       3.876   3.932   2.418  0.00  0.00    +0.251 A 
ATOM     38  O   UNL     1       2.954   4.556   1.922  0.00  0.00    -0.268 OA
ATOM     39  C   UNL     1       7.276   6.102   3.600  0.00  0.00    +0.046 C 
ENDBRANCH  26  27
ENDBRANCH   1  26
TORSDOF 10
