REMARK  Name = ZINC61024914
REMARK  7 active torsions:
REMARK  status: ('A' for Active; 'I' for Inactive)
REMARK    1  A    between atoms: C_1  and  C_2
REMARK    2  A    between atoms: C_4  and  C_28
REMARK    3  A    between atoms: C_9  and  C_10
REMARK    4  A    between atoms: C_10  and  N_11
REMARK    5  A    between atoms: N_14  and  C_15
REMARK    6  A    between atoms: C_15  and  C_16
REMARK    7  A    between atoms: C_16  and  N_22
REMARK                            x       y       z     vdW  Elec       q    Type
REMARK                         _______ _______ _______ _____ _____    ______ ____
ROOT
ATOM      1  N   UNL     1      -0.540   0.123   8.198  0.00  0.00    -0.295 N 
ATOM      2  C   UNL     1      -1.128   0.751   7.160  0.00  0.00    +0.300 C 
ATOM      3  O   UNL     1      -0.448   1.219   6.268  0.00  0.00    -0.253 OA
ATOM      4  N   UNL     1      -2.470   0.861   7.112  0.00  0.00    -0.301 N 
ATOM      5  H   UNL     1      -1.082  -0.250   8.910  0.00  0.00    +0.151 HD
ATOM      6  H   UNL     1      -3.013   0.488   7.825  0.00  0.00    +0.150 HD
ENDROOT
BRANCH   1   7
ATOM      7  C   UNL     1       0.920   0.004   8.250  0.00  0.00    +0.146 C 
BRANCH   7  16
ATOM      8  C   UNL     1       1.384  -2.845   8.177  0.00  0.00    +0.044 C 
ATOM      9  C   UNL     1       1.538  -2.080   9.467  0.00  0.00    -0.039 A 
ATOM     10  C   UNL     1       1.914  -2.744  10.643  0.00  0.00    +0.024 A 
ATOM     11  C   UNL     1       2.050  -2.049  11.797  0.00  0.00    +0.016 A 
ATOM     12  N   UNL     1       1.827  -0.710  11.830  0.00  0.00    -0.326 N 
ATOM     13  H   UNL     1       1.929  -0.227  12.665  0.00  0.00    +0.169 HD
ATOM     14  C   UNL     1       1.465  -0.044  10.717  0.00  0.00    +0.254 A 
ATOM     15  O   UNL     1       1.268   1.159  10.762  0.00  0.00    -0.268 OA
ATOM     16  C   UNL     1       1.319  -0.735   9.501  0.00  0.00    +0.037 A 
ATOM     17  C   UNL     1       2.454  -2.769  13.058  0.00  0.00    +0.063 C 
ENDBRANCH   7  16
ENDBRANCH   1   7
BRANCH   4  18
ATOM     18  C   UNL     1      -3.110   1.544   5.985  0.00  0.00    +0.094 C 
BRANCH  18  19
ATOM     19  C   UNL     1      -4.630   1.416   6.107  0.00  0.00    -0.050 C 
ATOM     20  C   UNL     1      -5.293   2.012   4.864  0.00  0.00    -0.010 C 
ATOM     21  C   UNL     1      -4.913   3.489   4.742  0.00  0.00    -0.001 C 
ATOM     22  C   UNL     1      -5.389   4.243   5.985  0.00  0.00    -0.000 C 
ATOM     23  C   UNL     1      -4.726   3.647   7.228  0.00  0.00    -0.001 C 
ATOM     24  C   UNL     1      -5.106   2.170   7.351  0.00  0.00    -0.010 C 
BRANCH  19  25
ATOM     25  N   UNL     1      -4.994  -0.002   6.224  0.00  0.00    +0.384 N 
ATOM     26  C   UNL     1      -4.499  -0.732   5.051  0.00  0.00    -0.078 C 
ATOM     27  C   UNL     1      -4.805  -2.223   5.207  0.00  0.00    -0.019 C 
ATOM     28  C   UNL     1      -6.319  -2.417   5.329  0.00  0.00    -0.004 C 
ATOM     29  C   UNL     1      -6.836  -1.593   6.511  0.00  0.00    -0.019 C 
ATOM     30  C   UNL     1      -6.455  -0.125   6.307  0.00  0.00    -0.078 C 
ATOM     31  H   UNL     1      -4.578  -0.388   7.059  0.00  0.00    -0.081 HD
ENDBRANCH  19  25
ENDBRANCH  18  19
ENDBRANCH   4  18
TORSDOF 5
