REMARK  Name = ZINC35693044
REMARK  9 active torsions:
REMARK  status: ('A' for Active; 'I' for Inactive)
REMARK    1  A    between atoms: C_1  and  C_2
REMARK    2  A    between atoms: C_2  and  O_3
REMARK    3  A    between atoms: O_3  and  C_4
REMARK    4  A    between atoms: C_4  and  C_6
REMARK    5  A    between atoms: C_7  and  C_33
REMARK    6  A    between atoms: C_11  and  C_13
REMARK    7  A    between atoms: C_19  and  C_22
REMARK    8  A    between atoms: C_23  and  N_25
REMARK    9  A    between atoms: N_25  and  C_26
REMARK                            x       y       z     vdW  Elec       q    Type
REMARK                         _______ _______ _______ _____ _____    ______ ____
ROOT
ATOM      1  C   UNL     1      -2.978  -2.038  -0.527  0.00  0.00    +0.091 C 
ATOM      2  C   UNL     1      -3.087  -3.272  -1.139  0.00  0.00    +0.158 C 
ATOM      3  N   UNL     1      -4.243  -3.667  -1.649  0.00  0.00    -0.220 NA
ATOM      4  C   UNL     1      -5.354  -2.960  -1.628  0.00  0.00    +0.166 C 
ATOM      5  N   UNL     1      -5.457  -1.716  -1.071  0.00  0.00    -0.267 N 
ATOM      6  C   UNL     1      -4.215  -1.172  -0.459  0.00  0.00    +0.150 C 
ATOM      7  C   UNL     1      -6.693  -1.104  -1.129  0.00  0.00    +0.048 C 
ATOM      8  C   UNL     1      -7.699  -1.778  -1.728  0.00  0.00    +0.072 C 
ATOM      9  S   UNL     1      -6.892  -3.290  -2.215  0.00  0.00    -0.060 S 
ENDROOT
BRANCH   6  10
ATOM     10  C   UNL     1      -4.497  -0.879   0.992  0.00  0.00    -0.022 A 
ATOM     11  C   UNL     1      -5.040  -1.859   1.802  0.00  0.00    +0.006 A 
ATOM     12  C   UNL     1      -5.298  -1.590   3.133  0.00  0.00    +0.000 A 
ATOM     13  C   UNL     1      -5.015  -0.342   3.654  0.00  0.00    +0.000 A 
ATOM     14  C   UNL     1      -4.472   0.638   2.844  0.00  0.00    +0.000 A 
ATOM     15  C   UNL     1      -4.209   0.368   1.514  0.00  0.00    +0.006 A 
ENDBRANCH   6  10
BRANCH   2  16
ATOM     16  C   UNL     1      -1.883  -4.174  -1.227  0.00  0.00    +0.435 C 
ATOM     17  F   UNL     1      -0.827  -3.614  -0.501  0.00  0.00    -0.164 F 
ATOM     18  F   UNL     1      -2.201  -5.428  -0.695  0.00  0.00    -0.164 F 
ATOM     19  F   UNL     1      -1.505  -4.317  -2.566  0.00  0.00    -0.164 F 
ENDBRANCH   2  16
BRANCH   7  20
ATOM     20  C   UNL     1      -6.907   0.234  -0.558  0.00  0.00    +0.091 C 
ATOM     21  C   UNL     1      -8.149   0.750  -0.499  0.00  0.00    +0.243 C 
ATOM     22  O   UNL     1      -9.217  -0.013  -0.837  0.00  0.00    -0.270 OA
BRANCH  21  23
ATOM     23  N   UNL     1      -8.336   2.061  -0.092  0.00  0.00    -0.282 N 
ATOM     24  H   UNL     1      -7.569   2.636   0.059  0.00  0.00    +0.155 HD
BRANCH  23  25
ATOM     25  C   UNL     1      -9.630   2.556   0.100  0.00  0.00    +0.034 A 
ATOM     26  C   UNL     1     -10.630   1.720   0.579  0.00  0.00    +0.026 A 
ATOM     27  C   UNL     1     -11.907   2.211   0.769  0.00  0.00    +0.040 A 
ATOM     28  C   UNL     1     -12.190   3.535   0.483  0.00  0.00    +0.124 A 
ATOM     29  C   UNL     1     -11.194   4.371   0.005  0.00  0.00    +0.040 A 
ATOM     30  C   UNL     1      -9.915   3.886  -0.181  0.00  0.00    +0.026 A 
ATOM     31  F   UNL     1     -13.440   4.013   0.669  0.00  0.00    -0.205 F 
ENDBRANCH  23  25
ENDBRANCH  21  23
ENDBRANCH   7  20
BRANCH   1  32
ATOM     32  C   UNL     1      -1.762  -1.606   0.017  0.00  0.00    +0.339 C 
ATOM     33  O   UNL     1      -1.570  -1.683   1.218  0.00  0.00    -0.245 OA
BRANCH  32  34
ATOM     34  O   UNL     1      -0.801  -1.105  -0.790  0.00  0.00    -0.462 OA
BRANCH  34  36
ATOM     35  C   UNL     1       1.364  -0.118  -1.218  0.00  0.00    +0.048 C 
ATOM     36  C   UNL     1       0.451  -0.778  -0.182  0.00  0.00    +0.229 C 
ENDBRANCH  34  36
ENDBRANCH  32  34
ENDBRANCH   1  32
TORSDOF 8
