REMARK  Name = ZINC24032711
REMARK  12 active torsions:
REMARK  status: ('A' for Active; 'I' for Inactive)
REMARK    1  A    between atoms: C_1  and  C_2
REMARK    2  A    between atoms: C_2  and  O_3
REMARK    3  A    between atoms: O_3  and  C_4
REMARK    4  A    between atoms: C_4  and  C_6
REMARK    5  A    between atoms: C_7  and  C_19
REMARK    6  A    between atoms: C_12  and  C_14
REMARK    7  A    between atoms: C_19  and  S_20
REMARK    8  A    between atoms: S_20  and  C_21
REMARK    9  A    between atoms: N_26  and  C_27
REMARK   10  A    between atoms: C_30  and  C_33
REMARK   11  A    between atoms: C_33  and  C_34
REMARK   12  A    between atoms: C_33  and  C_35
REMARK                            x       y       z     vdW  Elec       q    Type
REMARK                         _______ _______ _______ _____ _____    ______ ____
ROOT
ATOM      1  C   UNL     1      -0.699   1.677   3.572  0.00  0.00    +0.082 C 
ATOM      2  C   UNL     1      -0.314   1.175   4.765  0.00  0.00    +0.034 C 
ATOM      3  N   UNL     1      -0.963   1.520   5.916  0.00  0.00    -0.272 N 
ATOM      4  C   UNL     1      -2.011   2.352   5.958  0.00  0.00    +0.304 C 
ATOM      5  O   UNL     1      -2.527   2.595   7.031  0.00  0.00    -0.252 OA
ATOM      6  N   UNL     1      -2.513   2.928   4.848  0.00  0.00    -0.285 N 
ATOM      7  C   UNL     1      -1.880   2.626   3.553  0.00  0.00    +0.179 C 
ATOM      8  H   UNL     1      -0.629   1.107   6.880  0.00  0.00    +0.156 HD
ATOM      9  H   UNL     1      -3.375   3.610   4.893  0.00  0.00    +0.151 HD
ENDROOT
BRANCH   7  10
ATOM     10  C   UNL     1      -1.423   3.926   2.945  0.00  0.00    +0.130 A 
ATOM     11  C   UNL     1      -1.632   4.316   1.674  0.00  0.00    +0.047 A 
ATOM     12  C   UNL     1      -1.037   5.592   1.535  0.00  0.00    +0.041 A 
ATOM     13  C   UNL     1      -0.501   5.904   2.728  0.00  0.00    +0.195 A 
ATOM     14  O   UNL     1      -0.743   4.894   3.580  0.00  0.00    -0.466 OA
ENDBRANCH   7  10
BRANCH   1  15
ATOM     15  C   UNL     1      -0.025   1.325   2.379  0.00  0.00    +0.339 C 
ATOM     16  O   UNL     1      -0.498   0.483   1.639  0.00  0.00    -0.245 OA
BRANCH  15  17
ATOM     17  O   UNL     1       1.143   1.923   2.062  0.00  0.00    -0.462 OA
BRANCH  17  19
ATOM     18  C   UNL     1       3.071   2.300   0.654  0.00  0.00    +0.048 C 
ATOM     19  C   UNL     1       1.769   1.519   0.843  0.00  0.00    +0.229 C 
ENDBRANCH  17  19
ENDBRANCH  15  17
ENDBRANCH   1  15
BRANCH   2  20
ATOM     20  C   UNL     1       0.853   0.224   4.828  0.00  0.00    +0.127 C 
BRANCH  20  21
ATOM     21  S   UNL     1       2.303   1.088   5.491  0.00  0.00    -0.091 S 
BRANCH  21  22
ATOM     22  C   UNL     1       3.565  -0.142   5.501  0.00  0.00    +0.160 A 
ATOM     23  N   UNL     1       3.505  -1.405   5.122  0.00  0.00    -0.133 NA
ATOM     24  N   UNL     1       4.623  -2.201   5.215  0.00  0.00    -0.125 NA
ATOM     25  C   UNL     1       5.749  -1.698   5.682  0.00  0.00    +0.187 A 
ATOM     26  S   UNL     1       5.269  -0.011   6.019  0.00  0.00    -0.024 S 
ATOM     27  N   UNL     1       6.983  -2.315   5.859  0.00  0.00    -0.292 N 
ATOM     28  H   UNL     1       7.803  -1.774   6.354  0.00  0.00    +0.154 HD
BRANCH  27  29
ATOM     29  C   UNL     1       7.181  -3.623   5.407  0.00  0.00    +0.033 A 
ATOM     30  C   UNL     1       8.158  -4.420   5.990  0.00  0.00    +0.023 A 
ATOM     31  C   UNL     1       8.347  -5.714   5.545  0.00  0.00    +0.006 A 
ATOM     32  C   UNL     1       7.573  -6.212   4.513  0.00  0.00    -0.045 A 
ATOM     33  C   UNL     1       6.604  -5.419   3.926  0.00  0.00    +0.006 A 
ATOM     34  C   UNL     1       6.405  -4.126   4.370  0.00  0.00    +0.023 A 
BRANCH  32  35
ATOM     35  C   UNL     1       7.786  -7.622   4.026  0.00  0.00    +0.013 C 
ATOM     36  C   UNL     1       9.222  -7.776   3.520  0.00  0.00    +0.012 C 
ATOM     37  C   UNL     1       7.544  -8.601   5.177  0.00  0.00    +0.012 C 
ENDBRANCH  32  35
ENDBRANCH  27  29
ENDBRANCH  21  22
ENDBRANCH  20  21
ENDBRANCH   2  20
TORSDOF 9
