REMARK  Name = ZINC27552429
REMARK  13 active torsions:
REMARK  status: ('A' for Active; 'I' for Inactive)
REMARK    1  A    between atoms: C_1  and  C_2
REMARK    2  A    between atoms: C_3  and  C_28
REMARK    3  A    between atoms: C_4  and  C_20
REMARK    4  A    between atoms: C_5  and  C_9
REMARK    5  A    between atoms: C_6  and  C_8
REMARK    6  A    between atoms: N_11  and  C_12
REMARK    7  A    between atoms: C_17  and  O_18
REMARK    8  A    between atoms: O_18  and  C_19
REMARK    9  A    between atoms: C_23  and  S_26
REMARK   10  A    between atoms: S_26  and  C_27
REMARK   11  A    between atoms: N_30  and  C_31
REMARK   12  A    between atoms: C_36  and  O_37
REMARK   13  A    between atoms: O_37  and  C_38
REMARK                            x       y       z     vdW  Elec       q    Type
REMARK                         _______ _______ _______ _____ _____    ______ ____
ROOT
ATOM      1  C   UNL     1       2.579   0.876  -7.741  0.00  0.00    +0.061 C 
ATOM      2  C   UNL     1       3.334   0.340  -6.552  0.00  0.00    +0.014 C 
ATOM      3  C   UNL     1       2.862  -0.733  -5.896  0.00  0.00    +0.043 C 
ATOM      4  C   UNL     1       3.576  -1.296  -4.700  0.00  0.00    +0.092 C 
ATOM      5  C   UNL     1       4.983  -0.776  -4.628  0.00  0.00    +0.043 C 
ATOM      6  C   UNL     1       5.372   0.297  -5.334  0.00  0.00    +0.014 C 
ATOM      7  N   UNL     1       4.492   0.952  -6.155  0.00  0.00    -0.321 N 
ATOM      8  C   UNL     1       6.792   0.788  -5.223  0.00  0.00    +0.061 C 
ATOM      9  H   UNL     1       4.720   1.973  -6.494  0.00  0.00    +0.152 HD
ENDROOT
BRANCH   4  10
ATOM     10  C   UNL     1       2.836  -0.902  -3.449  0.00  0.00    -0.035 A 
ATOM     11  C   UNL     1       2.318  -1.878  -2.616  0.00  0.00    +0.005 A 
ATOM     12  C   UNL     1       1.639  -1.520  -1.468  0.00  0.00    +0.015 A 
ATOM     13  C   UNL     1       1.476  -0.177  -1.150  0.00  0.00    +0.008 A 
ATOM     14  C   UNL     1       1.993   0.801  -1.991  0.00  0.00    +0.015 A 
ATOM     15  C   UNL     1       2.676   0.436  -3.134  0.00  0.00    +0.005 A 
BRANCH  13  16
ATOM     16  S   UNL     1       0.611   0.285   0.314  0.00  0.00    -0.129 S 
ATOM     17  C   UNL     1       0.657   2.098   0.298  0.00  0.00    +0.090 C 
ENDBRANCH  13  16
ENDBRANCH   4  10
BRANCH   5  18
ATOM     18  C   UNL     1       5.923  -1.432  -3.795  0.00  0.00    +0.247 C 
ATOM     19  O   UNL     1       7.067  -1.021  -3.727  0.00  0.00    -0.270 OA
ATOM     20  N   UNL     1       5.550  -2.511  -3.079  0.00  0.00    -0.279 N 
ATOM     21  H   UNL     1       4.545  -2.939  -3.212  0.00  0.00    +0.155 HD
BRANCH  20  22
ATOM     22  C   UNL     1       6.441  -3.088  -2.166  0.00  0.00    +0.076 A 
ATOM     23  C   UNL     1       7.457  -2.324  -1.609  0.00  0.00    +0.027 A 
ATOM     24  C   UNL     1       8.333  -2.894  -0.704  0.00  0.00    +0.002 A 
ATOM     25  C   UNL     1       8.206  -4.228  -0.360  0.00  0.00    +0.004 A 
ATOM     26  C   UNL     1       7.200  -4.996  -0.915  0.00  0.00    +0.047 A 
ATOM     27  C   UNL     1       6.315  -4.431  -1.819  0.00  0.00    +0.141 A 
BRANCH  27  28
ATOM     28  O   UNL     1       5.325  -5.186  -2.366  0.00  0.00    -0.493 OA
ATOM     29  C   UNL     1       5.255  -6.555  -1.964  0.00  0.00    +0.277 C 
ENDBRANCH  27  28
ENDBRANCH  20  22
ENDBRANCH   5  18
BRANCH   3  30
ATOM     30  C   UNL     1       1.665  -1.346  -6.341  0.00  0.00    +0.247 C 
ATOM     31  O   UNL     1       1.024  -0.844  -7.246  0.00  0.00    -0.270 OA
ATOM     32  N   UNL     1       1.236  -2.485  -5.761  0.00  0.00    -0.279 N 
ATOM     33  H   UNL     1       1.775  -2.900  -4.897  0.00  0.00    +0.155 HD
BRANCH  32  34
ATOM     34  C   UNL     1       0.103  -3.140  -6.260  0.00  0.00    +0.076 A 
ATOM     35  C   UNL     1      -0.865  -2.426  -6.952  0.00  0.00    +0.027 A 
ATOM     36  C   UNL     1      -1.980  -3.076  -7.447  0.00  0.00    +0.002 A 
ATOM     37  C   UNL     1      -2.139  -4.434  -7.246  0.00  0.00    +0.004 A 
ATOM     38  C   UNL     1      -1.181  -5.151  -6.553  0.00  0.00    +0.047 A 
ATOM     39  C   UNL     1      -0.058  -4.509  -6.058  0.00  0.00    +0.141 A 
BRANCH  39  40
ATOM     40  O   UNL     1       0.884  -5.212  -5.375  0.00  0.00    -0.493 OA
ATOM     41  C   UNL     1       0.653  -6.612  -5.206  0.00  0.00    +0.277 C 
ENDBRANCH  39  40
ENDBRANCH  32  34
ENDBRANCH   3  30
TORSDOF 8
