REMARK  Name = ZINC66451823
REMARK  10 active torsions:
REMARK  status: ('A' for Active; 'I' for Inactive)
REMARK    1  A    between atoms: C_1  and  C_2
REMARK    2  A    between atoms: C_2  and  C_3
REMARK    3  A    between atoms: C_4  and  C_24
REMARK    4  A    between atoms: C_5  and  C_23
REMARK    5  A    between atoms: C_6  and  C_9
REMARK    6  A    between atoms: N_11  and  C_12
REMARK    7  A    between atoms: N_17  and  C_19
REMARK    8  A    between atoms: C_19  and  C_20
REMARK    9  A    between atoms: C_24  and  O_26
REMARK   10  A    between atoms: O_26  and  C_27
REMARK                            x       y       z     vdW  Elec       q    Type
REMARK                         _______ _______ _______ _____ _____    ______ ____
ROOT
ATOM      1  C   UNL     1      -4.418  -1.790   1.620  0.00  0.00    +0.261 C 
ATOM      2  O   UNL     1      -5.491  -2.141   1.166  0.00  0.00    -0.269 OA
ATOM      3  N   UNL     1      -4.200  -1.839   2.950  0.00  0.00    -0.309 N 
ATOM      4  H   UNL     1      -3.345  -1.559   3.311  0.00  0.00    +0.149 HD
ENDROOT
BRANCH   1   8
ATOM      5  C   UNL     1      -1.412  -0.526   0.013  0.00  0.00    +0.031 A 
ATOM      6  C   UNL     1      -2.213  -0.713  -1.098  0.00  0.00    +0.083 A 
ATOM      7  C   UNL     1      -3.451  -1.215  -0.636  0.00  0.00    -0.006 A 
ATOM      8  C   UNL     1      -3.361  -1.313   0.720  0.00  0.00    +0.106 A 
ATOM      9  N   UNL     1      -2.105  -0.893   1.102  0.00  0.00    -0.353 N 
ATOM     10  H   UNL     1      -1.775  -0.865   2.014  0.00  0.00    +0.166 HD
ATOM     11  C   UNL     1      -4.646  -1.573  -1.483  0.00  0.00    +0.047 C 
BRANCH   5  13
ATOM     12  C   UNL     1      -0.019   1.526   0.010  0.00  0.00    +0.010 C 
ATOM     13  C   UNL     1       0.002  -0.004   0.002  0.00  0.00    +0.050 C 
ENDBRANCH   5  13
BRANCH   6  14
ATOM     14  C   UNL     1      -1.847  -0.441  -2.498  0.00  0.00    +0.341 C 
ATOM     15  O   UNL     1      -1.332  -1.312  -3.172  0.00  0.00    -0.245 OA
BRANCH  14  16
ATOM     16  O   UNL     1      -2.081   0.773  -3.033  0.00  0.00    -0.464 OA
ATOM     17  C   UNL     1      -1.700   0.967  -4.396  0.00  0.00    +0.280 C 
ENDBRANCH  14  16
ENDBRANCH   6  14
ENDBRANCH   1   8
BRANCH   3  18
ATOM     18  C   UNL     1      -5.255  -2.315   3.848  0.00  0.00    +0.057 C 
ATOM     19  C   UNL     1      -5.203  -3.843   3.933  0.00  0.00    +0.018 C 
ATOM     20  C   UNL     1      -6.257  -4.325   4.934  0.00  0.00    -0.017 C 
ATOM     21  C   UNL     1      -6.008  -3.659   6.289  0.00  0.00    -0.078 C 
ATOM     22  N   UNL     1      -6.098  -2.201   6.146  0.00  0.00    +0.387 N 
ATOM     23  C   UNL     1      -5.044  -1.723   5.243  0.00  0.00    -0.056 C 
ATOM     24  H   UNL     1      -7.000  -1.956   5.766  0.00  0.00    -0.081 HD
BRANCH  22  25
ATOM     25  C   UNL     1      -5.936  -1.570   7.462  0.00  0.00    +0.018 C 
BRANCH  25  26
ATOM     26  C   UNL     1      -7.091  -1.956   8.350  0.00  0.00    +0.194 C 
ATOM     27  O   UNL     1      -7.964  -2.685   7.927  0.00  0.00    -0.278 OA
ATOM     28  N   UNL     1      -7.155  -1.491   9.613  0.00  0.00    -0.331 N 
ATOM     29  H   UNL     1      -6.457  -0.908   9.951  0.00  0.00    +0.145 HD
ATOM     30  H   UNL     1      -7.899  -1.739  10.184  0.00  0.00    +0.145 HD
ENDBRANCH  25  26
ENDBRANCH  22  25
ENDBRANCH   3  18
TORSDOF 7
