REMARK  Name = ZINC20713592
REMARK  8 active torsions:
REMARK  status: ('A' for Active; 'I' for Inactive)
REMARK    1  A    between atoms: C_1  and  C_2
REMARK    2  A    between atoms: C_2  and  C_3
REMARK    3  A    between atoms: C_3  and  C_5
REMARK    4  A    between atoms: C_3  and  N_6
REMARK    5  A    between atoms: N_6  and  S_7
REMARK    6  A    between atoms: S_7  and  C_10
REMARK    7  A    between atoms: C_23  and  C_26
REMARK    8  A    between atoms: C_31  and  N_32
REMARK                            x       y       z     vdW  Elec       q    Type
REMARK                         _______ _______ _______ _____ _____    ______ ____
ROOT
ATOM      1  C   UNL     1       5.906   3.209  -1.234  0.00  0.00    +0.106 A 
ATOM      2  C   UNL     1       4.969   2.906  -0.263  0.00  0.00    +0.030 A 
ATOM      3  C   UNL     1       4.059   3.865   0.133  0.00  0.00    +0.025 A 
ATOM      4  C   UNL     1       4.080   5.126  -0.450  0.00  0.00    +0.031 A 
ATOM      5  C   UNL     1       5.015   5.434  -1.426  0.00  0.00    -0.018 A 
ATOM      6  C   UNL     1       5.928   4.462  -1.813  0.00  0.00    +0.034 A 
ATOM      7  C   UNL     1       5.080   6.779  -2.077  0.00  0.00    +0.049 C 
ATOM      8  C   UNL     1       4.525   6.742  -3.480  0.00  0.00    -0.023 C 
ATOM      9  C   UNL     1       3.887   7.855  -3.746  0.00  0.00    -0.030 C 
ATOM     10  C   UNL     1       3.934   8.791  -2.554  0.00  0.00    +0.033 C 
ATOM     11  C   UNL     1       4.222   7.837  -1.357  0.00  0.00    +0.029 C 
ATOM     12  C   UNL     1       2.885   7.223  -0.932  0.00  0.00    +0.107 C 
ATOM     13  N   UNL     1       3.146   6.085  -0.044  0.00  0.00    -0.336 N 
ATOM     14  H   UNL     1       2.612   6.002   0.914  0.00  0.00    +0.147 HD
ENDROOT
BRANCH  12  15
ATOM     15  C   UNL     1       2.134   6.751  -2.150  0.00  0.00    +0.003 A 
ATOM     16  C   UNL     1       2.394   5.502  -2.682  0.00  0.00    +0.008 A 
ATOM     17  C   UNL     1       1.702   5.067  -3.796  0.00  0.00    +0.000 A 
ATOM     18  C   UNL     1       0.756   5.885  -4.386  0.00  0.00    +0.002 A 
ATOM     19  C   UNL     1       0.499   7.136  -3.857  0.00  0.00    +0.033 A 
ATOM     20  C   UNL     1       1.188   7.569  -2.739  0.00  0.00    +0.131 A 
BRANCH  20  21
ATOM     21  N   UNL     1       0.913   8.909  -2.174  0.00  0.00    +0.057 N 
ATOM     22  O   UNL     1       0.736   9.859  -2.916  0.00  0.00    -0.126 OA
ATOM     23  O   UNL     1       0.864   9.062  -0.966  0.00  0.00    -0.126 OA
ENDBRANCH  20  21
ENDBRANCH  12  15
BRANCH   1  24
ATOM     24  S   UNL     1       7.072   1.989  -1.740  0.00  0.00    +0.059 S 
ATOM     25  O   UNL     1       6.495   0.726  -1.438  0.00  0.00    -0.153 OA
ATOM     26  O   UNL     1       7.487   2.342  -3.052  0.00  0.00    -0.153 OA
BRANCH  24  27
ATOM     27  N   UNL     1       8.401   2.147  -0.764  0.00  0.00    -0.187 NA
ATOM     28  H   UNL     1       9.312   2.612  -1.169  0.00  0.00    +0.148 HD
BRANCH  27  29
ATOM     29  C   UNL     1       8.292   1.876   0.671  0.00  0.00    +0.073 C 
ATOM     30  C   UNL     1       8.713   0.432   0.950  0.00  0.00    +0.025 C 
BRANCH  29  32
ATOM     31  C   UNL     1       8.709   4.268   1.262  0.00  0.00    +0.005 C 
ATOM     32  C   UNL     1       9.206   2.832   1.441  0.00  0.00    +0.017 C 
ENDBRANCH  29  32
ENDBRANCH  27  29
ENDBRANCH  24  27
ENDBRANCH   1  24
TORSDOF 6
