REMARK  Name = ZINC39946559
REMARK  9 active torsions:
REMARK  status: ('A' for Active; 'I' for Inactive)
REMARK    1  A    between atoms: C_1  and  C_2
REMARK    2  A    between atoms: N_5  and  C_8
REMARK    3  A    between atoms: C_11  and  C_17
REMARK    4  A    between atoms: C_13  and  N_14
REMARK    5  A    between atoms: C_17  and  O_19
REMARK    6  A    between atoms: O_19  and  C_20
REMARK    7  A    between atoms: C_20  and  C_22
REMARK    8  A    between atoms: C_20  and  C_28
REMARK    9  A    between atoms: C_28  and  C_30
REMARK                            x       y       z     vdW  Elec       q    Type
REMARK                         _______ _______ _______ _____ _____    ______ ____
ROOT
ATOM      1  O   UNL     1      -2.553  -7.659   4.413  0.00  0.00    -0.445 OA
ENDROOT
BRANCH   1   2
ATOM      2  C   UNL     1      -2.620  -6.345   4.705  0.00  0.00    +0.340 C 
ATOM      3  O   UNL     1      -3.125  -5.979   5.748  0.00  0.00    -0.245 OA
BRANCH   2   7
ATOM      4  C   UNL     1      -1.067  -3.490   1.981  0.00  0.00    +0.060 A 
ATOM      5  C   UNL     1      -0.999  -4.848   1.683  0.00  0.00    +0.026 A 
ATOM      6  C   UNL     1      -1.499  -5.770   2.559  0.00  0.00    +0.017 A 
ATOM      7  C   UNL     1      -2.080  -5.351   3.760  0.00  0.00    +0.061 A 
ATOM      8  C   UNL     1      -2.150  -3.987   4.061  0.00  0.00    +0.049 A 
ATOM      9  C   UNL     1      -1.640  -3.064   3.176  0.00  0.00    +0.148 A 
BRANCH   4  14
ATOM     10  C   UNL     1       1.515  -1.764  -2.546  0.00  0.00    +0.007 C 
ATOM     11  C   UNL     1       0.761  -1.596  -1.225  0.00  0.00    -0.011 C 
ATOM     12  C   UNL     1       1.556  -2.254  -0.096  0.00  0.00    +0.022 C 
ATOM     13  C   UNL     1       0.815  -2.053   1.230  0.00  0.00    +0.105 C 
ATOM     14  N   UNL     1      -0.557  -2.557   1.085  0.00  0.00    -0.328 N 
ATOM     15  C   UNL     1      -1.381  -2.057  -0.024  0.00  0.00    +0.105 C 
ATOM     16  C   UNL     1      -0.615  -2.258  -1.336  0.00  0.00    +0.022 C 
ENDBRANCH   4  14
BRANCH   9  17
ATOM     17  N   UNL     1      -1.706  -1.620   3.493  0.00  0.00    +0.058 N 
ATOM     18  O   UNL     1      -2.111  -1.255   4.572  0.00  0.00    -0.126 OA
ATOM     19  O   UNL     1      -1.355  -0.804   2.672  0.00  0.00    -0.126 OA
ENDBRANCH   9  17
ENDBRANCH   2   7
ENDBRANCH   1   2
BRANCH   1  20
ATOM     20  C   UNL     1      -3.095  -8.566   5.375  0.00  0.00    +0.277 C 
BRANCH  20  21
ATOM     21  C   UNL     1      -2.020  -8.963   6.353  0.00  0.00    +0.000 A 
ATOM     22  C   UNL     1      -0.713  -9.099   5.926  0.00  0.00    +0.008 A 
ATOM     23  C   UNL     1       0.274  -9.463   6.823  0.00  0.00    +0.000 A 
ATOM     24  C   UNL     1      -0.047  -9.690   8.149  0.00  0.00    +0.000 A 
ATOM     25  C   UNL     1      -1.355  -9.552   8.576  0.00  0.00    +0.000 A 
ATOM     26  C   UNL     1      -2.340  -9.184   7.679  0.00  0.00    +0.008 A 
ENDBRANCH  20  21
BRANCH  20  27
ATOM     27  C   UNL     1      -3.612  -9.794   4.671  0.00  0.00    +0.206 C 
ATOM     28  O   UNL     1      -3.220 -10.064   3.554  0.00  0.00    -0.288 OA
BRANCH  27  29
ATOM     29  C   UNL     1      -4.551 -10.630   5.310  0.00  0.00    +0.027 C 
ATOM     30  C   UNL     1      -5.117 -11.789   4.809  0.00  0.00    +0.006 A 
ATOM     31  C   UNL     1      -4.966 -12.483   3.585  0.00  0.00    +0.010 A 
ATOM     32  C   UNL     1      -5.661 -13.620   3.356  0.00  0.00    +0.001 A 
ATOM     33  C   UNL     1      -6.550 -14.163   4.298  0.00  0.00    +0.002 A 
ATOM     34  C   UNL     1      -6.766 -13.579   5.496  0.00  0.00    +0.026 A 
ATOM     35  C   UNL     1      -6.049 -12.336   5.826  0.00  0.00    +0.043 A 
ATOM     36  N   UNL     1      -6.066 -11.577   6.885  0.00  0.00    -0.380 N 
ATOM     37  C   UNL     1      -5.146 -10.452   6.690  0.00  0.00    +0.152 C 
ATOM     38  H   UNL     1      -6.600 -11.734   7.679  0.00  0.00    +0.160 HD
ENDBRANCH  27  29
ENDBRANCH  20  27
ENDBRANCH   1  20
TORSDOF 8
