REMARK  Name = ZINC39609781
REMARK  4 active torsions:
REMARK  status: ('A' for Active; 'I' for Inactive)
REMARK    1  A    between atoms: C_6  and  C_7
REMARK    2  A    between atoms: C_7  and  N_8
REMARK    3  A    between atoms: C_9  and  C_11
REMARK    4  A    between atoms: C_22  and  C_24
REMARK                            x       y       z     vdW  Elec       q    Type
REMARK                         _______ _______ _______ _____ _____    ______ ____
ROOT
ATOM      1  C   UNL     1      -3.313  -1.943  -3.024  0.00  0.00    +0.100 C 
ATOM      2  C   UNL     1      -2.224  -2.715  -3.802  0.00  0.00    +0.121 C 
ATOM      3  N   UNL     1      -2.623  -4.138  -3.691  0.00  0.00    -0.300 N 
ATOM      4  C   UNL     1      -4.099  -4.119  -3.825  0.00  0.00    +0.115 C 
ATOM      5  C   UNL     1      -4.543  -2.866  -3.044  0.00  0.00    -0.004 C 
ATOM      6  C   UNL     1      -4.941  -3.246  -1.622  0.00  0.00    -0.010 C 
ATOM      7  C   UNL     1      -6.200  -4.118  -1.665  0.00  0.00    -0.082 C 
ATOM      8  N   UNL     1      -7.287  -3.379  -2.318  0.00  0.00    +0.379 N 
ATOM      9  C   UNL     1      -6.933  -3.098  -3.715  0.00  0.00    -0.082 C 
ATOM     10  C   UNL     1      -5.705  -2.183  -3.758  0.00  0.00    -0.010 C 
ATOM     11  C   UNL     1      -1.823  -5.208  -3.510  0.00  0.00    +0.219 C 
ATOM     12  O   UNL     1      -2.304  -6.319  -3.438  0.00  0.00    -0.275 OA
ATOM     13  H   UNL     1      -8.131  -3.931  -2.292  0.00  0.00    -0.086 HD
ATOM     14  H   UNL     1      -7.441  -2.509  -1.830  0.00  0.00    -0.086 HD
ENDROOT
BRANCH  11  15
ATOM     15  C   UNL     1      -0.332  -5.024  -3.395  0.00  0.00    +0.079 C 
ATOM     16  C   UNL     1       0.343  -6.388  -3.204  0.00  0.00    +0.017 C 
ATOM     17  C   UNL     1       1.827  -6.157  -2.913  0.00  0.00    +0.027 C 
ATOM     18  C   UNL     1       2.412  -5.215  -3.925  0.00  0.00    -0.031 C 
ATOM     19  C   UNL     1       1.708  -4.444  -4.689  0.00  0.00    -0.030 C 
ATOM     20  C   UNL     1       0.208  -4.386  -4.677  0.00  0.00    +0.039 C 
ENDBRANCH  11  15
BRANCH   1  22
ATOM     21  N   UNL     1      -3.327  -0.619  -0.934  0.00  0.00    -0.311 N 
ATOM     22  C   UNL     1      -2.867  -1.694  -1.606  0.00  0.00    +0.218 C 
ATOM     23  O   UNL     1      -2.095  -2.460  -1.070  0.00  0.00    -0.275 OA
ATOM     24  H   UNL     1      -3.944  -0.007  -1.364  0.00  0.00    +0.149 HD
BRANCH  21  25
ATOM     25  C   UNL     1      -2.893  -0.377   0.444  0.00  0.00    +0.139 C 
BRANCH  25  31
ATOM     26  C   UNL     1      -4.769   0.806   1.604  0.00  0.00    +0.007 A 
ATOM     27  C   UNL     1      -5.369   1.957   2.081  0.00  0.00    +0.022 A 
ATOM     28  C   UNL     1      -4.747   3.181   1.916  0.00  0.00    +0.059 A 
ATOM     29  C   UNL     1      -3.522   3.253   1.273  0.00  0.00    +0.060 A 
ATOM     30  C   UNL     1      -2.923   2.101   0.797  0.00  0.00    +0.026 A 
ATOM     31  C   UNL     1      -3.547   0.878   0.963  0.00  0.00    -0.029 A 
ATOM     32 CL   UNL     1      -2.740   4.788   1.064  0.00  0.00    -0.082 Cl
ATOM     33 CL   UNL     1      -5.500   4.626   2.513  0.00  0.00    -0.082 Cl
ENDBRANCH  25  31
ENDBRANCH  21  25
ENDBRANCH   1  22
TORSDOF 4
