REMARK  Name = ZINC03984874
REMARK  6 active torsions:
REMARK  status: ('A' for Active; 'I' for Inactive)
REMARK    1  A    between atoms: C_1  and  C_2
REMARK    2  A    between atoms: C_4  and  C_29
REMARK    3  A    between atoms: C_5  and  N_9
REMARK    4  A    between atoms: C_6  and  C_8
REMARK    5  A    between atoms: C_12  and  C_19
REMARK    6  A    between atoms: C_13  and  O_18
REMARK                            x       y       z     vdW  Elec       q    Type
REMARK                         _______ _______ _______ _____ _____    ______ ____
ROOT
ATOM      1  N   UNL     1      -0.850   4.264  -3.125  0.00  0.00    -0.228 N 
ATOM      2  C   UNL     1       0.133   3.848  -2.303  0.00  0.00    +0.267 A 
ATOM      3  O   UNL     1       1.119   3.294  -2.757  0.00  0.00    -0.267 OA
ATOM      4  C   UNL     1       0.012   4.056  -0.917  0.00  0.00    +0.067 A 
ATOM      5  C   UNL     1      -1.104   4.672  -0.434  0.00  0.00    +0.201 A 
ATOM      6  N   UNL     1      -2.078   5.085  -1.308  0.00  0.00    -0.278 N 
ATOM      7  H   UNL     1      -2.895   5.544  -0.959  0.00  0.00    +0.173 HD
ATOM      8  C   UNL     1      -1.942   4.876  -2.630  0.00  0.00    +0.337 A 
ATOM      9  O   UNL     1      -2.817   5.245  -3.388  0.00  0.00    -0.246 OA
ENDROOT
BRANCH   4  10
ATOM     10  C   UNL     1       1.099   3.598   0.021  0.00  0.00    +0.001 C 
ATOM     11  C   UNL     1       1.171   2.094   0.002  0.00  0.00    -0.054 A 
ATOM     12  C   UNL     1      -0.017   1.376   0.010  0.00  0.00    +0.002 A 
ATOM     13  C   UNL     1       0.002  -0.004   0.002  0.00  0.00    +0.000 A 
ATOM     14  C   UNL     1       1.210  -0.676  -0.014  0.00  0.00    +0.000 A 
ATOM     15  C   UNL     1       2.392   0.036  -0.024  0.00  0.00    +0.004 A 
ATOM     16  C   UNL     1       2.375   1.423  -0.017  0.00  0.00    -0.047 A 
ATOM     17  C   UNL     1       3.690   2.159  -0.034  0.00  0.00    +0.016 C 
ATOM     18  C   UNL     1       3.481   3.612   0.393  0.00  0.00    -0.077 C 
ATOM     19  N   UNL     1       2.379   4.182  -0.404  0.00  0.00    +0.387 N 
ATOM     20  H   UNL     1       2.351   5.199  -0.268  0.00  0.00    -0.085 HD
ATOM     21  H   UNL     1       2.534   3.974  -1.397  0.00  0.00    -0.085 HD
ENDBRANCH   4  10
BRANCH   1  26
ATOM     22  C   UNL     1      -0.383   3.436  -8.720  0.00  0.00    +0.044 C 
ATOM     23  C   UNL     1      -0.507   3.656  -7.234  0.00  0.00    -0.050 A 
ATOM     24  C   UNL     1      -1.107   2.694  -6.442  0.00  0.00    +0.008 A 
ATOM     25  C   UNL     1      -1.222   2.893  -5.080  0.00  0.00    -0.026 A 
ATOM     26  C   UNL     1      -0.734   4.060  -4.507  0.00  0.00    +0.060 A 
ATOM     27  C   UNL     1      -0.137   5.025  -5.306  0.00  0.00    -0.026 A 
ATOM     28  C   UNL     1      -0.020   4.819  -6.666  0.00  0.00    +0.008 A 
ATOM     29  C   UNL     1       0.388   6.296  -4.688  0.00  0.00    +0.046 C 
ATOM     30  C   UNL     1      -1.877   1.845  -4.218  0.00  0.00    +0.046 C 
ENDBRANCH   1  26
BRANCH   5  31
ATOM     31  O   UNL     1      -1.247   4.878   0.892  0.00  0.00    -0.493 OA
ATOM     32  H   UNL     1      -2.072   5.321   1.134  0.00  0.00    +0.294 HD
ENDBRANCH   5  31
TORSDOF 3
