REMARK  Name = ZINC39882598
REMARK  5 active torsions:
REMARK  status: ('A' for Active; 'I' for Inactive)
REMARK    1  A    between atoms: C_1  and  C_2
REMARK    2  A    between atoms: C_5  and  N_11
REMARK    3  A    between atoms: C_7  and  N_8
REMARK    4  A    between atoms: C_12  and  C_14
REMARK    5  A    between atoms: C_14  and  C_15
REMARK                            x       y       z     vdW  Elec       q    Type
REMARK                         _______ _______ _______ _____ _____    ______ ____
ROOT
ATOM      1  N   UNL     1       0.442  -4.255  -0.310  0.00  0.00    -0.285 N 
ATOM      2  C   UNL     1       0.446  -4.750  -1.564  0.00  0.00    +0.222 C 
ATOM      3  O   UNL     1       0.165  -4.033  -2.501  0.00  0.00    -0.275 OA
ATOM      4  H   UNL     1       0.601  -4.843   0.444  0.00  0.00    +0.155 HD
ENDROOT
BRANCH   1   9
ATOM      5  C   UNL     1      -0.508   1.272   0.552  0.00  0.00    +0.046 C 
ATOM      6  C   UNL     1      -0.256  -0.196   0.323  0.00  0.00    -0.020 A 
ATOM      7  C   UNL     1      -0.900  -0.854  -0.710  0.00  0.00    +0.007 A 
ATOM      8  C   UNL     1      -0.670  -2.199  -0.922  0.00  0.00    +0.024 A 
ATOM      9  C   UNL     1       0.207  -2.892  -0.098  0.00  0.00    +0.036 A 
ATOM     10  C   UNL     1       0.852  -2.228   0.938  0.00  0.00    +0.056 A 
ATOM     11  C   UNL     1       0.622  -0.881   1.142  0.00  0.00    +0.131 A 
BRANCH  11  12
ATOM     12  N   UNL     1       1.313  -0.172   2.242  0.00  0.00    +0.057 N 
ATOM     13  O   UNL     1       1.692   0.965   2.084  0.00  0.00    -0.126 OA
ATOM     14  O   UNL     1       1.499  -0.730   3.298  0.00  0.00    -0.126 OA
ENDBRANCH  11  12
ENDBRANCH   1   9
BRANCH   2  15
ATOM     15  C   UNL     1       0.800  -6.196  -1.801  0.00  0.00    +0.135 C 
BRANCH  15  16
ATOM     16  C   UNL     1       0.730  -6.494  -3.277  0.00  0.00    +0.007 A 
ATOM     17  C   UNL     1      -0.312  -7.005  -3.946  0.00  0.00    +0.200 A 
ATOM     18  O   UNL     1      -0.008  -7.133  -5.250  0.00  0.00    -0.463 OA
ATOM     19  C   UNL     1       1.249  -6.711  -5.494  0.00  0.00    +0.135 A 
ATOM     20  C   UNL     1       1.788  -6.278  -4.271  0.00  0.00    +0.025 A 
ATOM     21  C   UNL     1       3.088  -5.777  -4.216  0.00  0.00    +0.027 A 
ATOM     22  C   UNL     1       3.839  -5.707  -5.370  0.00  0.00    +0.019 A 
ATOM     23  C   UNL     1       3.306  -6.131  -6.579  0.00  0.00    +0.019 A 
ATOM     24  C   UNL     1       2.024  -6.635  -6.644  0.00  0.00    +0.048 A 
ATOM     25 BR   UNL     1       5.603  -5.028  -5.305  0.00  0.00    -0.050 Br
ENDBRANCH  15  16
ENDBRANCH   2  15
TORSDOF 4
