REMARK  Name = ZINC13065520
REMARK  9 active torsions:
REMARK  status: ('A' for Active; 'I' for Inactive)
REMARK    1  A    between atoms: C_1  and  C_2
REMARK    2  A    between atoms: C_12  and  C_14
REMARK    3  A    between atoms: C_14  and  N_60
REMARK    4  A    between atoms: C_15  and  C_16
REMARK    5  A    between atoms: C_15  and  N_60
REMARK    6  A    between atoms: C_23  and  C_24
REMARK    7  A    between atoms: C_23  and  N_60
REMARK    8  A    between atoms: N_28  and  C_29
REMARK    9  A    between atoms: C_29  and  C_30
REMARK                            x       y       z     vdW  Elec       q    Type
REMARK                         _______ _______ _______ _____ _____    ______ ____
ROOT
ATOM      1  N   UNL     1       1.567  -2.059  -1.364  0.00  0.00    +0.390 N 
ATOM      2  H   UNL     1       0.847  -1.830  -2.060  0.00  0.00    -0.080 HD
ENDROOT
BRANCH   1   3
ATOM      3  C   UNL     1       1.398  -3.466  -0.942  0.00  0.00    -0.036 C 
BRANCH   3  15
ATOM      4  C   UNL     1      -4.794  -4.157   1.153  0.00  0.00    +0.046 C 
ATOM      5  C   UNL     1      -4.151  -4.471  -0.173  0.00  0.00    -0.026 A 
ATOM      6  C   UNL     1      -4.904  -5.002  -1.199  0.00  0.00    +0.005 A 
ATOM      7  C   UNL     1      -4.324  -5.295  -2.425  0.00  0.00    +0.001 A 
ATOM      8  C   UNL     1      -2.994  -5.064  -2.638  0.00  0.00    +0.010 A 
ATOM      9  C   UNL     1      -2.211  -4.527  -1.612  0.00  0.00    -0.001 A 
ATOM     10  C   UNL     1      -2.795  -4.228  -0.367  0.00  0.00    +0.052 A 
ATOM     11  N   UNL     1      -2.018  -3.699   0.641  0.00  0.00    -0.322 N 
ATOM     12  H   UNL     1      -2.423  -3.493   1.499  0.00  0.00    +0.169 HD
ATOM     13  C   UNL     1      -0.708  -3.463   0.453  0.00  0.00    +0.251 A 
ATOM     14  O   UNL     1      -0.051  -2.994   1.367  0.00  0.00    -0.268 OA
ATOM     15  C   UNL     1      -0.073  -3.745  -0.776  0.00  0.00    +0.001 A 
ATOM     16  C   UNL     1      -0.784  -4.262  -1.808  0.00  0.00    +0.017 A 
ENDBRANCH   3  15
ENDBRANCH   1   3
BRANCH   1  17
ATOM     17  C   UNL     1       2.901  -1.872  -1.974  0.00  0.00    -0.042 C 
BRANCH  17  18
ATOM     18  C   UNL     1       2.905  -2.517  -3.336  0.00  0.00    -0.064 A 
ATOM     19  C   UNL     1       3.406  -3.796  -3.493  0.00  0.00    +0.004 A 
ATOM     20  C   UNL     1       3.406  -4.391  -4.740  0.00  0.00    +0.038 A 
ATOM     21  C   UNL     1       2.913  -3.701  -5.835  0.00  0.00    +0.123 A 
ATOM     22  C   UNL     1       2.417  -2.418  -5.678  0.00  0.00    +0.038 A 
ATOM     23  C   UNL     1       2.413  -1.828  -4.429  0.00  0.00    +0.004 A 
ATOM     24  F   UNL     1       2.917  -4.280  -7.056  0.00  0.00    -0.205 F 
ENDBRANCH  17  18
ENDBRANCH   1  17
BRANCH   1  25
ATOM     25  C   UNL     1       1.414  -1.161  -0.201  0.00  0.00    +0.001 C 
BRANCH  25  26
ATOM     26  C   UNL     1       1.437   0.267  -0.681  0.00  0.00    +0.135 A 
ATOM     27  N   UNL     1       2.499   1.007  -0.886  0.00  0.00    -0.115 NA
ATOM     28  N   UNL     1       2.106   2.164  -1.294  0.00  0.00    -0.023 NA
ATOM     29  N   UNL     1       0.820   2.182  -1.355  0.00  0.00    -0.044 NA
ATOM     30  N   UNL     1       0.370   1.030  -0.985  0.00  0.00    -0.227 N 
BRANCH  30  31
ATOM     31  C   UNL     1      -1.036   0.629  -0.910  0.00  0.00    +0.182 C 
BRANCH  31  32
ATOM     32  C   UNL     1      -1.508   0.195  -2.274  0.00  0.00    -0.026 A 
ATOM     33  C   UNL     1      -1.959   1.135  -3.181  0.00  0.00    +0.008 A 
ATOM     34  C   UNL     1      -2.388   0.738  -4.433  0.00  0.00    +0.038 A 
ATOM     35  C   UNL     1      -2.375  -0.603  -4.776  0.00  0.00    +0.123 A 
ATOM     36  C   UNL     1      -1.928  -1.545  -3.865  0.00  0.00    +0.038 A 
ATOM     37  C   UNL     1      -1.495  -1.145  -2.614  0.00  0.00    +0.008 A 
ATOM     38  F   UNL     1      -2.798  -0.993  -5.998  0.00  0.00    -0.205 F 
ENDBRANCH  31  32
ENDBRANCH  30  31
ENDBRANCH  25  26
ENDBRANCH   1  25
TORSDOF 8
