REMARK  Name = ZINC41107266
REMARK  6 active torsions:
REMARK  status: ('A' for Active; 'I' for Inactive)
REMARK    1  A    between atoms: C_1  and  C_2
REMARK    2  A    between atoms: C_3  and  C_20
REMARK    3  A    between atoms: C_4  and  C_10
REMARK    4  A    between atoms: C_13  and  N_16
REMARK    5  A    between atoms: C_17  and  C_19
REMARK    6  A    between atoms: N_22  and  C_23
REMARK                            x       y       z     vdW  Elec       q    Type
REMARK                         _______ _______ _______ _____ _____    ______ ____
ROOT
ATOM      1  C   UNL     1       0.220   1.587   1.148  0.00  0.00    +0.061 C 
ATOM      2  C   UNL     1       0.190   0.278   0.403  0.00  0.00    +0.017 C 
ATOM      3  C   UNL     1      -0.983  -0.185  -0.080  0.00  0.00    +0.056 C 
ATOM      4  C   UNL     1      -0.968  -1.505  -0.823  0.00  0.00    +0.139 C 
ATOM      5  N   UNL     1       0.333  -2.180  -0.959  0.00  0.00    -0.315 N 
ATOM      6  C   UNL     1       1.420  -1.591  -0.421  0.00  0.00    +0.135 C 
ATOM      7  S   UNL     1       2.940  -2.364  -0.572  0.00  0.00    -0.019 S 
ATOM      8  N   UNL     1       1.350  -0.419   0.222  0.00  0.00    -0.300 N 
ATOM      9  H   UNL     1       0.407  -3.028  -1.424  0.00  0.00    +0.149 HD
ATOM     10  H   UNL     1       2.169  -0.045   0.583  0.00  0.00    +0.154 HD
ENDROOT
BRANCH   4  11
ATOM     11  C   UNL     1      -1.908  -2.447  -0.115  0.00  0.00    -0.023 A 
ATOM     12  C   UNL     1      -1.537  -3.014   1.090  0.00  0.00    +0.007 A 
ATOM     13  C   UNL     1      -2.395  -3.878   1.742  0.00  0.00    +0.023 A 
ATOM     14  C   UNL     1      -3.632  -4.177   1.185  0.00  0.00    +0.033 A 
ATOM     15  C   UNL     1      -4.002  -3.606  -0.026  0.00  0.00    +0.023 A 
ATOM     16  C   UNL     1      -3.140  -2.739  -0.670  0.00  0.00    +0.007 A 
BRANCH  14  17
ATOM     17  N   UNL     1      -4.504  -5.052   1.842  0.00  0.00    -0.286 N 
ATOM     18  C   UNL     1      -4.566  -5.057   3.188  0.00  0.00    +0.214 C 
ATOM     19  O   UNL     1      -3.812  -4.359   3.833  0.00  0.00    -0.276 OA
ATOM     20  C   UNL     1      -5.573  -5.929   3.893  0.00  0.00    +0.109 C 
ATOM     21  H   UNL     1      -5.064  -5.656   1.329  0.00  0.00    +0.155 HD
ENDBRANCH  14  17
ENDBRANCH   4  11
BRANCH   3  22
ATOM     22  C   UNL     1      -2.187   0.539   0.103  0.00  0.00    +0.248 C 
ATOM     23  O   UNL     1      -2.634   1.216  -0.805  0.00  0.00    -0.270 OA
ATOM     24  N   UNL     1      -2.837   0.479   1.282  0.00  0.00    -0.282 N 
ATOM     25  H   UNL     1      -2.430   0.026   2.038  0.00  0.00    +0.155 HD
BRANCH  24  26
ATOM     26  C   UNL     1      -4.098   1.071   1.417  0.00  0.00    +0.034 A 
ATOM     27  C   UNL     1      -4.970   1.103   0.337  0.00  0.00    +0.026 A 
ATOM     28  C   UNL     1      -6.214   1.688   0.472  0.00  0.00    +0.040 A 
ATOM     29  C   UNL     1      -6.591   2.242   1.683  0.00  0.00    +0.124 A 
ATOM     30  C   UNL     1      -5.723   2.211   2.762  0.00  0.00    +0.040 A 
ATOM     31  C   UNL     1      -4.481   1.622   2.633  0.00  0.00    +0.026 A 
ATOM     32  F   UNL     1      -7.808   2.814   1.813  0.00  0.00    -0.205 F 
ENDBRANCH  24  26
ENDBRANCH   3  22
TORSDOF 4
