REMARK  Name = ZINC13108380
REMARK  7 active torsions:
REMARK  status: ('A' for Active; 'I' for Inactive)
REMARK    1  A    between atoms: C_4  and  C_7
REMARK    2  A    between atoms: C_7  and  C_8
REMARK    3  A    between atoms: C_8  and  C_10
REMARK    4  A    between atoms: C_8  and  N_26
REMARK    5  A    between atoms: N_12  and  N_13
REMARK    6  A    between atoms: C_14  and  C_16
REMARK    7  A    between atoms: C_27  and  C_29
REMARK                            x       y       z     vdW  Elec       q    Type
REMARK                         _______ _______ _______ _____ _____    ______ ____
ROOT
ATOM      1  C   UNL     1      -2.363   5.594   4.086  0.00  0.00    +0.165 C 
ENDROOT
BRANCH   1   2
ATOM      2  C   UNL     1      -1.658   5.108   2.846  0.00  0.00    +0.250 C 
ATOM      3  O   UNL     1      -1.215   5.906   2.048  0.00  0.00    -0.272 OA
ATOM      4  N   UNL     1      -1.519   3.786   2.625  0.00  0.00    -0.233 N 
ATOM      5  H   UNL     1      -1.873   3.147   3.263  0.00  0.00    +0.173 HD
BRANCH   4   6
ATOM      6  N   UNL     1      -0.863   3.334   1.472  0.00  0.00    -0.234 N 
ATOM      7  C   UNL     1      -0.724   2.012   1.250  0.00  0.00    +0.235 C 
ATOM      8  O   UNL     1      -1.167   1.213   2.049  0.00  0.00    -0.274 OA
ATOM      9  H   UNL     1      -0.509   3.973   0.834  0.00  0.00    +0.173 HD
BRANCH   7  10
ATOM     10  C   UNL     1      -0.019   1.526   0.010  0.00  0.00    +0.049 C 
ATOM     11  C   UNL     1       1.417   2.055  -0.000  0.00  0.00    +0.019 C 
ATOM     12  C   UNL     1       2.133   1.562  -1.259  0.00  0.00    -0.009 C 
ATOM     13  C   UNL     1       2.154   0.032  -1.268  0.00  0.00    +0.007 C 
ATOM     14  C   UNL     1       0.718  -0.497  -1.257  0.00  0.00    -0.009 C 
ATOM     15  C   UNL     1       0.002  -0.004   0.002  0.00  0.00    +0.019 C 
ATOM     16  C   UNL     1      -0.022   0.009  -2.496  0.00  0.00    +0.007 C 
ATOM     17  C   UNL     1      -0.043   1.539  -2.488  0.00  0.00    -0.009 C 
ATOM     18  C   UNL     1       1.393   2.069  -2.499  0.00  0.00    +0.007 C 
ATOM     19  C   UNL     1      -0.759   2.033  -1.229  0.00  0.00    +0.019 C 
ENDBRANCH   7  10
ENDBRANCH   4   6
ENDBRANCH   1   2
BRANCH   1  20
ATOM     20  N   UNL     1      -2.383   7.059   4.094  0.00  0.00    -0.300 N 
ATOM     21  C   UNL     1      -3.342   7.716   4.777  0.00  0.00    +0.245 C 
ATOM     22  O   UNL     1      -4.190   7.093   5.385  0.00  0.00    -0.270 OA
ATOM     23  H   UNL     1      -1.706   7.556   3.609  0.00  0.00    +0.150 HD
BRANCH  21  24
ATOM     24  C   UNL     1      -3.362   9.194   4.785  0.00  0.00    +0.037 A 
ATOM     25  C   UNL     1      -2.386   9.912   4.091  0.00  0.00    +0.014 A 
ATOM     26  C   UNL     1      -2.413  11.290   4.097  0.00  0.00    +0.021 A 
ATOM     27  C   UNL     1      -3.400  11.963   4.800  0.00  0.00    +0.041 A 
ATOM     28  C   UNL     1      -4.367  11.256   5.494  0.00  0.00    +0.021 A 
ATOM     29  C   UNL     1      -4.354   9.877   5.490  0.00  0.00    +0.014 A 
ATOM     30 CL   UNL     1      -3.424  13.699   4.809  0.00  0.00    -0.084 Cl
ENDBRANCH  21  24
ENDBRANCH   1  20
BRANCH   1  31
ATOM     31  C   UNL     1      -1.623   5.087   5.326  0.00  0.00    +0.067 C 
BRANCH  31  35
ATOM     32  C   UNL     1      -3.811   6.168   8.832  0.00  0.00    +0.000 A 
ATOM     33  C   UNL     1      -4.062   4.962   8.205  0.00  0.00    +0.000 A 
ATOM     34  C   UNL     1      -3.355   4.612   7.070  0.00  0.00    +0.004 A 
ATOM     35  C   UNL     1      -2.395   5.468   6.563  0.00  0.00    -0.045 A 
ATOM     36  C   UNL     1      -2.140   6.672   7.193  0.00  0.00    +0.004 A 
ATOM     37  C   UNL     1      -2.851   7.024   8.325  0.00  0.00    +0.000 A 
ENDBRANCH  31  35
ENDBRANCH   1  31
TORSDOF 7
