REMARK  Name = ZINC59145881
REMARK  9 active torsions:
REMARK  status: ('A' for Active; 'I' for Inactive)
REMARK    1  A    between atoms: C_1  and  C_2
REMARK    2  A    between atoms: C_2  and  O_3
REMARK    3  A    between atoms: O_3  and  C_4
REMARK    4  A    between atoms: C_4  and  C_6
REMARK    5  A    between atoms: C_10  and  N_11
REMARK    6  A    between atoms: N_13  and  C_31
REMARK    7  A    between atoms: N_24  and  C_27
REMARK    8  A    between atoms: C_27  and  C_28
REMARK    9  A    between atoms: C_27  and  C_29
REMARK                            x       y       z     vdW  Elec       q    Type
REMARK                         _______ _______ _______ _____ _____    ______ ____
ROOT
ATOM      1  N   UNL     1      -0.575  -2.744  -3.906  0.00  0.00    -0.217 NA
ATOM      2  C   UNL     1      -1.046  -2.835  -5.133  0.00  0.00    +0.169 C 
ATOM      3  N   UNL     1      -0.391  -3.248  -6.270  0.00  0.00    -0.249 N 
ATOM      4  C   UNL     1      -1.014  -3.282  -7.436  0.00  0.00    +0.260 C 
ATOM      5  O   UNL     1      -0.451  -3.645  -8.451  0.00  0.00    -0.269 OA
ATOM      6  C   UNL     1      -2.437  -2.854  -7.444  0.00  0.00    +0.090 C 
ATOM      7  C   UNL     1      -3.328  -2.786  -8.501  0.00  0.00    +0.065 C 
ATOM      8  C   UNL     1      -3.038  -2.984  -9.936  0.00  0.00    +0.010 A 
ATOM      9  C   UNL     1      -1.874  -3.278 -10.642  0.00  0.00    +0.010 A 
ATOM     10  C   UNL     1      -1.921  -3.404 -12.015  0.00  0.00    +0.001 A 
ATOM     11  C   UNL     1      -3.121  -3.238 -12.688  0.00  0.00    +0.002 A 
ATOM     12  C   UNL     1      -4.280  -2.946 -11.997  0.00  0.00    +0.024 A 
ATOM     13  C   UNL     1      -4.254  -2.815 -10.614  0.00  0.00    +0.045 A 
ATOM     14  N   UNL     1      -5.256  -2.531  -9.693  0.00  0.00    -0.264 N 
ATOM     15  C   UNL     1      -4.775  -2.507  -8.438  0.00  0.00    +0.253 C 
ATOM     16  O   UNL     1      -5.420  -2.290  -7.429  0.00  0.00    -0.270 OA
ATOM     17  S   UNL     1      -2.689  -2.458  -5.720  0.00  0.00    -0.048 S 
ATOM     18  C   UNL     1       1.014  -3.656  -6.188  0.00  0.00    +0.140 C 
ENDROOT
BRANCH   1  23
ATOM     19  C   UNL     1       1.370  -4.141  -3.261  0.00  0.00    +0.095 A 
ATOM     20  C   UNL     1       2.810  -4.100  -3.082  0.00  0.00    -0.021 A 
ATOM     21  C   UNL     1       3.411  -2.912  -3.322  0.00  0.00    -0.004 A 
ATOM     22  S   UNL     1       2.098  -1.818  -3.790  0.00  0.00    -0.073 S 
ATOM     23  C   UNL     1       0.733  -2.961  -3.669  0.00  0.00    +0.118 A 
ATOM     24  C   UNL     1       4.871  -2.597  -3.212  0.00  0.00    +0.043 C 
ATOM     25  C   UNL     1       5.553  -3.725  -2.426  0.00  0.00    +0.005 C 
ATOM     26  C   UNL     1       5.096  -5.070  -3.000  0.00  0.00    +0.005 C 
ATOM     27  C   UNL     1       3.628  -5.313  -2.648  0.00  0.00    +0.037 C 
BRANCH  19  28
ATOM     28  C   UNL     1       0.612  -5.371  -3.031  0.00  0.00    +0.342 C 
ATOM     29  O   UNL     1       0.435  -6.156  -3.944  0.00  0.00    -0.245 OA
BRANCH  28  30
ATOM     30  O   UNL     1       0.110  -5.635  -1.807  0.00  0.00    -0.461 OA
BRANCH  30  32
ATOM     31  C   UNL     1      -1.107  -6.979  -0.209  0.00  0.00    +0.048 C 
ATOM     32  C   UNL     1      -0.619  -6.854  -1.654  0.00  0.00    +0.229 C 
ENDBRANCH  30  32
ENDBRANCH  28  30
ENDBRANCH  19  28
ENDBRANCH   1  23
BRANCH  14  33
ATOM     33  C   UNL     1      -6.658  -2.295 -10.045  0.00  0.00    +0.076 C 
ATOM     34  C   UNL     1      -7.540  -3.334  -9.351  0.00  0.00    +0.028 C 
ATOM     35  C   UNL     1      -7.069  -0.892  -9.591  0.00  0.00    +0.028 C 
ENDBRANCH  14  33
TORSDOF 5
