REMARK  Name = ZINC11844189
REMARK  6 active torsions:
REMARK  status: ('A' for Active; 'I' for Inactive)
REMARK    1  A    between atoms: C_4  and  C_7
REMARK    2  A    between atoms: C_7  and  N_59
REMARK    3  A    between atoms: C_13  and  C_15
REMARK    4  A    between atoms: C_15  and  C_16
REMARK    5  A    between atoms: C_21  and  C_24
REMARK    6  A    between atoms: C_21  and  O_30
REMARK                            x       y       z     vdW  Elec       q    Type
REMARK                         _______ _______ _______ _____ _____    ______ ____
ROOT
ATOM      1  C   UNL     1       6.505  -0.344  -0.797  0.00  0.00    +0.090 C 
ENDROOT
BRANCH   1   7
ATOM      2  C   UNL     1       4.714  -3.626  -1.150  0.00  0.00    -0.058 C 
ATOM      3  C   UNL     1       3.392  -3.180  -0.522  0.00  0.00    +0.085 C 
ATOM      4  N   UNL     1       3.159  -1.765  -0.798  0.00  0.00    -0.318 N 
ATOM      5  C   UNL     1       4.131  -0.930  -1.180  0.00  0.00    +0.200 C 
ATOM      6  O   UNL     1       3.856   0.238  -1.359  0.00  0.00    -0.278 OA
ATOM      7  C   UNL     1       5.548  -1.377  -1.398  0.00  0.00    +0.028 C 
ATOM      8  H   UNL     1       2.260  -1.416  -0.700  0.00  0.00    +0.149 HD
ATOM      9  N   UNL     1       5.763  -2.675  -0.732  0.00  0.00    +0.391 N 
ATOM     10  H   UNL     1       5.710  -2.543   0.285  0.00  0.00    -0.080 HD
BRANCH   9  11
ATOM     11  C   UNL     1       7.100  -3.208  -1.079  0.00  0.00    -0.042 C 
BRANCH  11  15
ATOM     12  C   UNL     1       8.086  -6.350   1.642  0.00  0.00    +0.000 A 
ATOM     13  C   UNL     1       8.425  -5.044   1.942  0.00  0.00    +0.000 A 
ATOM     14  C   UNL     1       8.105  -4.027   1.062  0.00  0.00    +0.002 A 
ATOM     15  C   UNL     1       7.448  -4.316  -0.119  0.00  0.00    -0.064 A 
ATOM     16  C   UNL     1       7.110  -5.622  -0.420  0.00  0.00    +0.002 A 
ATOM     17  C   UNL     1       7.429  -6.639   0.461  0.00  0.00    +0.000 A 
ENDBRANCH  11  15
ENDBRANCH   9  11
ENDBRANCH   1   7
BRANCH   1  18
ATOM     18  C   UNL     1       6.285  -0.263   0.691  0.00  0.00    +0.214 C 
ATOM     19  O   UNL     1       5.512  -1.025   1.233  0.00  0.00    -0.276 OA
ATOM     20  N   UNL     1       6.947   0.657   1.421  0.00  0.00    -0.301 N 
ATOM     21  C   UNL     1       7.891   1.582   0.780  0.00  0.00    +0.111 C 
ATOM     22  C   UNL     1       9.236   1.497   1.498  0.00  0.00    +0.058 C 
ATOM     23  C   UNL     1       9.030   1.744   2.995  0.00  0.00    +0.094 C 
ATOM     24  C   UNL     1       8.105   0.668   3.569  0.00  0.00    +0.058 C 
ATOM     25  C   UNL     1       6.743   0.749   2.873  0.00  0.00    +0.111 C 
BRANCH  23  26
ATOM     26  C   UNL     1      10.361   1.690   3.700  0.00  0.00    -0.016 A 
ATOM     27  C   UNL     1      10.828   0.491   4.205  0.00  0.00    +0.006 A 
ATOM     28  C   UNL     1      12.051   0.441   4.847  0.00  0.00    +0.000 A 
ATOM     29  C   UNL     1      12.802   1.592   4.995  0.00  0.00    +0.000 A 
ATOM     30  C   UNL     1      12.333   2.792   4.495  0.00  0.00    +0.000 A 
ATOM     31  C   UNL     1      11.112   2.841   3.847  0.00  0.00    +0.006 A 
ENDBRANCH  23  26
BRANCH  23  32
ATOM     32  O   UNL     1       8.441   3.031   3.188  0.00  0.00    -0.384 OA
ATOM     33  H   UNL     1       8.974   3.763   2.847  0.00  0.00    +0.211 HD
ENDBRANCH  23  32
ENDBRANCH   1  18
TORSDOF 6
