REMARK  Name = ZINC63980317
REMARK  6 active torsions:
REMARK  status: ('A' for Active; 'I' for Inactive)
REMARK    1  A    between atoms: C_1  and  N_2
REMARK    2  A    between atoms: C_9  and  C_27
REMARK    3  A    between atoms: C_11  and  C_13
REMARK    4  A    between atoms: N_15  and  C_16
REMARK    5  A    between atoms: C_16  and  C_17
REMARK    6  A    between atoms: C_17  and  C_18
REMARK                            x       y       z     vdW  Elec       q    Type
REMARK                         _______ _______ _______ _____ _____    ______ ____
ROOT
ATOM      1  C   UNL     1      -0.018   1.461   0.010  0.00  0.00    +0.130 C 
ATOM      2  N   UNL     1       0.002  -0.004   0.002  0.00  0.00    -0.321 N 
ATOM      3  C   UNL     1       0.008  -0.798  -1.147  0.00  0.00    +0.034 A 
ATOM      4  C   UNL     1      -0.003  -0.412  -2.489  0.00  0.00    +0.025 A 
ATOM      5  C   UNL     1       0.005  -1.363  -3.486  0.00  0.00    +0.022 A 
ATOM      6  C   UNL     1       0.024  -2.709  -3.165  0.00  0.00    +0.041 A 
ATOM      7  C   UNL     1       0.035  -3.099  -1.837  0.00  0.00    +0.026 A 
ATOM      8  C   UNL     1       0.028  -2.148  -0.835  0.00  0.00    -0.015 A 
ATOM      9  C   UNL     1       0.036  -2.294   0.670  0.00  0.00    +0.080 C 
ATOM     10  C   UNL     1       0.025  -0.850   1.198  0.00  0.00    +0.171 C 
ATOM     11 CL   UNL     1       0.034  -3.905  -4.423  0.00  0.00    -0.084 Cl
ENDROOT
BRANCH   9  12
ATOM     12  C   UNL     1      -1.189  -3.041   1.133  0.00  0.00    -0.038 A 
ATOM     13  C   UNL     1      -2.448  -2.553   0.836  0.00  0.00    +0.006 A 
ATOM     14  C   UNL     1      -3.571  -3.238   1.260  0.00  0.00    +0.020 A 
ATOM     15  C   UNL     1      -3.436  -4.410   1.982  0.00  0.00    +0.041 A 
ATOM     16  C   UNL     1      -2.175  -4.897   2.278  0.00  0.00    +0.020 A 
ATOM     17  C   UNL     1      -1.052  -4.215   1.849  0.00  0.00    +0.006 A 
ATOM     18 CL   UNL     1      -4.846  -5.270   2.515  0.00  0.00    -0.084 Cl
ENDBRANCH   9  12
BRANCH  10  19
ATOM     19  C   UNL     1      -1.208  -0.611   2.032  0.00  0.00    +0.234 C 
ATOM     20  O   UNL     1      -2.181  -0.084   1.537  0.00  0.00    -0.274 OA
ATOM     21  N   UNL     1      -1.228  -0.982   3.327  0.00  0.00    -0.313 N 
ATOM     22  H   UNL     1      -0.449  -1.404   3.723  0.00  0.00    +0.149 HD
BRANCH  21  23
ATOM     23  C   UNL     1      -2.426  -0.749   4.137  0.00  0.00    +0.108 C 
BRANCH  23  24
ATOM     24  C   UNL     1      -2.187  -1.260   5.559  0.00  0.00    +0.052 C 
BRANCH  24  25
ATOM     25  C   UNL     1      -3.420  -1.020   6.393  0.00  0.00    -0.040 C 
ATOM     26  C   UNL     1      -4.419  -1.899   6.638  0.00  0.00    -0.001 A 
ATOM     27  C   UNL     1      -4.648  -3.286   6.218  0.00  0.00    +0.010 A 
ATOM     28  C   UNL     1      -5.769  -3.920   6.633  0.00  0.00    +0.001 A 
ATOM     29  C   UNL     1      -6.713  -3.287   7.452  0.00  0.00    +0.002 A 
ATOM     30  C   UNL     1      -6.572  -2.014   7.879  0.00  0.00    +0.026 A 
ATOM     31  C   UNL     1      -5.431  -1.253   7.504  0.00  0.00    +0.043 A 
ATOM     32  N   UNL     1      -5.072  -0.023   7.782  0.00  0.00    -0.380 N 
ATOM     33  C   UNL     1      -3.787   0.248   7.130  0.00  0.00    +0.144 C 
ATOM     34  H   UNL     1      -5.571   0.602   8.332  0.00  0.00    +0.160 HD
ENDBRANCH  24  25
ENDBRANCH  23  24
ENDBRANCH  21  23
ENDBRANCH  10  19
TORSDOF 5
