REMARK  Name = ZINC39355139
REMARK  6 active torsions:
REMARK  status: ('A' for Active; 'I' for Inactive)
REMARK    1  A    between atoms: C_4  and  C_7
REMARK    2  A    between atoms: C_9  and  C_17
REMARK    3  A    between atoms: N_18  and  N_19
REMARK    4  A    between atoms: C_24  and  C_27
REMARK    5  A    between atoms: C_27  and  C_28
REMARK    6  A    between atoms: N_30  and  C_31
REMARK                            x       y       z     vdW  Elec       q    Type
REMARK                         _______ _______ _______ _____ _____    ______ ____
ROOT
ATOM      1  N   UNL     1       4.605  -0.288  -4.790  0.00  0.00    -0.127 NA
ATOM      2  C   UNL     1       4.879  -0.861  -5.960  0.00  0.00    +0.183 C 
ATOM      3  N   UNL     1       5.020  -2.196  -6.209  0.00  0.00    -0.263 N 
ATOM      4  C   UNL     1       5.295  -2.669  -7.417  0.00  0.00    +0.233 C 
ATOM      5  O   UNL     1       5.424  -3.850  -7.658  0.00  0.00    -0.274 OA
ATOM      6  C   UNL     1       5.433  -1.579  -8.470  0.00  0.00    +0.149 C 
ATOM      7  S   UNL     1       5.116  -0.092  -7.436  0.00  0.00    -0.075 S 
ATOM      8  H   UNL     1       4.916  -2.822  -5.475  0.00  0.00    +0.157 HD
ENDROOT
BRANCH   1  10
ATOM      9  C   UNL     1       4.177  -0.445  -2.575  0.00  0.00    +0.141 C 
ATOM     10  N   UNL     1       4.449  -1.015  -3.736  0.00  0.00    -0.155 NA
BRANCH   9  12
ATOM     11  C   UNL     1       3.696  -0.752  -0.038  0.00  0.00    +0.142 C 
ATOM     12  C   UNL     1       4.009  -1.228  -1.440  0.00  0.00    +0.008 C 
ATOM     13  C   UNL     1       4.093  -2.624  -1.352  0.00  0.00    +0.005 A 
ATOM     14  C   UNL     1       4.356  -3.623  -2.310  0.00  0.00    +0.010 A 
ATOM     15  C   UNL     1       4.376  -4.929  -1.934  0.00  0.00    +0.001 A 
ATOM     16  C   UNL     1       4.142  -5.312  -0.613  0.00  0.00    +0.002 A 
ATOM     17  C   UNL     1       3.883  -4.402   0.360  0.00  0.00    +0.026 A 
ATOM     18  C   UNL     1       3.845  -3.021   0.041  0.00  0.00    +0.044 A 
ATOM     19  N   UNL     1       3.619  -1.957   0.793  0.00  0.00    -0.373 N 
ATOM     20  H   UNL     1       3.432  -1.971   1.745  0.00  0.00    +0.161 HD
BRANCH  11  24
ATOM     21  C   UNL     1      -0.045   1.310   0.012  0.00  0.00    +0.000 A 
ATOM     22  C   UNL     1       1.138   2.025   0.009  0.00  0.00    +0.000 A 
ATOM     23  C   UNL     1       2.349   1.357  -0.007  0.00  0.00    +0.006 A 
ATOM     24  C   UNL     1       2.376  -0.025  -0.020  0.00  0.00    -0.021 A 
ATOM     25  C   UNL     1       1.193  -0.740  -0.015  0.00  0.00    +0.006 A 
ATOM     26  C   UNL     1      -0.018  -0.072  -0.001  0.00  0.00    +0.000 A 
ENDBRANCH  11  24
ENDBRANCH   9  12
ENDBRANCH   1  10
BRANCH   6  27
ATOM     27  C   UNL     1       4.373  -1.726  -9.563  0.00  0.00    +0.120 C 
BRANCH  27  28
ATOM     28  C   UNL     1       4.621  -0.706 -10.644  0.00  0.00    +0.219 C 
ATOM     29  O   UNL     1       5.554   0.064 -10.549  0.00  0.00    -0.275 OA
ATOM     30  N   UNL     1       3.806  -0.648 -11.716  0.00  0.00    -0.285 N 
ATOM     31  H   UNL     1       3.102  -1.306 -11.826  0.00  0.00    +0.155 HD
BRANCH  30  32
ATOM     32  C   UNL     1       3.977   0.360 -12.671  0.00  0.00    +0.033 A 
ATOM     33  C   UNL     1       2.872   0.912 -13.306  0.00  0.00    +0.025 A 
ATOM     34  C   UNL     1       3.044   1.907 -14.249  0.00  0.00    +0.022 A 
ATOM     35  C   UNL     1       4.315   2.354 -14.560  0.00  0.00    +0.041 A 
ATOM     36  C   UNL     1       5.418   1.807 -13.929  0.00  0.00    +0.022 A 
ATOM     37  C   UNL     1       5.252   0.816 -12.982  0.00  0.00    +0.025 A 
ATOM     38 CL   UNL     1       4.527   3.605 -15.746  0.00  0.00    -0.084 Cl
ENDBRANCH  30  32
ENDBRANCH  27  28
ENDBRANCH   6  27
TORSDOF 6
