REMARK  Name = ZINC14129331
REMARK  4 active torsions:
REMARK  status: ('A' for Active; 'I' for Inactive)
REMARK    1  A    between atoms: C_1  and  C_2
REMARK    2  A    between atoms: N_10  and  N_14
REMARK    3  A    between atoms: C_15  and  C_17
REMARK    4  A    between atoms: C_20  and  C_22
REMARK                            x       y       z     vdW  Elec       q    Type
REMARK                         _______ _______ _______ _____ _____    ______ ____
ROOT
ATOM      1  N   UNL     1       2.335   3.466   4.310  0.00  0.00    -0.217 N 
ATOM      2  C   UNL     1       2.881   2.967   5.437  0.00  0.00    +0.296 C 
ATOM      3  O   UNL     1       3.517   1.931   5.399  0.00  0.00    -0.265 OA
ATOM      4  H   UNL     1       1.828   4.292   4.341  0.00  0.00    +0.174 HD
ENDROOT
BRANCH   1  14
ATOM      5  C   UNL     1      -1.433  -0.533   0.002  0.00  0.00    +0.007 C 
ATOM      6  C   UNL     1       0.002  -0.004   0.002  0.00  0.00    -0.014 C 
ATOM      7  C   UNL     1      -0.019   1.526   0.010  0.00  0.00    +0.006 C 
ATOM      8  C   UNL     1       1.418   2.054  -0.000  0.00  0.00    +0.035 C 
ATOM      9  C   UNL     1       2.162   1.532   1.224  0.00  0.00    +0.114 C 
ATOM     10  C   UNL     1       2.172   0.008   1.240  0.00  0.00    +0.035 C 
ATOM     11  C   UNL     1       0.733  -0.513   1.246  0.00  0.00    +0.006 C 
ATOM     12  C   UNL     1       1.534   2.068   2.490  0.00  0.00    +0.263 C 
ATOM     13  O   UNL     1       0.401   1.888   2.880  0.00  0.00    -0.271 OA
ATOM     14  N   UNL     1       2.501   2.790   3.094  0.00  0.00    -0.137 N 
ATOM     15  C   UNL     1       3.637   2.781   2.387  0.00  0.00    +0.326 C 
ATOM     16  O   UNL     1       4.650   3.361   2.727  0.00  0.00    -0.251 OA
ATOM     17  N   UNL     1       3.533   2.057   1.256  0.00  0.00    -0.284 N 
ATOM     18  H   UNL     1       4.227   1.911   0.594  0.00  0.00    +0.151 HD
ENDBRANCH   1  14
BRANCH   2  19
ATOM     19  C   UNL     1       2.708   3.674   6.709  0.00  0.00    +0.191 A 
ATOM     20  C   UNL     1       3.205   3.275   7.930  0.00  0.00    +0.055 A 
ATOM     21  C   UNL     1       2.808   4.239   8.862  0.00  0.00    +0.051 A 
ATOM     22  C   UNL     1       2.082   5.177   8.185  0.00  0.00    +0.137 A 
ATOM     23  O   UNL     1       2.029   4.826   6.889  0.00  0.00    -0.450 OA
BRANCH  22  24
ATOM     24  C   UNL     1       1.460   6.377   8.779  0.00  0.00    +0.037 A 
ATOM     25  C   UNL     1       1.664   7.632   8.201  0.00  0.00    +0.033 A 
ATOM     26  C   UNL     1       1.080   8.749   8.762  0.00  0.00    +0.042 A 
ATOM     27  C   UNL     1       0.292   8.629   9.895  0.00  0.00    +0.021 A 
ATOM     28  C   UNL     1       0.085   7.389  10.472  0.00  0.00    +0.022 A 
ATOM     29  C   UNL     1       0.659   6.262   9.919  0.00  0.00    +0.052 A 
ATOM     30 CL   UNL     1       0.393   4.706  10.641  0.00  0.00    -0.083 Cl
ATOM     31 CL   UNL     1       1.333  10.310   8.045  0.00  0.00    -0.084 Cl
ENDBRANCH  22  24
ENDBRANCH   2  19
TORSDOF 3
