REMARK  Name = ZINC09490846
REMARK  10 active torsions:
REMARK  status: ('A' for Active; 'I' for Inactive)
REMARK    1  A    between atoms: C_1  and  C_2
REMARK    2  A    between atoms: C_2  and  C_3
REMARK    3  A    between atoms: C_3  and  N_4
REMARK    4  A    between atoms: C_5  and  C_7
REMARK    5  A    between atoms: C_10  and  N_26
REMARK    6  A    between atoms: C_11  and  N_13
REMARK    7  A    between atoms: N_16  and  C_17
REMARK    8  A    between atoms: C_20  and  O_23
REMARK    9  A    between atoms: O_23  and  C_24
REMARK   10  A    between atoms: C_24  and  C_25
REMARK                            x       y       z     vdW  Elec       q    Type
REMARK                         _______ _______ _______ _____ _____    ______ ____
ROOT
ATOM      1  C   UNL     1      -2.054  -0.456  -0.891  0.00  0.00    +0.039 A 
ATOM      2  C   UNL     1      -2.545  -1.749  -0.687  0.00  0.00    +0.015 A 
ATOM      3  C   UNL     1      -3.859  -1.938  -0.323  0.00  0.00    +0.026 A 
ATOM      4  C   UNL     1      -4.702  -0.846  -0.156  0.00  0.00    +0.051 A 
ATOM      5  C   UNL     1      -4.218   0.450  -0.357  0.00  0.00    +0.057 A 
ATOM      6  C   UNL     1      -2.899   0.645  -0.718  0.00  0.00    +0.038 A 
ENDROOT
BRANCH   4   7
ATOM      7  N   UNL     1      -6.031  -1.042   0.212  0.00  0.00    -0.328 N 
ATOM      8  C   UNL     1      -6.400  -2.458   0.112  0.00  0.00    +0.110 C 
ATOM      9  C   UNL     1      -7.866  -2.668   0.459  0.00  0.00    +0.027 C 
ATOM     10  C   UNL     1      -8.187  -2.097   1.843  0.00  0.00    +0.018 C 
ATOM     11  C   UNL     1      -7.798  -0.614   1.830  0.00  0.00    +0.053 C 
ATOM     12  C   UNL     1      -6.286  -0.522   1.564  0.00  0.00    +0.114 C 
ATOM     13  C   UNL     1      -8.503   0.076   0.684  0.00  0.00    +0.027 A 
ATOM     14  C   UNL     1      -8.747   1.407   0.812  0.00  0.00    +0.022 A 
ATOM     15  C   UNL     1      -9.340   2.125  -0.232  0.00  0.00    +0.007 A 
ATOM     16  C   UNL     1      -9.651   1.470  -1.388  0.00  0.00    +0.070 A 
ATOM     17  C   UNL     1      -9.388   0.097  -1.486  0.00  0.00    +0.251 A 
ATOM     18  O   UNL     1      -9.619  -0.488  -2.532  0.00  0.00    -0.268 OA
ATOM     19  N   UNL     1      -8.880  -0.589  -0.432  0.00  0.00    -0.312 N 
ATOM     20  C   UNL     1      -8.789  -2.043  -0.573  0.00  0.00    +0.130 C 
ENDBRANCH   4   7
BRANCH   5  21
ATOM     21  N   UNL     1      -5.069   1.551  -0.188  0.00  0.00    -0.268 N 
ATOM     22  C   UNL     1      -4.559   2.751   0.154  0.00  0.00    +0.308 C 
ATOM     23  O   UNL     1      -3.356   2.893   0.256  0.00  0.00    -0.252 OA
ATOM     24  N   UNL     1      -5.383   3.792   0.384  0.00  0.00    -0.269 N 
ATOM     25  H   UNL     1      -6.025   1.449  -0.318  0.00  0.00    +0.156 HD
ATOM     26  H   UNL     1      -6.336   3.700   0.229  0.00  0.00    +0.156 HD
BRANCH  24  27
ATOM     27  C   UNL     1      -4.863   5.008   0.847  0.00  0.00    +0.035 A 
ATOM     28  C   UNL     1      -3.705   5.021   1.613  0.00  0.00    +0.027 A 
ATOM     29  C   UNL     1      -3.190   6.220   2.065  0.00  0.00    +0.047 A 
ATOM     30  C   UNL     1      -3.835   7.411   1.763  0.00  0.00    +0.121 A 
ATOM     31  C   UNL     1      -4.995   7.398   1.002  0.00  0.00    +0.047 A 
ATOM     32  C   UNL     1      -5.508   6.200   0.545  0.00  0.00    +0.027 A 
BRANCH  30  33
ATOM     33  O   UNL     1      -3.331   8.591   2.212  0.00  0.00    -0.492 OA
BRANCH  33  34
ATOM     34  C   UNL     1      -2.133   8.530   2.990  0.00  0.00    +0.225 C 
ATOM     35  C   UNL     1      -1.721   9.944   3.403  0.00  0.00    +0.048 C 
ENDBRANCH  33  34
ENDBRANCH  30  33
ENDBRANCH  24  27
ENDBRANCH   5  21
BRANCH   1  37
ATOM     36  N   UNL     1       0.169  -1.314  -1.441  0.00  0.00    -0.311 N 
ATOM     37  C   UNL     1      -0.646  -0.253  -1.281  0.00  0.00    +0.244 C 
ATOM     38  O   UNL     1      -0.221   0.873  -1.458  0.00  0.00    -0.270 OA
ATOM     39  H   UNL     1      -0.171  -2.212  -1.300  0.00  0.00    +0.149 HD
BRANCH  36  40
ATOM     40  C   UNL     1       1.565  -1.113  -1.835  0.00  0.00    +0.104 C 
BRANCH  40  42
ATOM     41  C   UNL     1       3.721  -2.259  -2.364  0.00  0.00    +0.005 C 
ATOM     42  C   UNL     1       2.262  -2.470  -1.953  0.00  0.00    +0.015 C 
ENDBRANCH  40  42
ENDBRANCH  36  40
ENDBRANCH   1  37
TORSDOF 8
