REMARK  Name = ZINC40168261
REMARK  13 active torsions:
REMARK  status: ('A' for Active; 'I' for Inactive)
REMARK    1  A    between atoms: C_1  and  C_2
REMARK    2  A    between atoms: C_2  and  C_3
REMARK    3  A    between atoms: C_3  and  C_5
REMARK    4  A    between atoms: C_3  and  O_18
REMARK    5  A    between atoms: N_7  and  C_8
REMARK    6  A    between atoms: C_11  and  N_14
REMARK    7  A    between atoms: C_15  and  C_17
REMARK    8  A    between atoms: O_18  and  C_19
REMARK    9  A    between atoms: C_29  and  C_30
REMARK   10  A    between atoms: C_33  and  C_36
REMARK   11  A    between atoms: C_36  and  C_37
REMARK   12  A    between atoms: C_36  and  C_38
REMARK   13  A    between atoms: C_36  and  C_39
REMARK                            x       y       z     vdW  Elec       q    Type
REMARK                         _______ _______ _______ _____ _____    ______ ____
ROOT
ATOM      1  C   UNL     1       1.343   0.233   2.114  0.00  0.00    +0.212 A 
ATOM      2  C   UNL     1       2.191   1.295   1.706  0.00  0.00    +0.235 A 
ATOM      3  O   UNL     1       3.195   1.088   1.045  0.00  0.00    -0.283 OA
ATOM      4  C   UNL     1       1.809   2.661   2.113  0.00  0.00    +0.068 A 
ATOM      5  C   UNL     1       2.582   3.766   1.757  0.00  0.00    +0.015 A 
ATOM      6  C   UNL     1       2.191   5.025   2.156  0.00  0.00    +0.001 A 
ATOM      7  C   UNL     1       1.037   5.195   2.907  0.00  0.00    +0.004 A 
ATOM      8  C   UNL     1       0.265   4.111   3.265  0.00  0.00    +0.047 A 
ATOM      9  C   UNL     1       0.640   2.832   2.873  0.00  0.00    +0.140 A 
ATOM     10  O   UNL     1      -0.103   1.759   3.212  0.00  0.00    -0.451 OA
ATOM     11  C   UNL     1       0.228   0.509   2.846  0.00  0.00    +0.181 A 
ENDROOT
BRANCH  11  12
ATOM     12  C   UNL     1      -0.647  -0.606   3.257  0.00  0.00    +0.021 A 
ATOM     13  C   UNL     1      -1.130  -0.674   4.566  0.00  0.00    +0.012 A 
ATOM     14  C   UNL     1      -1.946  -1.720   4.943  0.00  0.00    +0.005 A 
ATOM     15  C   UNL     1      -2.287  -2.700   4.028  0.00  0.00    -0.042 A 
ATOM     16  C   UNL     1      -1.812  -2.640   2.729  0.00  0.00    +0.005 A 
ATOM     17  C   UNL     1      -1.000  -1.597   2.337  0.00  0.00    +0.012 A 
BRANCH  15  18
ATOM     18  C   UNL     1      -3.179  -3.840   4.447  0.00  0.00    -0.013 C 
ATOM     19  C   UNL     1      -4.526  -3.287   4.918  0.00  0.00    +0.015 C 
ATOM     20  C   UNL     1      -3.400  -4.779   3.260  0.00  0.00    +0.015 C 
ATOM     21  C   UNL     1      -2.517  -4.612   5.591  0.00  0.00    +0.015 C 
ENDBRANCH  15  18
ENDBRANCH  11  12
BRANCH   1  22
ATOM     22  O   UNL     1       1.639  -1.050   1.771  0.00  0.00    -0.472 OA
BRANCH  22  23
ATOM     23  C   UNL     1       2.882  -1.577   2.241  0.00  0.00    +0.259 C 
BRANCH  23  24
ATOM     24  C   UNL     1       3.420  -2.564   1.237  0.00  0.00    +0.258 C 
ATOM     25  O   UNL     1       2.744  -2.890   0.285  0.00  0.00    -0.271 OA
ATOM     26  N   UNL     1       4.653  -3.085   1.398  0.00  0.00    -0.282 N 
ATOM     27  H   UNL     1       5.162  -2.886   2.199  0.00  0.00    +0.155 HD
BRANCH  26  28
ATOM     28  C   UNL     1       5.198  -3.913   0.409  0.00  0.00    +0.034 A 
ATOM     29  C   UNL     1       4.938  -3.658  -0.931  0.00  0.00    +0.025 A 
ATOM     30  C   UNL     1       5.475  -4.474  -1.906  0.00  0.00    +0.025 A 
ATOM     31  C   UNL     1       6.276  -5.551  -1.547  0.00  0.00    +0.033 A 
ATOM     32  C   UNL     1       6.536  -5.806  -0.207  0.00  0.00    +0.025 A 
ATOM     33  C   UNL     1       6.003  -4.986   0.768  0.00  0.00    +0.025 A 
BRANCH  31  34
ATOM     34  N   UNL     1       6.821  -6.379  -2.536  0.00  0.00    -0.286 N 
ATOM     35  C   UNL     1       7.002  -7.692  -2.290  0.00  0.00    +0.214 C 
ATOM     36  O   UNL     1       6.607  -8.175  -1.250  0.00  0.00    -0.276 OA
ATOM     37  C   UNL     1       7.697  -8.560  -3.308  0.00  0.00    +0.109 C 
ATOM     38  H   UNL     1       7.067  -6.008  -3.398  0.00  0.00    +0.155 HD
ENDBRANCH  31  34
ENDBRANCH  26  28
ENDBRANCH  23  24
BRANCH  23  40
ATOM     39  C   UNL     1       2.291  -1.246   4.646  0.00  0.00    +0.008 C 
ATOM     40  C   UNL     1       2.664  -2.280   3.582  0.00  0.00    +0.051 C 
ENDBRANCH  23  40
ENDBRANCH  22  23
ENDBRANCH   1  22
TORSDOF 8
