REMARK  Name = ZINC41016037
REMARK  14 active torsions:
REMARK  status: ('A' for Active; 'I' for Inactive)
REMARK    1  A    between atoms: C_1  and  C_2
REMARK    2  A    between atoms: C_2  and  C_3
REMARK    3  A    between atoms: C_3  and  C_5
REMARK    4  A    between atoms: C_3  and  C_6
REMARK    5  A    between atoms: C_6  and  C_8
REMARK    6  A    between atoms: C_6  and  N_29
REMARK    7  A    between atoms: N_10  and  C_11
REMARK    8  A    between atoms: C_12  and  C_24
REMARK    9  A    between atoms: C_13  and  C_16
REMARK   10  A    between atoms: C_19  and  C_23
REMARK   11  A    between atoms: C_21  and  C_22
REMARK   12  A    between atoms: C_24  and  O_26
REMARK   13  A    between atoms: O_26  and  C_27
REMARK   14  A    between atoms: C_27  and  C_28
REMARK                            x       y       z     vdW  Elec       q    Type
REMARK                         _______ _______ _______ _____ _____    ______ ____
ROOT
ATOM      1  C   UNL     1       0.097   2.055   2.037  0.00  0.00    +0.239 C 
ATOM      2  O   UNL     1       0.817   2.647   2.813  0.00  0.00    -0.273 OA
ATOM      3  N   UNL     1      -0.386   2.688   0.949  0.00  0.00    -0.278 N 
ATOM      4  H   UNL     1      -1.015   2.236   0.365  0.00  0.00    +0.155 HD
ENDROOT
BRANCH   3   5
ATOM      5  C   UNL     1       0.016   3.983   0.666  0.00  0.00    +0.086 A 
ATOM      6  C   UNL     1      -0.379   4.782  -0.396  0.00  0.00    +0.095 A 
ATOM      7  C   UNL     1       0.199   6.113  -0.457  0.00  0.00    +0.005 A 
ATOM      8  C   UNL     1       1.066   6.418   0.543  0.00  0.00    +0.056 A 
ATOM      9  S   UNL     1       1.083   4.942   1.535  0.00  0.00    -0.080 S 
BRANCH   7  10
ATOM     10  C   UNL     1      -0.133   7.072  -1.538  0.00  0.00    -0.014 A 
ATOM     11  C   UNL     1       0.403   6.901  -2.814  0.00  0.00    +0.009 A 
ATOM     12  C   UNL     1       0.089   7.797  -3.816  0.00  0.00    +0.004 A 
ATOM     13  C   UNL     1      -0.753   8.863  -3.555  0.00  0.00    -0.050 A 
ATOM     14  C   UNL     1      -1.287   9.037  -2.292  0.00  0.00    +0.007 A 
ATOM     15  C   UNL     1      -0.987   8.144  -1.283  0.00  0.00    -0.042 A 
ATOM     16  C   UNL     1      -1.575   8.331   0.091  0.00  0.00    +0.044 C 
ATOM     17  C   UNL     1      -1.091   9.838  -4.654  0.00  0.00    +0.044 C 
ENDBRANCH   7  10
BRANCH   6  18
ATOM     18  C   UNL     1      -1.329   4.309  -1.403  0.00  0.00    +0.342 C 
ATOM     19  O   UNL     1      -2.513   4.564  -1.290  0.00  0.00    -0.245 OA
BRANCH  18  20
ATOM     20  O   UNL     1      -0.892   3.589  -2.457  0.00  0.00    -0.461 OA
BRANCH  20  21
ATOM     21  C   UNL     1      -1.874   3.159  -3.401  0.00  0.00    +0.229 C 
ATOM     22  C   UNL     1      -1.195   2.363  -4.517  0.00  0.00    +0.048 C 
ENDBRANCH  20  21
ENDBRANCH  18  20
ENDBRANCH   6  18
ENDBRANCH   3   5
BRANCH   1  23
ATOM     23  C   UNL     1      -0.258   0.612   2.289  0.00  0.00    +0.173 C 
BRANCH  23  24
ATOM     24  N   UNL     1       0.274   0.198   3.590  0.00  0.00    -0.222 N 
ATOM     25  C   UNL     1       1.553   0.360   3.975  0.00  0.00    +0.255 C 
ATOM     26  O   UNL     1       2.436   0.864   3.311  0.00  0.00    -0.270 OA
ATOM     27  C   UNL     1       1.704  -0.178   5.344  0.00  0.00    +0.049 A 
ATOM     28  C   UNL     1       2.763  -0.283   6.231  0.00  0.00    +0.014 A 
ATOM     29  C   UNL     1       2.561  -0.858   7.476  0.00  0.00    +0.001 A 
ATOM     30  C   UNL     1       1.312  -1.327   7.838  0.00  0.00    +0.001 A 
ATOM     31  C   UNL     1       0.244  -1.229   6.960  0.00  0.00    +0.014 A 
ATOM     32  C   UNL     1       0.430  -0.656   5.713  0.00  0.00    +0.049 A 
ATOM     33  C   UNL     1      -0.453  -0.388   4.558  0.00  0.00    +0.255 C 
ATOM     34  O   UNL     1      -1.636  -0.654   4.493  0.00  0.00    -0.270 OA
ENDBRANCH  23  24
BRANCH  23  35
ATOM     35  C   UNL     1       0.348  -0.262   1.189  0.00  0.00    +0.016 C 
ATOM     36  C   UNL     1       1.871  -0.106   1.194  0.00  0.00    +0.010 C 
BRANCH  35  38
ATOM     37  C   UNL     1      -1.528  -1.907   1.301  0.00  0.00    +0.004 C 
ATOM     38  C   UNL     1      -0.015  -1.726   1.442  0.00  0.00    +0.002 C 
ENDBRANCH  35  38
ENDBRANCH  23  35
ENDBRANCH   1  23
TORSDOF 9
