REMARK  Name = ZINC12652049
REMARK  10 active torsions:
REMARK  status: ('A' for Active; 'I' for Inactive)
REMARK    1  A    between atoms: C_1  and  C_2
REMARK    2  A    between atoms: C_2  and  C_39
REMARK    3  A    between atoms: C_6  and  C_28
REMARK    4  A    between atoms: N_8  and  C_16
REMARK    5  A    between atoms: C_16  and  C_17
REMARK    6  A    between atoms: N_19  and  C_20
REMARK    7  A    between atoms: C_20  and  C_21
REMARK    8  A    between atoms: C_21  and  C_22
REMARK    9  A    between atoms: C_33  and  O_34
REMARK   10  A    between atoms: O_34  and  C_35
REMARK                            x       y       z     vdW  Elec       q    Type
REMARK                         _______ _______ _______ _____ _____    ______ ____
ROOT
ATOM      1  C   UNL     1       0.131   1.538   0.193  0.00  0.00    +0.011 C 
ATOM      2  C   UNL     1       0.114   0.009   0.137  0.00  0.00    -0.023 C 
ATOM      3  C   UNL     1      -1.328  -0.495   0.160  0.00  0.00    +0.058 C 
ATOM      4  C   UNL     1      -1.347  -2.014   0.119  0.00  0.00    +0.017 C 
ATOM      5  C   UNL     1      -0.362  -2.723   0.697  0.00  0.00    +0.037 C 
ATOM      6  C   UNL     1      -0.259  -4.228   0.734  0.00  0.00    +0.143 C 
ATOM      7  N   UNL     1      -1.456  -4.924   0.312  0.00  0.00    -0.308 N 
ATOM      8  C   UNL     1      -1.922  -4.822  -0.998  0.00  0.00    +0.052 A 
ATOM      9  C   UNL     1      -1.954  -5.919  -1.843  0.00  0.00    +0.025 A 
ATOM     10  C   UNL     1      -2.380  -5.759  -3.150  0.00  0.00    +0.002 A 
ATOM     11  C   UNL     1      -2.768  -4.514  -3.612  0.00  0.00    +0.002 A 
ATOM     12  C   UNL     1      -2.754  -3.419  -2.765  0.00  0.00    +0.025 A 
ATOM     13  C   UNL     1      -2.349  -3.583  -1.452  0.00  0.00    +0.052 A 
ATOM     14  N   UNL     1      -2.416  -2.553  -0.520  0.00  0.00    -0.316 N 
ATOM     15  C   UNL     1       0.714  -2.059   1.333  0.00  0.00    +0.163 C 
ATOM     16  O   UNL     1       1.577  -2.724   1.870  0.00  0.00    -0.292 OA
ATOM     17  C   UNL     1       0.826  -0.564   1.368  0.00  0.00    +0.086 C 
ATOM     18  C   UNL     1       0.813  -0.471  -1.136  0.00  0.00    +0.011 C 
ATOM     19  H   UNL     1      -3.292  -2.193  -0.311  0.00  0.00    +0.152 HD
ENDROOT
BRANCH   6  20
ATOM     20  C   UNL     1       0.876  -4.651  -0.164  0.00  0.00    +0.019 A 
ATOM     21  C   UNL     1       0.779  -4.472  -1.531  0.00  0.00    +0.009 A 
ATOM     22  C   UNL     1       1.819  -4.860  -2.355  0.00  0.00    +0.001 A 
ATOM     23  C   UNL     1       2.959  -5.427  -1.814  0.00  0.00    +0.004 A 
ATOM     24  C   UNL     1       3.060  -5.607  -0.448  0.00  0.00    +0.046 A 
ATOM     25  C   UNL     1       2.020  -5.214   0.382  0.00  0.00    +0.125 A 
BRANCH  25  26
ATOM     26  O   UNL     1       2.120  -5.385   1.726  0.00  0.00    -0.495 OA
ATOM     27  C   UNL     1       3.327  -5.971   2.218  0.00  0.00    +0.277 C 
ENDBRANCH  25  26
ENDBRANCH   6  20
BRANCH   7  28
ATOM     28  C   UNL     1      -2.189  -5.747   1.277  0.00  0.00    +0.201 C 
BRANCH  28  29
ATOM     29  C   UNL     1      -3.224  -4.902   1.974  0.00  0.00    +0.230 C 
ATOM     30  O   UNL     1      -3.338  -3.728   1.693  0.00  0.00    -0.274 OA
ATOM     31  N   UNL     1      -4.024  -5.452   2.910  0.00  0.00    -0.314 N 
ATOM     32  H   UNL     1      -3.933  -6.391   3.135  0.00  0.00    +0.149 HD
BRANCH  31  33
ATOM     33  C   UNL     1      -5.030  -4.630   3.588  0.00  0.00    +0.110 C 
BRANCH  33  34
ATOM     34  C   UNL     1      -5.796  -5.490   4.595  0.00  0.00    +0.073 C 
BRANCH  34  35
ATOM     35  C   UNL     1      -6.831  -4.646   5.292  0.00  0.00    +0.035 A 
ATOM     36  C   UNL     1      -6.621  -3.868   6.372  0.00  0.00    +0.105 A 
ATOM     37  N   UNL     1      -7.819  -3.280   6.675  0.00  0.00    -0.352 N 
ATOM     38  H   UNL     1      -7.990  -2.664   7.404  0.00  0.00    +0.166 HD
ATOM     39  C   UNL     1      -8.720  -3.719   5.770  0.00  0.00    +0.171 A 
ATOM     40  N   UNL     1      -8.121  -4.532   4.943  0.00  0.00    -0.350 N 
ATOM     41  H   UNL     1      -8.542  -4.983   4.195  0.00  0.00    +0.166 HD
ENDBRANCH  34  35
ENDBRANCH  33  34
ENDBRANCH  31  33
ENDBRANCH  28  29
ENDBRANCH   7  28
TORSDOF 7
