REMARK  Name = ZINC20927954
REMARK  11 active torsions:
REMARK  status: ('A' for Active; 'I' for Inactive)
REMARK    1  A    between atoms: C_1  and  C_2
REMARK    2  A    between atoms: C_2  and  C_26
REMARK    3  A    between atoms: N_3  and  N_4
REMARK    4  A    between atoms: N_4  and  C_5
REMARK    5  A    between atoms: C_8  and  N_23
REMARK    6  A    between atoms: C_10  and  S_11
REMARK    7  A    between atoms: S_11  and  N_14
REMARK    8  A    between atoms: N_14  and  C_15
REMARK    9  A    between atoms: C_18  and  O_21
REMARK   10  A    between atoms: O_21  and  C_22
REMARK   11  A    between atoms: C_31  and  O_32
REMARK                            x       y       z     vdW  Elec       q    Type
REMARK                         _______ _______ _______ _____ _____    ______ ____
ROOT
ATOM      1  C   UNL     1      -3.498   3.249  -0.111  0.00  0.00    +0.075 A 
ATOM      2  C   UNL     1      -2.261   3.864  -0.261  0.00  0.00    +0.029 A 
ATOM      3  C   UNL     1      -1.124   3.095  -0.410  0.00  0.00    +0.035 A 
ATOM      4  C   UNL     1      -1.216   1.715  -0.421  0.00  0.00    +0.128 A 
ATOM      5  C   UNL     1      -2.446   1.100  -0.272  0.00  0.00    +0.063 A 
ATOM      6  C   UNL     1      -3.587   1.862  -0.117  0.00  0.00    +0.133 A 
ENDROOT
BRANCH   6   7
ATOM      7  S   UNL     1      -5.153   1.078   0.074  0.00  0.00    +0.074 S 
ATOM      8  O   UNL     1      -4.922  -0.321  -0.032  0.00  0.00    -0.150 OA
ATOM      9  O   UNL     1      -5.765   1.664   1.214  0.00  0.00    -0.150 OA
BRANCH   7  10
ATOM     10  N   UNL     1      -6.077   1.505  -1.232  0.00  0.00    -0.216 N 
ATOM     11  H   UNL     1      -6.965   2.139  -1.093  0.00  0.00    +0.174 HD
BRANCH  10  12
ATOM     12  C   UNL     1      -5.728   1.060  -2.512  0.00  0.00    +0.048 A 
ATOM     13  C   UNL     1      -4.412   1.150  -2.943  0.00  0.00    +0.028 A 
ATOM     14  C   UNL     1      -4.067   0.705  -4.205  0.00  0.00    +0.047 A 
ATOM     15  C   UNL     1      -5.038   0.180  -5.045  0.00  0.00    +0.120 A 
ATOM     16  C   UNL     1      -6.354   0.095  -4.616  0.00  0.00    +0.047 A 
ATOM     17  C   UNL     1      -6.699   0.534  -3.353  0.00  0.00    +0.028 A 
BRANCH  15  18
ATOM     18  O   UNL     1      -4.699  -0.252  -6.289  0.00  0.00    -0.495 OA
ATOM     19  C   UNL     1      -3.351  -0.030  -6.708  0.00  0.00    +0.277 C 
ENDBRANCH  15  18
ENDBRANCH  10  12
ENDBRANCH   7  10
ENDBRANCH   6   7
BRANCH   4  20
ATOM     20  N   UNL     1       0.004   0.894  -0.587  0.00  0.00    +0.056 N 
ATOM     21  O   UNL     1      -0.075  -0.322  -0.593  0.00  0.00    -0.126 OA
ATOM     22  O   UNL     1       1.087   1.434  -0.724  0.00  0.00    -0.126 OA
ENDBRANCH   4  20
BRANCH   1  23
ATOM     23  N   UNL     1      -4.649   4.023   0.045  0.00  0.00    -0.236 N 
ATOM     24  H   UNL     1      -5.615   3.537   0.246  0.00  0.00    +0.174 HD
BRANCH  23  27
ATOM     25  C   UNL     1      -6.892   5.494   0.676  0.00  0.00    +0.068 C 
ATOM     26  C   UNL     1      -5.623   6.144   0.189  0.00  0.00    +0.067 C 
ATOM     27  N   UNL     1      -4.573   5.418  -0.053  0.00  0.00    -0.187 NA
BRANCH  26  28
ATOM     28  C   UNL     1      -5.572   7.603  -0.014  0.00  0.00    +0.039 A 
ATOM     29  C   UNL     1      -6.660   8.400   0.350  0.00  0.00    +0.013 A 
ATOM     30  C   UNL     1      -6.606   9.765   0.158  0.00  0.00    +0.001 A 
ATOM     31  C   UNL     1      -5.478  10.348  -0.393  0.00  0.00    +0.004 A 
ATOM     32  C   UNL     1      -4.395   9.570  -0.757  0.00  0.00    +0.046 A 
ATOM     33  C   UNL     1      -4.431   8.198  -0.567  0.00  0.00    +0.126 A 
BRANCH  33  34
ATOM     34  O   UNL     1      -3.365   7.433  -0.919  0.00  0.00    -0.506 OA
ATOM     35  H   UNL     1      -2.470   7.903  -1.353  0.00  0.00    +0.292 HD
ENDBRANCH  33  34
ENDBRANCH  26  28
ENDBRANCH  23  27
ENDBRANCH   1  23
TORSDOF 9
