REMARK  Name = ZINC65259900
REMARK  7 active torsions:
REMARK  status: ('A' for Active; 'I' for Inactive)
REMARK    1  A    between atoms: C_1  and  C_2
REMARK    2  A    between atoms: C_6  and  C_8
REMARK    3  A    between atoms: C_8  and  C_9
REMARK    4  A    between atoms: N_26  and  C_27
REMARK    5  A    between atoms: C_27  and  C_28
REMARK    6  A    between atoms: C_28  and  O_29
REMARK    7  A    between atoms: O_29  and  C_30
REMARK                            x       y       z     vdW  Elec       q    Type
REMARK                         _______ _______ _______ _____ _____    ______ ____
ROOT
ATOM      1  C   UNL     1       1.480  -3.080   2.915  0.00  0.00    +0.220 C 
ATOM      2  O   UNL     1       2.393  -2.670   2.230  0.00  0.00    -0.275 OA
ATOM      3  N   UNL     1       1.741  -3.745   4.058  0.00  0.00    -0.299 N 
ATOM      4  C   UNL     1       0.646  -4.253   4.896  0.00  0.00    +0.108 C 
ATOM      5  C   UNL     1       0.864  -5.750   5.139  0.00  0.00    +0.021 C 
ATOM      6  C   UNL     1       2.258  -5.968   5.733  0.00  0.00    +0.036 C 
ATOM      7  C   UNL     1       3.317  -5.471   4.753  0.00  0.00    +0.102 C 
ATOM      8  C   UNL     1       3.126  -3.983   4.487  0.00  0.00    +0.141 C 
ATOM      9  C   UNL     1       4.697  -5.712   5.328  0.00  0.00    +0.098 C 
ATOM     10  N   UNL     1       5.113  -7.029   5.402  0.00  0.00    -0.301 N 
ATOM     11  C   UNL     1       4.761  -7.884   4.344  0.00  0.00    +0.053 A 
ATOM     12  C   UNL     1       5.356  -9.131   4.236  0.00  0.00    +0.025 A 
ATOM     13  C   UNL     1       5.006  -9.976   3.199  0.00  0.00    +0.002 A 
ATOM     14  C   UNL     1       4.061  -9.581   2.269  0.00  0.00    +0.002 A 
ATOM     15  C   UNL     1       3.464  -8.338   2.369  0.00  0.00    +0.025 A 
ATOM     16  C   UNL     1       3.814  -7.482   3.404  0.00  0.00    +0.049 A 
ATOM     17  N   UNL     1       3.221  -6.214   3.490  0.00  0.00    -0.329 N 
ATOM     18  N   UNL     1       5.448  -4.738   5.728  0.00  0.00    -0.372 N 
ATOM     19  H   UNL     1       2.755  -5.835   2.729  0.00  0.00    +0.147 HD
ATOM     20  H   UNL     1       5.131  -3.823   5.663  0.00  0.00    +0.161 HD
ATOM     21  H   UNL     1       5.629  -7.351   6.158  0.00  0.00    +0.153 HD
ENDROOT
BRANCH   1  22
ATOM     22  C   UNL     1       0.054  -2.845   2.489  0.00  0.00    +0.131 C 
BRANCH  22  28
ATOM     23  C   UNL     1      -0.018   1.503   0.010  0.00  0.00    +0.044 C 
ATOM     24  C   UNL     1       0.002  -0.004   0.002  0.00  0.00    -0.050 A 
ATOM     25  C   UNL     1       0.006  -0.689  -1.199  0.00  0.00    +0.003 A 
ATOM     26  C   UNL     1       0.025  -2.071  -1.207  0.00  0.00    +0.001 A 
ATOM     27  C   UNL     1       0.040  -2.768  -0.013  0.00  0.00    +0.004 A 
ATOM     28  C   UNL     1       0.037  -2.084   1.188  0.00  0.00    -0.038 A 
ATOM     29  C   UNL     1       0.023  -0.702   1.195  0.00  0.00    +0.007 A 
ENDBRANCH  22  28
ENDBRANCH   1  22
BRANCH  18  30
ATOM     30  C   UNL     1       6.777  -5.015   6.278  0.00  0.00    +0.141 C 
BRANCH  30  31
ATOM     31  C   UNL     1       7.451  -3.699   6.672  0.00  0.00    +0.180 C 
BRANCH  31  32
ATOM     32  O   UNL     1       6.720  -3.090   7.738  0.00  0.00    -0.381 OA
ATOM     33  C   UNL     1       7.269  -1.848   8.184  0.00  0.00    +0.194 C 
ENDBRANCH  31  32
ENDBRANCH  30  31
ENDBRANCH  18  30
TORSDOF 5
