REMARK  Name = ZINC09705614
REMARK  6 active torsions:
REMARK  status: ('A' for Active; 'I' for Inactive)
REMARK    1  A    between atoms: C_7  and  N_20
REMARK    2  A    between atoms: C_8  and  C_10
REMARK    3  A    between atoms: N_12  and  C_13
REMARK    4  A    between atoms: C_21  and  C_23
REMARK    5  A    between atoms: N_25  and  C_26
REMARK    6  A    between atoms: C_26  and  C_27
REMARK                            x       y       z     vdW  Elec       q    Type
REMARK                         _______ _______ _______ _____ _____    ______ ____
ROOT
ATOM      1  C   UNL     1      -6.985   8.136  -4.947  0.00  0.00    +0.001 A 
ATOM      2  C   UNL     1      -7.136   7.997  -6.320  0.00  0.00    +0.004 A 
ATOM      3  C   UNL     1      -6.489   6.989  -7.001  0.00  0.00    +0.047 A 
ATOM      4  C   UNL     1      -5.675   6.098  -6.310  0.00  0.00    +0.138 A 
ATOM      5  C   UNL     1      -5.532   6.240  -4.919  0.00  0.00    +0.042 A 
ATOM      6  C   UNL     1      -6.190   7.271  -4.248  0.00  0.00    +0.013 A 
ATOM      7  C   UNL     1      -4.621   5.167  -4.501  0.00  0.00    +0.093 A 
ATOM      8  C   UNL     1      -4.305   4.478  -5.640  0.00  0.00    +0.212 A 
ATOM      9  O   UNL     1      -4.935   5.040  -6.696  0.00  0.00    -0.448 OA
ENDROOT
BRANCH   8  10
ATOM     10  C   UNL     1      -3.422   3.315  -5.706  0.00  0.00    +0.286 C 
ATOM     11  O   UNL     1      -2.976   2.831  -4.681  0.00  0.00    -0.266 OA
ATOM     12  N   UNL     1      -3.102   2.778  -6.900  0.00  0.00    -0.277 N 
ATOM     13  H   UNL     1      -3.502   3.128  -7.712  0.00  0.00    +0.155 HD
BRANCH  12  14
ATOM     14  C   UNL     1      -2.193   1.717  -6.969  0.00  0.00    +0.069 A 
ATOM     15  C   UNL     1      -2.133   0.784  -5.942  0.00  0.00    +0.026 A 
ATOM     16  C   UNL     1      -1.238  -0.266  -6.015  0.00  0.00    +0.002 A 
ATOM     17  C   UNL     1      -0.395  -0.384  -7.105  0.00  0.00    +0.003 A 
ATOM     18  C   UNL     1      -0.447   0.545  -8.128  0.00  0.00    +0.040 A 
ATOM     19  C   UNL     1      -1.344   1.596  -8.063  0.00  0.00    +0.144 A 
ATOM     20  F   UNL     1      -1.394   2.504  -9.062  0.00  0.00    -0.204 F 
ENDBRANCH  12  14
ENDBRANCH   8  10
BRANCH   7  21
ATOM     21  N   UNL     1      -4.176   4.902  -3.213  0.00  0.00    -0.274 N 
ATOM     22  C   UNL     1      -4.112   5.896  -2.304  0.00  0.00    +0.303 C 
ATOM     23  O   UNL     1      -4.379   7.034  -2.630  0.00  0.00    -0.265 OA
ATOM     24  H   UNL     1      -3.911   4.002  -2.966  0.00  0.00    +0.155 HD
BRANCH  22  25
ATOM     25  C   UNL     1      -3.713   5.596  -0.896  0.00  0.00    +0.300 C 
ATOM     26  O   UNL     1      -3.446   4.457  -0.571  0.00  0.00    -0.265 OA
ATOM     27  N   UNL     1      -3.649   6.589   0.012  0.00  0.00    -0.303 N 
ATOM     28  H   UNL     1      -3.862   7.499  -0.248  0.00  0.00    +0.149 HD
BRANCH  27  29
ATOM     29  C   UNL     1      -3.258   6.295   1.393  0.00  0.00    +0.147 C 
BRANCH  29  30
ATOM     30  C   UNL     1      -3.265   7.568   2.199  0.00  0.00    +0.007 A 
ATOM     31  C   UNL     1      -4.280   8.127   2.902  0.00  0.00    +0.013 A 
ATOM     32  C   UNL     1      -4.057   9.317   3.570  0.00  0.00    +0.008 A 
ATOM     33  C   UNL     1      -2.830   9.889   3.502  0.00  0.00    +0.045 A 
ATOM     34  S   UNL     1      -1.942   8.735   2.470  0.00  0.00    -0.100 S 
ENDBRANCH  29  30
ENDBRANCH  27  29
ENDBRANCH  22  25
ENDBRANCH   7  21
TORSDOF 6
