REMARK  Name = ZINC28819367
REMARK  4 active torsions:
REMARK  status: ('A' for Active; 'I' for Inactive)
REMARK    1  A    between atoms: C_4  and  C_7
REMARK    2  A    between atoms: C_10  and  C_25
REMARK    3  A    between atoms: C_17  and  C_18
REMARK    4  A    between atoms: C_23  and  O_24
REMARK                            x       y       z     vdW  Elec       q    Type
REMARK                         _______ _______ _______ _____ _____    ______ ____
ROOT
ATOM      1  C   UNL     1       3.708   3.451   0.080  0.00  0.00    +0.010 A 
ATOM      2  C   UNL     1       4.808   4.413   0.089  0.00  0.00    +0.062 A 
ATOM      3  C   UNL     1       6.206   4.149   0.197  0.00  0.00    +0.212 A 
ATOM      4  C   UNL     1       7.112   5.210   0.188  0.00  0.00    +0.163 A 
ATOM      5  C   UNL     1       6.647   6.541   0.071  0.00  0.00    +0.271 A 
ATOM      6  O   UNL     1       7.438   7.468   0.062  0.00  0.00    -0.266 OA
ATOM      7  N   UNL     1       5.324   6.777  -0.031  0.00  0.00    -0.315 N 
ATOM      8  H   UNL     1       4.954   7.809  -0.122  0.00  0.00    +0.169 HD
ATOM      9  C   UNL     1       4.427   5.755  -0.024  0.00  0.00    +0.092 A 
ATOM     10  S   UNL     1       2.656   5.694  -0.142  0.00  0.00    -0.070 S 
ATOM     11  C   UNL     1       2.423   3.931  -0.035  0.00  0.00    +0.033 A 
ATOM     12  O   UNL     1       6.650   2.877   0.309  0.00  0.00    -0.286 OA
ENDROOT
BRANCH   1  16
ATOM     13  C   UNL     1       4.456  -0.719   0.403  0.00  0.00    +0.000 A 
ATOM     14  C   UNL     1       3.972  -0.196  -0.783  0.00  0.00    +0.001 A 
ATOM     15  C   UNL     1       3.727   1.157  -0.894  0.00  0.00    +0.008 A 
ATOM     16  C   UNL     1       3.969   1.999   0.192  0.00  0.00    -0.016 A 
ATOM     17  C   UNL     1       4.463   1.465   1.384  0.00  0.00    +0.008 A 
ATOM     18  C   UNL     1       4.698   0.110   1.484  0.00  0.00    +0.001 A 
ENDBRANCH   1  16
BRANCH  11  19
ATOM     19  C   UNL     1       1.160   3.170  -0.068  0.00  0.00    +0.031 A 
ATOM     20  C   UNL     1       0.916   2.172   0.878  0.00  0.00    +0.012 A 
ATOM     21  C   UNL     1      -0.267   1.464   0.842  0.00  0.00    +0.001 A 
ATOM     22  C   UNL     1      -1.213   1.736  -0.132  0.00  0.00    +0.004 A 
ATOM     23  C   UNL     1      -0.986   2.725  -1.071  0.00  0.00    +0.046 A 
ATOM     24  C   UNL     1       0.197   3.445  -1.048  0.00  0.00    +0.125 A 
BRANCH  24  25
ATOM     25  O   UNL     1       0.423   4.414  -1.973  0.00  0.00    -0.506 OA
ATOM     26  H   UNL     1      -0.334   4.628  -2.742  0.00  0.00    +0.292 HD
ENDBRANCH  24  25
ENDBRANCH  11  19
BRANCH   4  27
ATOM     27  C   UNL     1       8.516   4.951   0.296  0.00  0.00    +0.109 C 
ATOM     28  N   UNL     1       9.630   4.745   0.382  0.00  0.00    -0.191 NA
ENDBRANCH   4  27
TORSDOF 4
