REMARK  Name = ZINC08920388
REMARK  13 active torsions:
REMARK  status: ('A' for Active; 'I' for Inactive)
REMARK    1  A    between atoms: C_1  and  C_2
REMARK    2  A    between atoms: C_2  and  C_3
REMARK    3  A    between atoms: C_3  and  C_4
REMARK    4  A    between atoms: C_3  and  C_5
REMARK    5  A    between atoms: C_3  and  C_6
REMARK    6  A    between atoms: C_15  and  O_37
REMARK    7  A    between atoms: C_17  and  C_20
REMARK    8  A    between atoms: C_23  and  O_29
REMARK    9  A    between atoms: C_24  and  O_26
REMARK   10  A    between atoms: O_26  and  C_27
REMARK   11  A    between atoms: C_27  and  C_28
REMARK   12  A    between atoms: O_29  and  C_30
REMARK   13  A    between atoms: C_30  and  C_31
REMARK                            x       y       z     vdW  Elec       q    Type
REMARK                         _______ _______ _______ _____ _____    ______ ____
ROOT
ATOM      1  C   UNL     1       0.763  -2.041   1.233  0.00  0.00    -0.000 C 
ATOM      2  C   UNL     1       1.508  -2.550   2.470  0.00  0.00    +0.009 C 
ATOM      3  C   UNL     1       1.324  -4.064   2.602  0.00  0.00    +0.037 C 
ATOM      4  C   UNL     1       1.701  -4.720   1.281  0.00  0.00    -0.023 A 
ATOM      5  C   UNL     1       1.762  -4.001   0.136  0.00  0.00    -0.004 A 
ATOM      6  S   UNL     1       2.231  -5.173  -1.108  0.00  0.00    -0.078 S 
ATOM      7  C   UNL     1       2.337  -6.538  -0.173  0.00  0.00    +0.080 A 
ATOM      8  C   UNL     1       2.020  -6.127   1.127  0.00  0.00    +0.068 A 
ATOM      9  C   UNL     1       2.050  -7.157   2.198  0.00  0.00    +0.220 C 
ATOM     10  N   UNL     1       2.121  -8.408   1.833  0.00  0.00    -0.223 NA
ATOM     11  C   UNL     1       2.108  -8.867   0.450  0.00  0.00    +0.224 C 
ATOM     12  N   UNL     1       2.647  -7.847  -0.467  0.00  0.00    -0.313 N 
ATOM     13  C   UNL     1       1.487  -2.539  -0.026  0.00  0.00    +0.046 C 
ATOM     14  H   UNL     1       3.191  -8.084  -1.235  0.00  0.00    +0.149 HD
ENDROOT
BRANCH  11  15
ATOM     15  C   UNL     1       0.690  -9.185   0.050  0.00  0.00    -0.002 A 
ATOM     16  C   UNL     1       0.296  -9.042  -1.267  0.00  0.00    +0.011 A 
ATOM     17  C   UNL     1      -1.003  -9.332  -1.639  0.00  0.00    +0.050 A 
ATOM     18  C   UNL     1      -1.914  -9.768  -0.690  0.00  0.00    +0.162 A 
ATOM     19  C   UNL     1      -1.518  -9.913   0.636  0.00  0.00    +0.162 A 
ATOM     20  C   UNL     1      -0.212  -9.625   1.001  0.00  0.00    +0.056 A 
BRANCH  19  21
ATOM     21  O   UNL     1      -2.408 -10.340   1.571  0.00  0.00    -0.489 OA
BRANCH  21  22
ATOM     22  C   UNL     1      -1.931 -10.465   2.912  0.00  0.00    +0.226 C 
ATOM     23  C   UNL     1      -3.066 -10.954   3.814  0.00  0.00    +0.048 C 
ENDBRANCH  21  22
ENDBRANCH  19  21
BRANCH  18  24
ATOM     24  O   UNL     1      -3.193 -10.054  -1.054  0.00  0.00    -0.484 OA
BRANCH  24  25
ATOM     25  C   UNL     1      -3.529  -9.882  -2.432  0.00  0.00    +0.264 C 
BRANCH  25  26
ATOM     26  C   UNL     1      -4.977 -10.243  -2.645  0.00  0.00    -0.010 A 
ATOM     27  C   UNL     1      -5.326 -11.544  -2.955  0.00  0.00    +0.007 A 
ATOM     28  C   UNL     1      -6.653 -11.876  -3.151  0.00  0.00    +0.000 A 
ATOM     29  C   UNL     1      -7.632 -10.906  -3.035  0.00  0.00    +0.000 A 
ATOM     30  C   UNL     1      -7.283  -9.606  -2.724  0.00  0.00    +0.000 A 
ATOM     31  C   UNL     1      -5.956  -9.275  -2.525  0.00  0.00    +0.007 A 
ENDBRANCH  25  26
ENDBRANCH  24  25
ENDBRANCH  18  24
ENDBRANCH  11  15
BRANCH   1  32
ATOM     32  C   UNL     1       0.742  -0.511   1.242  0.00  0.00    -0.032 C 
ATOM     33  C   UNL     1       2.178   0.019   1.231  0.00  0.00    +0.011 C 
ATOM     34  C   UNL     1       0.026  -0.018   2.500  0.00  0.00    +0.011 C 
BRANCH  32  36
ATOM     35  C   UNL     1      -0.019   1.526   0.010  0.00  0.00    +0.004 C 
ATOM     36  C   UNL     1       0.002  -0.004   0.002  0.00  0.00    +0.003 C 
ENDBRANCH  32  36
ENDBRANCH   1  32
BRANCH   9  37
ATOM     37  O   UNL     1       2.005  -6.809   3.505  0.00  0.00    -0.492 OA
ATOM     38  H   UNL     1       2.030  -7.561   4.113  0.00  0.00    +0.294 HD
ENDBRANCH   9  37
TORSDOF 9
