REMARK  Name = ZINC40850739
REMARK  11 active torsions:
REMARK  status: ('A' for Active; 'I' for Inactive)
REMARK    1  A    between atoms: C_1  and  C_2
REMARK    2  A    between atoms: C_4  and  C_30
REMARK    3  A    between atoms: C_9  and  C_29
REMARK    4  A    between atoms: C_10  and  C_28
REMARK    5  A    between atoms: C_11  and  S_13
REMARK    6  A    between atoms: S_13  and  C_14
REMARK    7  A    between atoms: C_14  and  C_15
REMARK    8  A    between atoms: C_15  and  C_16
REMARK    9  A    between atoms: N_18  and  C_19
REMARK   10  A    between atoms: C_22  and  O_26
REMARK   11  A    between atoms: O_26  and  C_27
REMARK                            x       y       z     vdW  Elec       q    Type
REMARK                         _______ _______ _______ _____ _____    ______ ____
ROOT
ATOM      1  S   UNL     1       0.128  -7.129   0.905  0.00  0.00    -0.105 S 
ENDROOT
BRANCH   1  12
ATOM      2  C   UNL     1      -0.060   1.502   0.011  0.00  0.00    +0.067 C 
ATOM      3  C   UNL     1      -0.031  -0.005   0.003  0.00  0.00    +0.061 A 
ATOM      4  C   UNL     1      -0.025  -0.818  -1.137  0.00  0.00    +0.048 A 
ATOM      5  C   UNL     1       0.003  -2.107  -0.730  0.00  0.00    +0.045 A 
ATOM      6  N   UNL     1       0.016  -2.109   0.629  0.00  0.00    -0.202 N 
ATOM      7  N   UNL     1      -0.000  -0.776   1.059  0.00  0.00    -0.169 NA
ATOM      8  C   UNL     1       0.045  -3.237   1.450  0.00  0.00    +0.253 A 
ATOM      9  N   UNL     1       0.049  -3.079   2.763  0.00  0.00    -0.216 NA
ATOM     10  C   UNL     1       0.076  -4.125   3.576  0.00  0.00    +0.047 A 
ATOM     11  C   UNL     1       0.101  -5.397   3.039  0.00  0.00    +0.003 A 
ATOM     12  C   UNL     1       0.097  -5.532   1.648  0.00  0.00    +0.105 A 
ATOM     13  N   UNL     1       0.064  -4.437   0.894  0.00  0.00    -0.204 NA
ATOM     14  C   UNL     1       0.133  -6.610   3.932  0.00  0.00    +0.048 C 
ATOM     15  C   UNL     1       0.081  -3.929   5.070  0.00  0.00    +0.066 C 
ATOM     16  C   UNL     1       0.018  -3.322  -1.622  0.00  0.00    +0.066 C 
ENDBRANCH   1  12
BRANCH   1  17
ATOM     17  C   UNL     1       0.111  -6.785  -0.876  0.00  0.00    +0.085 C 
BRANCH  17  18
ATOM     18  C   UNL     1       0.136  -8.104  -1.651  0.00  0.00    +0.107 C 
BRANCH  18  19
ATOM     19  C   UNL     1       0.122  -7.818  -3.130  0.00  0.00    +0.218 C 
ATOM     20  O   UNL     1       0.094  -6.672  -3.526  0.00  0.00    -0.275 OA
ATOM     21  N   UNL     1       0.140  -8.836  -4.013  0.00  0.00    -0.285 N 
ATOM     22  H   UNL     1       0.229  -9.749  -3.699  0.00  0.00    +0.155 HD
BRANCH  21  23
ATOM     23  C   UNL     1       0.029  -8.575  -5.385  0.00  0.00    +0.035 A 
ATOM     24  C   UNL     1      -0.659  -9.458  -6.207  0.00  0.00    +0.027 A 
ATOM     25  C   UNL     1      -0.769  -9.200  -7.559  0.00  0.00    +0.049 A 
ATOM     26  C   UNL     1      -0.192  -8.059  -8.098  0.00  0.00    +0.138 A 
ATOM     27  C   UNL     1       0.496  -7.176  -7.277  0.00  0.00    +0.084 A 
ATOM     28  C   UNL     1       0.601  -7.430  -5.923  0.00  0.00    +0.047 A 
ATOM     29 CL   UNL     1       1.218  -5.748  -7.951  0.00  0.00    -0.080 Cl
BRANCH  26  30
ATOM     30  O   UNL     1      -0.301  -7.806  -9.429  0.00  0.00    -0.494 OA
ATOM     31  C   UNL     1      -1.022  -8.758 -10.214  0.00  0.00    +0.277 C 
ENDBRANCH  26  30
ENDBRANCH  21  23
ENDBRANCH  18  19
ENDBRANCH  17  18
ENDBRANCH   1  17
TORSDOF 6
