REMARK  Name = ZINC38979523
REMARK  7 active torsions:
REMARK  status: ('A' for Active; 'I' for Inactive)
REMARK    1  A    between atoms: C_1  and  O_2
REMARK    2  A    between atoms: O_2  and  C_3
REMARK    3  A    between atoms: C_6  and  S_9
REMARK    4  A    between atoms: S_9  and  N_12
REMARK    5  A    between atoms: C_14  and  N_24
REMARK    6  A    between atoms: N_24  and  C_25
REMARK    7  A    between atoms: C_29  and  N_31
REMARK                            x       y       z     vdW  Elec       q    Type
REMARK                         _______ _______ _______ _____ _____    ______ ____
ROOT
ATOM      1  N   UNL     1       4.180  -2.659  -4.444  0.00  0.00    -0.110 NA
ATOM      2  C   UNL     1       5.039  -3.320  -5.162  0.00  0.00    +0.192 C 
ATOM      3  C   UNL     1       6.436  -3.576  -4.644  0.00  0.00    +0.237 C 
ATOM      4  N   UNL     1       7.361  -4.330  -5.504  0.00  0.00    -0.359 N 
ATOM      5  C   UNL     1       6.935  -4.741  -6.666  0.00  0.00    +0.063 A 
ATOM      6  C   UNL     1       7.819  -5.499  -7.563  0.00  0.00    +0.027 A 
ATOM      7  C   UNL     1       7.342  -5.908  -8.759  0.00  0.00    +0.002 A 
ATOM      8  C   UNL     1       6.026  -5.627  -9.164  0.00  0.00    +0.002 A 
ATOM      9  C   UNL     1       5.156  -4.936  -8.395  0.00  0.00    +0.030 A 
ATOM     10  C   UNL     1       5.551  -4.459  -7.119  0.00  0.00    +0.089 A 
ATOM     11  N   UNL     1       4.697  -3.790  -6.372  0.00  0.00    -0.226 NA
ATOM     12  H   UNL     1       8.267  -4.518  -5.213  0.00  0.00    +0.162 HD
ENDROOT
BRANCH   1  13
ATOM     13  S   UNL     1       2.651  -2.392  -5.021  0.00  0.00    +0.100 S 
ATOM     14  O   UNL     1       2.019  -3.662  -5.103  0.00  0.00    -0.146 OA
ATOM     15  O   UNL     1       2.785  -1.534  -6.146  0.00  0.00    -0.146 OA
BRANCH  13  19
ATOM     16  C   UNL     1       0.419  -0.039  -1.860  0.00  0.00    +0.120 A 
ATOM     17  C   UNL     1       1.130   0.626  -2.848  0.00  0.00    +0.047 A 
ATOM     18  C   UNL     1       1.811  -0.094  -3.811  0.00  0.00    +0.032 A 
ATOM     19  C   UNL     1       1.782  -1.476  -3.791  0.00  0.00    +0.113 A 
ATOM     20  C   UNL     1       1.074  -2.141  -2.808  0.00  0.00    +0.032 A 
ATOM     21  C   UNL     1       0.397  -1.426  -1.839  0.00  0.00    +0.047 A 
BRANCH  16  23
ATOM     22  C   UNL     1      -0.184   2.092  -0.996  0.00  0.00    +0.277 C 
ATOM     23  O   UNL     1      -0.251   0.667  -0.912  0.00  0.00    -0.495 OA
ENDBRANCH  16  23
ENDBRANCH  13  19
ENDBRANCH   1  13
BRANCH   3  24
ATOM     24  N   UNL     1       7.052  -2.277  -4.358  0.00  0.00    -0.318 N 
ATOM     25  H   UNL     1       6.954  -1.545  -4.987  0.00  0.00    +0.148 HD
BRANCH  24  26
ATOM     26  C   UNL     1       7.780  -2.094  -3.179  0.00  0.00    +0.031 A 
ATOM     27  C   UNL     1       8.229  -0.826  -2.829  0.00  0.00    +0.024 A 
ATOM     28  C   UNL     1       8.948  -0.648  -1.664  0.00  0.00    +0.024 A 
ATOM     29  C   UNL     1       9.223  -1.730  -0.846  0.00  0.00    +0.071 A 
ATOM     30  C   UNL     1       8.778  -2.993  -1.193  0.00  0.00    +0.146 A 
ATOM     31  C   UNL     1       8.052  -3.177  -2.354  0.00  0.00    +0.057 A 
ATOM     32 CL   UNL     1      10.128  -1.502   0.618  0.00  0.00    -0.081 Cl
BRANCH  30  33
ATOM     33  N   UNL     1       9.074  -4.148  -0.316  0.00  0.00    +0.058 N 
ATOM     34  O   UNL     1       8.685  -5.252  -0.618  0.00  0.00    -0.126 OA
ATOM     35  O   UNL     1       9.704  -3.987   0.704  0.00  0.00    -0.126 OA
ENDBRANCH  30  33
ENDBRANCH  24  26
ENDBRANCH   3  24
TORSDOF 6
