REMARK  Name = ZINC35836995
REMARK  15 active torsions:
REMARK  status: ('A' for Active; 'I' for Inactive)
REMARK    1  A    between atoms: C_1  and  C_2
REMARK    2  A    between atoms: C_2  and  O_3
REMARK    3  A    between atoms: O_3  and  C_4
REMARK    4  A    between atoms: C_4  and  C_6
REMARK    5  A    between atoms: N_8  and  C_28
REMARK    6  A    between atoms: C_13  and  C_24
REMARK    7  A    between atoms: C_14  and  C_16
REMARK    8  A    between atoms: C_19  and  O_22
REMARK    9  A    between atoms: O_22  and  C_23
REMARK   10  A    between atoms: C_24  and  N_25
REMARK   11  A    between atoms: N_25  and  C_26
REMARK   12  A    between atoms: N_25  and  C_27
REMARK   13  A    between atoms: C_28  and  C_29
REMARK   14  A    between atoms: C_34  and  O_35
REMARK   15  A    between atoms: O_35  and  C_36
REMARK                            x       y       z     vdW  Elec       q    Type
REMARK                         _______ _______ _______ _____ _____    ______ ____
ROOT
ATOM      1  C   UNL     1      -3.053  -2.424  -0.534  0.00  0.00    +0.122 A 
ATOM      2  C   UNL     1      -3.224  -3.761  -0.242  0.00  0.00    +0.106 A 
ATOM      3  N   UNL     1      -4.443  -4.255   0.032  0.00  0.00    -0.336 N 
ATOM      4  C   UNL     1      -5.559  -3.486   0.040  0.00  0.00    +0.092 A 
ATOM      5  C   UNL     1      -5.545  -2.112  -0.236  0.00  0.00    +0.055 A 
ATOM      6  C   UNL     1      -4.216  -1.530  -0.538  0.00  0.00    +0.204 A 
ATOM      7  O   UNL     1      -4.093  -0.342  -0.788  0.00  0.00    -0.286 OA
ATOM      8  C   UNL     1      -6.792  -1.463  -0.186  0.00  0.00    -0.036 A 
ATOM      9  C   UNL     1      -7.910  -2.170   0.116  0.00  0.00    +0.023 A 
ATOM     10  S   UNL     1      -7.277  -3.821   0.354  0.00  0.00    -0.070 S 
ENDROOT
BRANCH   9  11
ATOM     11  C   UNL     1      -9.305  -1.692   0.222  0.00  0.00    -0.011 A 
ATOM     12  C   UNL     1     -10.327  -2.360  -0.455  0.00  0.00    +0.012 A 
ATOM     13  C   UNL     1     -11.626  -1.911  -0.354  0.00  0.00    +0.046 A 
ATOM     14  C   UNL     1     -11.919  -0.796   0.420  0.00  0.00    +0.120 A 
ATOM     15  C   UNL     1     -10.905  -0.128   1.094  0.00  0.00    +0.046 A 
ATOM     16  C   UNL     1      -9.604  -0.575   1.003  0.00  0.00    +0.012 A 
BRANCH  14  17
ATOM     17  O   UNL     1     -13.201  -0.356   0.517  0.00  0.00    -0.495 OA
ATOM     18  C   UNL     1     -13.432   0.796   1.329  0.00  0.00    +0.277 C 
ENDBRANCH  14  17
ENDBRANCH   9  11
BRANCH   1  19
ATOM     19  C   UNL     1      -1.714  -1.897  -0.832  0.00  0.00    +0.344 C 
ATOM     20  O   UNL     1      -0.753  -2.642  -0.827  0.00  0.00    -0.245 OA
BRANCH  19  21
ATOM     21  O   UNL     1      -1.551  -0.589  -1.111  0.00  0.00    -0.461 OA
BRANCH  21  23
ATOM     22  C   UNL     1      -0.235   1.356  -1.683  0.00  0.00    +0.048 C 
ATOM     23  C   UNL     1      -0.221  -0.146  -1.392  0.00  0.00    +0.229 C 
ENDBRANCH  21  23
ENDBRANCH  19  21
ENDBRANCH   1  19
BRANCH   8  24
ATOM     24  C   UNL     1      -6.886   0.015  -0.466  0.00  0.00    -0.042 C 
BRANCH  24  25
ATOM     25  N   UNL     1      -6.940   0.235  -1.918  0.00  0.00    +0.379 N 
ATOM     26  C   UNL     1      -8.187  -0.328  -2.453  0.00  0.00    -0.096 C 
ATOM     27  C   UNL     1      -6.895   1.677  -2.196  0.00  0.00    -0.096 C 
ATOM     28  H   UNL     1      -6.151  -0.217  -2.356  0.00  0.00    -0.082 HD
ENDBRANCH  24  25
ENDBRANCH   8  24
BRANCH   3  29
ATOM     29  C   UNL     1      -4.572  -5.682   0.335  0.00  0.00    +0.161 C 
BRANCH  29  30
ATOM     30  C   UNL     1      -4.416  -5.897   1.818  0.00  0.00    +0.014 A 
ATOM     31  C   UNL     1      -3.208  -6.329   2.332  0.00  0.00    +0.009 A 
ATOM     32  C   UNL     1      -3.065  -6.527   3.692  0.00  0.00    +0.001 A 
ATOM     33  C   UNL     1      -4.130  -6.293   4.543  0.00  0.00    +0.004 A 
ATOM     34  C   UNL     1      -5.340  -5.861   4.035  0.00  0.00    +0.046 A 
ATOM     35  C   UNL     1      -5.484  -5.656   2.670  0.00  0.00    +0.125 A 
BRANCH  35  36
ATOM     36  O   UNL     1      -6.671  -5.226   2.169  0.00  0.00    -0.495 OA
ATOM     37  C   UNL     1      -7.727  -4.998   3.105  0.00  0.00    +0.277 C 
ENDBRANCH  35  36
ENDBRANCH  29  30
ENDBRANCH   3  29
TORSDOF 10
