REMARK  Name = ZINC38964868
REMARK  6 active torsions:
REMARK  status: ('A' for Active; 'I' for Inactive)
REMARK    1  A    between atoms: C_1  and  C_2
REMARK    2  A    between atoms: C_2  and  N_3
REMARK    3  A    between atoms: C_4  and  C_29
REMARK    4  A    between atoms: C_7  and  S_8
REMARK    5  A    between atoms: S_8  and  C_9
REMARK    6  A    between atoms: C_11  and  C_22
REMARK                            x       y       z     vdW  Elec       q    Type
REMARK                         _______ _______ _______ _____ _____    ______ ____
ROOT
ATOM      1  C   UNL     1      -3.294  -0.837  -3.654  0.00  0.00    +0.171 C 
ATOM      2  C   UNL     1      -3.133  -0.386  -5.093  0.00  0.00    -0.008 C 
ATOM      3  C   UNL     1      -3.220  -1.371  -6.081  0.00  0.00    +0.002 A 
ATOM      4  C   UNL     1      -3.082  -1.036  -7.444  0.00  0.00    +0.011 A 
ATOM      5  C   UNL     1      -3.170  -2.010  -8.389  0.00  0.00    +0.021 A 
ATOM      6  C   UNL     1      -3.396  -3.341  -8.040  0.00  0.00    +0.043 A 
ATOM      7  C   UNL     1      -3.539  -3.727  -6.729  0.00  0.00    +0.044 A 
ATOM      8  C   UNL     1      -3.457  -2.769  -5.705  0.00  0.00    +0.042 A 
ATOM      9  N   UNL     1      -3.595  -3.146  -4.428  0.00  0.00    -0.284 N 
ATOM     10  C   UNL     1      -3.534  -2.310  -3.412  0.00  0.00    +0.235 C 
ATOM     11  O   UNL     1      -3.669  -2.724  -2.276  0.00  0.00    -0.274 OA
ATOM     12 CL   UNL     1      -3.500  -4.539  -9.291  0.00  0.00    -0.083 Cl
ATOM     13  H   UNL     1      -3.751  -4.085  -4.242  0.00  0.00    +0.155 HD
ENDROOT
BRANCH   2  14
ATOM     14  C   UNL     1      -2.905   0.973  -5.421  0.00  0.00    -0.001 A 
ATOM     15  C   UNL     1      -1.596   1.444  -5.617  0.00  0.00    +0.010 A 
ATOM     16  C   UNL     1      -1.385   2.766  -5.937  0.00  0.00    +0.001 A 
ATOM     17  C   UNL     1      -2.459   3.634  -6.065  0.00  0.00    +0.001 A 
ATOM     18  C   UNL     1      -3.753   3.182  -5.874  0.00  0.00    +0.020 A 
ATOM     19  C   UNL     1      -3.988   1.859  -5.559  0.00  0.00    +0.048 A 
ATOM     20 CL   UNL     1      -5.612   1.294  -5.327  0.00  0.00    -0.083 Cl
ENDBRANCH   2  14
BRANCH   1  21
ATOM     21  S   UNL     1      -1.795  -0.361  -2.750  0.00  0.00    -0.068 S 
BRANCH  21  26
ATOM     22  N   UNL     1      -1.375  -0.492   0.012  0.00  0.00    -0.302 N 
ATOM     23  C   UNL     1      -2.108  -0.882   1.109  0.00  0.00    +0.165 A 
ATOM     24  N   UNL     1      -3.277  -1.284   0.668  0.00  0.00    -0.128 NA
ATOM     25  N   UNL     1      -3.325  -1.174  -0.611  0.00  0.00    -0.122 NA
ATOM     26  C   UNL     1      -2.191  -0.690  -1.065  0.00  0.00    +0.193 A 
BRANCH  23  27
ATOM     27  C   UNL     1      -1.662  -0.853   2.519  0.00  0.00    +0.019 A 
ATOM     28  C   UNL     1      -0.588  -0.047   2.898  0.00  0.00    +0.011 A 
ATOM     29  C   UNL     1      -0.177  -0.025   4.215  0.00  0.00    +0.001 A 
ATOM     30  C   UNL     1      -0.828  -0.801   5.158  0.00  0.00    +0.000 A 
ATOM     31  C   UNL     1      -1.893  -1.602   4.789  0.00  0.00    +0.001 A 
ATOM     32  C   UNL     1      -2.318  -1.628   3.477  0.00  0.00    +0.011 A 
ENDBRANCH  23  27
BRANCH  22  34
ATOM     33  C   UNL     1      -0.046   1.561   0.020  0.00  0.00    +0.027 C 
ATOM     34  C   UNL     1      -0.007   0.032   0.002  0.00  0.00    +0.122 C 
ENDBRANCH  22  34
ENDBRANCH  21  26
ENDBRANCH   1  21
TORSDOF 5
