REMARK  Name = ZINC16475005
REMARK  12 active torsions:
REMARK  status: ('A' for Active; 'I' for Inactive)
REMARK    1  A    between atoms: C_1  and  C_2
REMARK    2  A    between atoms: C_2  and  C_3
REMARK    3  A    between atoms: C_3  and  C_4
REMARK    4  A    between atoms: C_4  and  N_5
REMARK    5  A    between atoms: N_5  and  C_6
REMARK    6  A    between atoms: C_7  and  N_22
REMARK    7  A    between atoms: N_8  and  C_15
REMARK    8  A    between atoms: C_15  and  C_16
REMARK    9  A    between atoms: C_23  and  C_25
REMARK   10  A    between atoms: C_25  and  N_67
REMARK   11  A    between atoms: C_27  and  C_34
REMARK   12  A    between atoms: C_30  and  C_33
REMARK                            x       y       z     vdW  Elec       q    Type
REMARK                         _______ _______ _______ _____ _____    ______ ____
ROOT
ATOM      1  C   UNL     1       4.012   3.548  -3.338  0.00  0.00    +0.140 A 
ATOM      2  C   UNL     1       2.664   3.673  -3.606  0.00  0.00    +0.128 A 
ATOM      3  N   UNL     1       1.907   4.536  -2.849  0.00  0.00    -0.276 N 
ATOM      4  C   UNL     1       2.471   5.241  -1.851  0.00  0.00    +0.331 A 
ATOM      5  O   UNL     1       1.783   5.995  -1.190  0.00  0.00    -0.246 OA
ATOM      6  N   UNL     1       3.781   5.128  -1.572  0.00  0.00    -0.273 N 
ATOM      7  H   UNL     1       4.176   5.663  -0.826  0.00  0.00    +0.173 HD
ATOM      8  C   UNL     1       4.569   4.301  -2.287  0.00  0.00    +0.277 A 
ATOM      9  O   UNL     1       5.756   4.205  -2.026  0.00  0.00    -0.266 OA
ENDROOT
BRANCH   1  10
ATOM     10  N   UNL     1       4.817   2.675  -4.101  0.00  0.00    -0.266 N 
ATOM     11  C   UNL     1       5.372   1.590  -3.521  0.00  0.00    +0.203 C 
ATOM     12  O   UNL     1       5.107   1.315  -2.369  0.00  0.00    -0.277 OA
BRANCH  10  13
ATOM     13  C   UNL     1       5.050   2.946  -5.521  0.00  0.00    +0.114 C 
BRANCH  13  14
ATOM     14  C   UNL     1       6.368   3.707  -5.685  0.00  0.00    +0.019 C 
BRANCH  14  16
ATOM     15  C   UNL     1       7.928   4.752  -7.333  0.00  0.00    +0.004 C 
ATOM     16  C   UNL     1       6.611   3.991  -7.169  0.00  0.00    -0.002 C 
ENDBRANCH  14  16
ENDBRANCH  13  14
ENDBRANCH  10  13
BRANCH  11  17
ATOM     17  C   UNL     1       6.321   0.720  -4.304  0.00  0.00    +0.019 C 
BRANCH  17  25
ATOM     18  C   UNL     1       7.598   0.110  -2.340  0.00  0.00    -0.075 C 
ATOM     19  C   UNL     1       7.939  -1.048  -1.400  0.00  0.00    -0.031 C 
ATOM     20  C   UNL     1       8.707  -2.121  -2.178  0.00  0.00    +0.003 C 
ATOM     21  C   UNL     1       7.857  -2.587  -3.363  0.00  0.00    -0.031 C 
ATOM     22  C   UNL     1       7.518  -1.384  -4.246  0.00  0.00    -0.075 C 
ATOM     23  C   UNL     1       6.564  -3.222  -2.846  0.00  0.00    +0.005 C 
ATOM     24  C   UNL     1       8.806  -0.534  -0.249  0.00  0.00    +0.005 C 
ATOM     25  N   UNL     1       6.759  -0.400  -3.445  0.00  0.00    +0.386 N 
ATOM     26  H   UNL     1       5.931  -0.860  -3.049  0.00  0.00    -0.081 HD
ENDBRANCH  17  25
ENDBRANCH  11  17
ENDBRANCH   1  10
BRANCH   2  27
ATOM     27  N   UNL     1       2.087   2.949  -4.621  0.00  0.00    -0.343 N 
ATOM     28  H   UNL     1       1.131   3.005  -4.774  0.00  0.00    +0.144 HD
ATOM     29  H   UNL     1       2.636   2.381  -5.185  0.00  0.00    +0.144 HD
ENDBRANCH   2  27
BRANCH   3  30
ATOM     30  C   UNL     1       0.476   4.683  -3.126  0.00  0.00    +0.163 C 
BRANCH  30  31
ATOM     31  C   UNL     1       0.269   5.789  -4.128  0.00  0.00    -0.028 A 
ATOM     32  C   UNL     1       0.266   5.505  -5.481  0.00  0.00    +0.005 A 
ATOM     33  C   UNL     1       0.075   6.519  -6.400  0.00  0.00    +0.000 A 
ATOM     34  C   UNL     1      -0.106   7.819  -5.967  0.00  0.00    +0.000 A 
ATOM     35  C   UNL     1      -0.106   8.104  -4.614  0.00  0.00    +0.000 A 
ATOM     36  C   UNL     1       0.083   7.089  -3.695  0.00  0.00    +0.005 A 
ENDBRANCH  30  31
ENDBRANCH   3  30
TORSDOF 9
