REMARK  Name = ZINC06149230
REMARK  12 active torsions:
REMARK  status: ('A' for Active; 'I' for Inactive)
REMARK    1  A    between atoms: C_1  and  C_2
REMARK    2  A    between atoms: C_2  and  C_3
REMARK    3  A    between atoms: C_3  and  C_4
REMARK    4  A    between atoms: C_3  and  C_5
REMARK    5  A    between atoms: C_3  and  N_6
REMARK    6  A    between atoms: C_7  and  C_11
REMARK    7  A    between atoms: C_11  and  C_13
REMARK    8  A    between atoms: C_11  and  N_69
REMARK    9  A    between atoms: C_28  and  C_29
REMARK   10  A    between atoms: C_28  and  N_69
REMARK   11  A    between atoms: C_35  and  C_36
REMARK   12  A    between atoms: C_35  and  N_69
REMARK                            x       y       z     vdW  Elec       q    Type
REMARK                         _______ _______ _______ _____ _____    ______ ____
ROOT
ATOM      1  C   UNL     1      -2.802   2.469  -0.287  0.00  0.00    +0.040 C 
ENDROOT
BRANCH   1   2
ATOM      2  C   UNL     1      -1.551   1.668  -0.541  0.00  0.00    +0.011 A 
ATOM      3  C   UNL     1      -0.380   2.305  -0.799  0.00  0.00    +0.017 A 
ATOM      4  C   UNL     1       0.815   1.499  -1.046  0.00  0.00    +0.002 A 
ATOM      5  C   UNL     1       2.048   2.103  -1.321  0.00  0.00    +0.059 A 
ATOM      6  C   UNL     1       3.158   1.318  -1.544  0.00  0.00    +0.167 A 
ATOM      7  C   UNL     1       3.055  -0.078  -1.497  0.00  0.00    +0.168 A 
ATOM      8  C   UNL     1       1.841  -0.682  -1.228  0.00  0.00    +0.075 A 
ATOM      9  C   UNL     1       0.713   0.095  -1.000  0.00  0.00    +0.053 A 
ATOM     10  N   UNL     1      -0.507  -0.490  -0.728  0.00  0.00    -0.322 N 
ATOM     11  H   UNL     1      -0.578  -1.487  -0.695  0.00  0.00    +0.169 HD
ATOM     12  C   UNL     1      -1.600   0.260  -0.505  0.00  0.00    +0.251 A 
ATOM     13  O   UNL     1      -2.661  -0.292  -0.267  0.00  0.00    -0.268 OA
ATOM     14  O   UNL     1       4.286  -0.611  -1.750  0.00  0.00    -0.453 OA
ATOM     15  C   UNL     1       5.221   0.464  -1.543  0.00  0.00    +0.466 C 
ATOM     16  O   UNL     1       4.453   1.648  -1.825  0.00  0.00    -0.453 OA
ENDBRANCH   1   2
BRANCH   1  18
ATOM     17  N   UNL     1      -3.107   3.101   2.165  0.00  0.00    -0.225 N 
ATOM     18  C   UNL     1      -3.258   2.251   1.132  0.00  0.00    +0.143 A 
ATOM     19  N   UNL     1      -3.885   1.199   1.600  0.00  0.00    -0.115 NA
ATOM     20  N   UNL     1      -4.100   1.389   2.856  0.00  0.00    -0.023 NA
ATOM     21  N   UNL     1      -3.634   2.538   3.200  0.00  0.00    -0.043 NA
BRANCH  17  22
ATOM     22  C   UNL     1      -2.465   4.417   2.122  0.00  0.00    +0.061 C 
ATOM     23  C   UNL     1      -1.030   4.268   1.613  0.00  0.00    +0.036 C 
ATOM     24  C   UNL     1      -3.247   5.335   1.181  0.00  0.00    +0.036 C 
BRANCH  22  26
ATOM     25  C   UNL     1      -1.778   6.397   3.482  0.00  0.00    +0.006 C 
ATOM     26  C   UNL     1      -2.448   5.022   3.527  0.00  0.00    +0.026 C 
ENDBRANCH  22  26
ENDBRANCH  17  22
ENDBRANCH   1  18
BRANCH   1  27
ATOM     27  N   UNL     1      -3.868   2.012  -1.203  0.00  0.00    +0.397 N 
ATOM     28  H   UNL     1      -4.236   1.115  -0.865  0.00  0.00    -0.079 HD
BRANCH  27  29
ATOM     29  C   UNL     1      -4.965   3.001  -1.235  0.00  0.00    -0.041 C 
BRANCH  29  30
ATOM     30  C   UNL     1      -5.933   2.679  -0.125  0.00  0.00    -0.064 A 
ATOM     31  C   UNL     1      -6.891   1.699  -0.306  0.00  0.00    +0.002 A 
ATOM     32  C   UNL     1      -7.775   1.401   0.714  0.00  0.00    +0.000 A 
ATOM     33  C   UNL     1      -7.708   2.089   1.911  0.00  0.00    +0.000 A 
ATOM     34  C   UNL     1      -6.754   3.073   2.089  0.00  0.00    +0.000 A 
ATOM     35  C   UNL     1      -5.866   3.368   1.072  0.00  0.00    +0.002 A 
ENDBRANCH  29  30
ENDBRANCH  27  29
BRANCH  27  36
ATOM     36  C   UNL     1      -3.318   1.823  -2.563  0.00  0.00    -0.001 C 
BRANCH  36  37
ATOM     37  C   UNL     1      -4.340   1.101  -3.403  0.00  0.00    +0.089 A 
ATOM     38  C   UNL     1      -5.222   1.679  -4.239  0.00  0.00    +0.042 A 
ATOM     39  C   UNL     1      -5.982   0.637  -4.817  0.00  0.00    +0.041 A 
ATOM     40  C   UNL     1      -5.519  -0.516  -4.300  0.00  0.00    +0.195 A 
ATOM     41  O   UNL     1      -4.521  -0.229  -3.449  0.00  0.00    -0.470 OA
ENDBRANCH  36  37
ENDBRANCH  27  36
ENDBRANCH   1  27
TORSDOF 9
