REMARK  Name = ZINC42135437
REMARK  3 active torsions:
REMARK  status: ('A' for Active; 'I' for Inactive)
REMARK    1  A    between atoms: C_1  and  N_2
REMARK    2  A    between atoms: C_3  and  C_5
REMARK    3  A    between atoms: C_5  and  N_6
REMARK                            x       y       z     vdW  Elec       q    Type
REMARK                         _______ _______ _______ _____ _____    ______ ____
ROOT
ATOM      1  N   UNL     1      -2.510  -2.708   0.011  0.00  0.00    -0.255 N 
ATOM      2  C   UNL     1      -3.237  -2.981   1.168  0.00  0.00    +0.051 A 
ATOM      3  C   UNL     1      -2.904  -2.864   2.510  0.00  0.00    +0.063 A 
ATOM      4  C   UNL     1      -3.823  -3.207   3.489  0.00  0.00    +0.139 A 
ATOM      5  C   UNL     1      -5.085  -3.671   3.142  0.00  0.00    +0.054 A 
ATOM      6  C   UNL     1      -5.435  -3.794   1.814  0.00  0.00    +0.032 A 
ATOM      7  C   UNL     1      -4.516  -3.450   0.821  0.00  0.00    +0.050 A 
ATOM      8  C   UNL     1      -4.574  -3.465  -0.651  0.00  0.00    +0.250 C 
ATOM      9  O   UNL     1      -5.505  -3.804  -1.351  0.00  0.00    -0.282 OA
ATOM     10  C   UNL     1      -3.231  -2.963  -1.093  0.00  0.00    +0.292 C 
ATOM     11  O   UNL     1      -2.863  -2.817  -2.240  0.00  0.00    -0.266 OA
ATOM     12 BR   UNL     1      -6.325  -4.135   4.493  0.00  0.00    -0.047 Br
ATOM     13  F   UNL     1      -3.487  -3.090   4.792  0.00  0.00    -0.204 F 
ENDROOT
BRANCH   1  14
ATOM     14  C   UNL     1      -1.135  -2.201   0.001  0.00  0.00    +0.209 C 
BRANCH  14  17
ATOM     15  C   UNL     1      -0.018   1.461   0.010  0.00  0.00    +0.128 C 
ATOM     16  N   UNL     1       0.002  -0.004   0.002  0.00  0.00    -0.317 N 
ATOM     17  C   UNL     1      -1.156  -0.694   0.009  0.00  0.00    +0.231 C 
ATOM     18  O   UNL     1      -2.214  -0.102   0.023  0.00  0.00    -0.274 OA
ATOM     19  H   UNL     1       0.849  -0.478  -0.009  0.00  0.00    +0.148 HD
ENDBRANCH  14  17
ENDBRANCH   1  14
TORSDOF 2
