REMARK  Name = ZINC13553143
REMARK  10 active torsions:
REMARK  status: ('A' for Active; 'I' for Inactive)
REMARK    1  A    between atoms: C_1  and  C_2
REMARK    2  A    between atoms: C_8  and  C_25
REMARK    3  A    between atoms: C_11  and  C_12
REMARK    4  A    between atoms: C_11  and  O_20
REMARK    5  A    between atoms: C_13  and  C_19
REMARK    6  A    between atoms: C_17  and  C_18
REMARK    7  A    between atoms: C_28  and  O_33
REMARK    8  A    between atoms: C_29  and  O_31
REMARK    9  A    between atoms: O_31  and  C_32
REMARK   10  A    between atoms: O_33  and  C_34
REMARK                            x       y       z     vdW  Elec       q    Type
REMARK                         _______ _______ _______ _____ _____    ______ ____
ROOT
ATOM      1  C   UNL     1      -6.429   7.584   3.582  0.00  0.00    +0.089 C 
ATOM      2  C   UNL     1      -5.157   6.779   3.657  0.00  0.00    +0.136 A 
ATOM      3  C   UNL     1      -4.671   5.946   2.708  0.00  0.00    +0.091 A 
ATOM      4  C   UNL     1      -3.468   5.446   3.276  0.00  0.00    +0.172 A 
ATOM      5  N   UNL     1      -3.356   6.011   4.449  0.00  0.00    -0.063 NA
ATOM      6  O   UNL     1      -4.285   6.752   4.674  0.00  0.00    -0.358 OA
ATOM      7  N   UNL     1      -2.583   4.540   2.695  0.00  0.00    -0.235 N 
ATOM      8  C   UNL     1      -2.683   4.003   1.335  0.00  0.00    +0.151 C 
ATOM      9  C   UNL     1      -1.511   3.066   1.153  0.00  0.00    +0.072 C 
ATOM     10  C   UNL     1      -1.201   2.332   0.021  0.00  0.00    +0.135 C 
ATOM     11  C   UNL     1      -0.805   3.085   2.362  0.00  0.00    +0.249 C 
ATOM     12  O   UNL     1       0.205   2.450   2.609  0.00  0.00    -0.282 OA
ATOM     13  C   UNL     1      -1.498   4.016   3.291  0.00  0.00    +0.293 C 
ATOM     14  O   UNL     1      -1.140   4.262   4.425  0.00  0.00    -0.266 OA
ENDROOT
BRANCH  10  15
ATOM     15  C   UNL     1      -0.018   1.464   0.010  0.00  0.00    +0.040 A 
ATOM     16  C   UNL     1       0.002  -0.004   0.002  0.00  0.00    -0.022 A 
ATOM     17  C   UNL     1       1.296  -0.366  -0.012  0.00  0.00    +0.086 A 
ATOM     18  N   UNL     1       2.075   0.755  -0.014  0.00  0.00    -0.364 N 
ATOM     19  H   UNL     1       3.045   0.756  -0.022  0.00  0.00    +0.165 HD
ATOM     20  C   UNL     1       1.306   1.861  -0.000  0.00  0.00    +0.024 A 
ATOM     21  C   UNL     1       1.803   3.283   0.002  0.00  0.00    +0.064 C 
ATOM     22  C   UNL     1      -1.192  -0.923   0.009  0.00  0.00    +0.046 C 
ENDBRANCH  10  15
BRANCH   8  23
ATOM     23  C   UNL     1      -2.608   5.124   0.330  0.00  0.00    -0.018 A 
ATOM     24  C   UNL     1      -1.768   6.198   0.556  0.00  0.00    +0.009 A 
ATOM     25  C   UNL     1      -1.696   7.229  -0.362  0.00  0.00    +0.050 A 
ATOM     26  C   UNL     1      -2.467   7.187  -1.512  0.00  0.00    +0.162 A 
ATOM     27  C   UNL     1      -3.313   6.106  -1.740  0.00  0.00    +0.162 A 
ATOM     28  C   UNL     1      -3.377   5.073  -0.818  0.00  0.00    +0.055 A 
BRANCH  27  29
ATOM     29  O   UNL     1      -4.072   6.060  -2.868  0.00  0.00    -0.491 OA
ATOM     30  C   UNL     1      -4.917   4.920  -3.035  0.00  0.00    +0.277 C 
ENDBRANCH  27  29
BRANCH  26  31
ATOM     31  O   UNL     1      -2.397   8.200  -2.417  0.00  0.00    -0.491 OA
ATOM     32  C   UNL     1      -1.506   9.277  -2.118  0.00  0.00    +0.277 C 
ENDBRANCH  26  31
ENDBRANCH   8  23
BRANCH  10  33
ATOM     33  O   UNL     1      -1.988   2.415  -1.074  0.00  0.00    -0.506 OA
ATOM     34  H   UNL     1      -1.621   1.825  -1.793  0.00  0.00    +0.292 HD
ENDBRANCH  10  33
TORSDOF 5
