REMARK  Name = ZINC03344539
REMARK  7 active torsions:
REMARK  status: ('A' for Active; 'I' for Inactive)
REMARK    1  A    between atoms: C_4  and  S_7
REMARK    2  A    between atoms: S_7  and  C_8
REMARK    3  A    between atoms: C_13  and  N_14
REMARK    4  A    between atoms: C_15  and  C_17
REMARK    5  A    between atoms: C_17  and  S_18
REMARK    6  A    between atoms: S_18  and  C_19
REMARK    7  A    between atoms: N_24  and  C_25
REMARK                            x       y       z     vdW  Elec       q    Type
REMARK                         _______ _______ _______ _____ _____    ______ ____
ROOT
ATOM      1  N   UNL     1      -1.116  -2.912   0.638  0.00  0.00    -0.284 N 
ATOM      2  C   UNL     1      -0.979  -1.583   0.814  0.00  0.00    +0.227 C 
ATOM      3  O   UNL     1      -1.962  -0.879   0.912  0.00  0.00    -0.275 OA
ATOM      4  H   UNL     1      -0.332  -3.468   0.509  0.00  0.00    +0.155 HD
ENDROOT
BRANCH   1  10
ATOM      5  C   UNL     1      -2.531  -4.879   0.662  0.00  0.00    +0.034 A 
ATOM      6  C   UNL     1      -3.798  -5.446   0.672  0.00  0.00    +0.017 A 
ATOM      7  C   UNL     1      -4.917  -4.635   0.651  0.00  0.00    +0.001 A 
ATOM      8  C   UNL     1      -4.779  -3.259   0.627  0.00  0.00    +0.002 A 
ATOM      9  C   UNL     1      -3.521  -2.686   0.623  0.00  0.00    +0.024 A 
ATOM     10  C   UNL     1      -2.392  -3.491   0.643  0.00  0.00    +0.047 A 
BRANCH   5  11
ATOM     11  S   UNL     1      -1.102  -5.910   0.680  0.00  0.00    -0.088 S 
BRANCH  11  15
ATOM     12  C   UNL     1       0.327  -5.878  -3.618  0.00  0.00    +0.000 A 
ATOM     13  C   UNL     1       1.079  -6.511  -2.645  0.00  0.00    +0.001 A 
ATOM     14  C   UNL     1       0.647  -6.523  -1.334  0.00  0.00    +0.015 A 
ATOM     15  C   UNL     1      -0.546  -5.898  -0.992  0.00  0.00    +0.013 A 
ATOM     16  C   UNL     1      -1.303  -5.268  -1.973  0.00  0.00    +0.015 A 
ATOM     17  C   UNL     1      -0.861  -5.255  -3.281  0.00  0.00    +0.001 A 
ENDBRANCH  11  15
ENDBRANCH   5  11
ENDBRANCH   1  10
BRANCH   2  18
ATOM     18  C   UNL     1       0.397  -0.971   0.887  0.00  0.00    +0.172 C 
BRANCH  18  19
ATOM     19  S   UNL     1       0.249   0.821   1.125  0.00  0.00    -0.088 S 
BRANCH  19  20
ATOM     20  C   UNL     1       1.919   1.381   1.191  0.00  0.00    +0.160 A 
ATOM     21  N   UNL     1       3.037   0.688   1.099  0.00  0.00    -0.133 NA
ATOM     22  N   UNL     1       4.250   1.333   1.173  0.00  0.00    -0.125 NA
ATOM     23  C   UNL     1       4.289   2.640   1.346  0.00  0.00    +0.187 A 
ATOM     24  S   UNL     1       2.549   3.038   1.407  0.00  0.00    -0.024 S 
ATOM     25  N   UNL     1       5.390   3.482   1.452  0.00  0.00    -0.290 N 
ATOM     26  H   UNL     1       5.265   4.418   1.672  0.00  0.00    +0.154 HD
BRANCH  25  27
ATOM     27  C   UNL     1       6.678   2.979   1.241  0.00  0.00    +0.068 A 
ATOM     28  C   UNL     1       6.851   1.682   0.778  0.00  0.00    +0.026 A 
ATOM     29  C   UNL     1       8.125   1.188   0.571  0.00  0.00    +0.002 A 
ATOM     30  C   UNL     1       9.227   1.984   0.823  0.00  0.00    +0.003 A 
ATOM     31  C   UNL     1       9.060   3.277   1.284  0.00  0.00    +0.040 A 
ATOM     32  C   UNL     1       7.788   3.780   1.490  0.00  0.00    +0.144 A 
ATOM     33  F   UNL     1       7.624   5.044   1.935  0.00  0.00    -0.204 F 
ENDBRANCH  25  27
ENDBRANCH  19  20
ENDBRANCH  18  19
ENDBRANCH   2  18
TORSDOF 7
