REMARK  Name = ZINC00894557
REMARK  10 active torsions:
REMARK  status: ('A' for Active; 'I' for Inactive)
REMARK    1  A    between atoms: C_1  and  C_2
REMARK    2  A    between atoms: C_2  and  N_62
REMARK    3  A    between atoms: C_3  and  C_4
REMARK    4  A    between atoms: C_3  and  N_62
REMARK    5  A    between atoms: C_5  and  C_7
REMARK    6  A    between atoms: C_5  and  C_21
REMARK    7  A    between atoms: C_5  and  N_62
REMARK    8  A    between atoms: C_10  and  C_20
REMARK    9  A    between atoms: C_12  and  C_19
REMARK   10  A    between atoms: N_25  and  C_26
REMARK                            x       y       z     vdW  Elec       q    Type
REMARK                         _______ _______ _______ _____ _____    ______ ____
ROOT
ATOM      1  C   UNL     1       4.545   5.030   0.571  0.00  0.00    +0.039 C 
ENDROOT
BRANCH   1   2
ATOM      2  C   UNL     1       3.188   4.492   0.944  0.00  0.00    +0.011 A 
ATOM      3  C   UNL     1       2.930   3.166   0.818  0.00  0.00    +0.018 A 
ATOM      4  C   UNL     1       1.602   2.675   1.191  0.00  0.00    +0.002 A 
ATOM      5  C   UNL     1       1.277   1.318   1.083  0.00  0.00    -0.041 A 
ATOM      6  C   UNL     1       0.029   0.891   1.438  0.00  0.00    +0.007 A 
ATOM      7  C   UNL     1      -0.920   1.791   1.905  0.00  0.00    -0.048 A 
ATOM      8  C   UNL     1      -0.621   3.132   2.019  0.00  0.00    +0.029 A 
ATOM      9  C   UNL     1       0.643   3.590   1.663  0.00  0.00    +0.050 A 
ATOM     10  N   UNL     1       0.969   4.926   1.767  0.00  0.00    -0.322 N 
ATOM     11  H   UNL     1       0.286   5.575   2.102  0.00  0.00    +0.169 HD
ATOM     12  C   UNL     1       2.191   5.368   1.423  0.00  0.00    +0.251 A 
ATOM     13  O   UNL     1       2.444   6.556   1.528  0.00  0.00    -0.268 OA
ATOM     14  C   UNL     1      -2.290   1.297   2.290  0.00  0.00    +0.044 C 
ATOM     15  C   UNL     1       2.299   0.333   0.578  0.00  0.00    +0.044 C 
ENDBRANCH   1   2
BRANCH   1  16
ATOM     16  C   UNL     1       4.417   5.924  -0.635  0.00  0.00    +0.143 A 
ATOM     17  N   UNL     1       3.769   7.062  -0.701  0.00  0.00    -0.115 NA
ATOM     18  N   UNL     1       3.894   7.522  -1.898  0.00  0.00    -0.023 NA
ATOM     19  N   UNL     1       4.598   6.704  -2.599  0.00  0.00    -0.044 NA
ATOM     20  N   UNL     1       4.939   5.706  -1.857  0.00  0.00    -0.227 N 
BRANCH  20  21
ATOM     21  C   UNL     1       5.744   4.552  -2.265  0.00  0.00    +0.111 C 
ATOM     22  C   UNL     1       7.119   5.030  -2.736  0.00  0.00    +0.027 C 
ATOM     23  C   UNL     1       7.960   3.825  -3.162  0.00  0.00    +0.002 C 
ATOM     24  C   UNL     1       7.256   3.091  -4.306  0.00  0.00    +0.000 C 
ATOM     25  C   UNL     1       5.881   2.613  -3.835  0.00  0.00    +0.002 C 
ATOM     26  C   UNL     1       5.040   3.818  -3.408  0.00  0.00    +0.027 C 
ENDBRANCH  20  21
ENDBRANCH   1  16
BRANCH   1  27
ATOM     27  N   UNL     1       5.072   5.822   1.703  0.00  0.00    +0.389 N 
ATOM     28  H   UNL     1       4.373   6.523   1.974  0.00  0.00    -0.080 HD
BRANCH  27  30
ATOM     29  C   UNL     1       4.015   4.670   3.581  0.00  0.00    -0.017 C 
ATOM     30  C   UNL     1       5.337   4.937   2.858  0.00  0.00    -0.081 C 
ENDBRANCH  27  30
BRANCH  27  31
ATOM     31  C   UNL     1       6.316   6.512   1.301  0.00  0.00    -0.081 C 
ATOM     32  C   UNL     1       5.943   7.794   0.554  0.00  0.00    -0.017 C 
ENDBRANCH  27  31
ENDBRANCH   1  27
TORSDOF 6
