REMARK  Name = ZINC09305247
REMARK  6 active torsions:
REMARK  status: ('A' for Active; 'I' for Inactive)
REMARK    1  A    between atoms: C_1  and  C_2
REMARK    2  A    between atoms: C_9  and  N_13
REMARK    3  A    between atoms: C_10  and  C_11
REMARK    4  A    between atoms: C_14  and  C_16
REMARK    5  A    between atoms: C_21  and  C_32
REMARK    6  A    between atoms: C_24  and  C_27
REMARK                            x       y       z     vdW  Elec       q    Type
REMARK                         _______ _______ _______ _____ _____    ______ ____
ROOT
ATOM      1  C   UNL     1      -5.701  -1.386  -0.827  0.00  0.00    +0.149 A 
ATOM      2  C   UNL     1      -4.644  -0.677  -1.442  0.00  0.00    +0.078 A 
ATOM      3  C   UNL     1      -3.549  -0.829  -0.672  0.00  0.00    +0.119 A 
ATOM      4  N   UNL     1      -3.887  -1.605   0.401  0.00  0.00    -0.238 N 
ATOM      5  N   UNL     1      -5.235  -1.940   0.279  0.00  0.00    -0.164 NA
ATOM      6  C   UNL     1      -2.947  -1.982   1.460  0.00  0.00    +0.215 C 
ATOM      7  C   UNL     1      -1.758  -1.015   1.435  0.00  0.00    +0.066 C 
ATOM      8  C   UNL     1      -1.208  -0.902   0.008  0.00  0.00    +0.140 C 
ATOM      9  N   UNL     1      -2.258  -0.325  -0.855  0.00  0.00    -0.319 N 
ATOM     10  H   UNL     1      -2.063   0.363  -1.510  0.00  0.00    +0.148 HD
ENDROOT
BRANCH   8  11
ATOM     11  C   UNL     1       0.002  -0.004   0.002  0.00  0.00    +0.125 A 
ATOM     12  C   UNL     1       1.284  -0.412  -0.012  0.00  0.00    +0.046 A 
ATOM     13  C   UNL     1       2.084   0.754  -0.014  0.00  0.00    +0.041 A 
ATOM     14  C   UNL     1       1.244   1.804  -0.000  0.00  0.00    +0.195 A 
ATOM     15  O   UNL     1      -0.016   1.339   0.009  0.00  0.00    -0.466 OA
ENDBRANCH   8  11
BRANCH   1  17
ATOM     16  N   UNL     1      -8.001  -2.201  -0.645  0.00  0.00    -0.274 N 
ATOM     17  C   UNL     1      -7.084  -1.490  -1.332  0.00  0.00    +0.269 C 
ATOM     18  O   UNL     1      -7.397  -0.934  -2.367  0.00  0.00    -0.268 OA
ATOM     19  H   UNL     1      -7.751  -2.644   0.180  0.00  0.00    +0.156 HD
BRANCH  16  27
ATOM     20  C   UNL     1     -15.190  -2.583  -3.704  0.00  0.00    +0.008 C 
ATOM     21  C   UNL     1     -13.893  -2.982  -2.996  0.00  0.00    -0.009 C 
ATOM     22  C   UNL     1     -14.115  -2.982  -1.481  0.00  0.00    +0.008 C 
ATOM     23  C   UNL     1     -12.912  -3.613  -0.778  0.00  0.00    +0.037 C 
ATOM     24  C   UNL     1     -11.643  -2.922  -1.264  0.00  0.00    -0.018 A 
ATOM     25  C   UNL     1     -11.637  -2.201  -2.407  0.00  0.00    -0.004 A 
ATOM     26  S   UNL     1      -9.980  -1.596  -2.550  0.00  0.00    -0.077 S 
ATOM     27  C   UNL     1      -9.300  -2.299  -1.120  0.00  0.00    +0.090 A 
ATOM     28  C   UNL     1     -10.373  -2.977  -0.561  0.00  0.00    +0.084 A 
ATOM     29  C   UNL     1     -12.789  -1.970  -3.335  0.00  0.00    +0.046 C 
BRANCH  28  30
ATOM     30  C   UNL     1     -10.234  -3.706   0.664  0.00  0.00    +0.102 C 
ATOM     31  N   UNL     1     -10.123  -4.284   1.636  0.00  0.00    -0.191 NA
ENDBRANCH  28  30
ENDBRANCH  16  27
ENDBRANCH   1  17
BRANCH   6  32
ATOM     32  C   UNL     1      -3.646  -1.898   2.819  0.00  0.00    +0.412 C 
ATOM     33  F   UNL     1      -4.103  -0.592   3.029  0.00  0.00    -0.168 F 
ATOM     34  F   UNL     1      -4.732  -2.780   2.840  0.00  0.00    -0.168 F 
ATOM     35  F   UNL     1      -2.744  -2.244   3.830  0.00  0.00    -0.168 F 
ENDBRANCH   6  32
TORSDOF 5
