REMARK  Name = ZINC07443293
REMARK  7 active torsions:
REMARK  status: ('A' for Active; 'I' for Inactive)
REMARK    1  A    between atoms: C_1  and  C_2
REMARK    2  A    between atoms: C_2  and  C_3
REMARK    3  A    between atoms: C_3  and  C_24
REMARK    4  A    between atoms: N_6  and  N_10
REMARK    5  A    between atoms: C_11  and  C_13
REMARK    6  A    between atoms: C_13  and  N_53
REMARK    7  A    between atoms: C_17  and  C_19
REMARK                            x       y       z     vdW  Elec       q    Type
REMARK                         _______ _______ _______ _____ _____    ______ ____
ROOT
ATOM      1  C   UNL     1      -0.727   3.357   0.027  0.00  0.00    +0.139 C 
ATOM      2  C   UNL     1       0.787   3.284   0.012  0.00  0.00    +0.268 C 
ATOM      3  O   UNL     1       1.565   4.213   0.009  0.00  0.00    -0.271 OA
ATOM      4  N   UNL     1       1.087   1.970   0.002  0.00  0.00    -0.137 N 
ATOM      5  C   UNL     1      -0.014   1.211   0.009  0.00  0.00    +0.327 C 
ATOM      6  O   UNL     1       0.002  -0.004   0.002  0.00  0.00    -0.251 OA
ATOM      7  N   UNL     1      -1.143   1.944   0.018  0.00  0.00    -0.280 N 
ATOM      8  H   UNL     1      -2.052   1.607   0.019  0.00  0.00    +0.152 HD
ENDROOT
BRANCH   1   9
ATOM      9  C   UNL     1      -1.236   4.062  -1.204  0.00  0.00    -0.015 A 
ATOM     10  C   UNL     1      -1.432   5.431  -1.185  0.00  0.00    +0.006 A 
ATOM     11  C   UNL     1      -1.894   6.078  -2.316  0.00  0.00    +0.000 A 
ATOM     12  C   UNL     1      -2.170   5.356  -3.462  0.00  0.00    +0.000 A 
ATOM     13  C   UNL     1      -1.979   3.987  -3.479  0.00  0.00    +0.000 A 
ATOM     14  C   UNL     1      -1.512   3.340  -2.350  0.00  0.00    +0.006 A 
ENDBRANCH   1   9
BRANCH   4  15
ATOM     15  N   UNL     1       2.393   1.462  -0.014  0.00  0.00    -0.225 N 
ATOM     16  C   UNL     1       2.900   0.942  -1.149  0.00  0.00    +0.213 C 
ATOM     17  O   UNL     1       2.226   0.914  -2.157  0.00  0.00    -0.276 OA
ATOM     18  H   UNL     1       2.932   1.484   0.792  0.00  0.00    +0.173 HD
BRANCH  16  19
ATOM     19  C   UNL     1       4.304   0.395  -1.166  0.00  0.00    +0.021 C 
BRANCH  19  24
ATOM     20  C   UNL     1       4.747   0.999  -3.474  0.00  0.00    -0.077 C 
ATOM     21  C   UNL     1       6.148   0.890  -4.110  0.00  0.00    -0.020 C 
ATOM     22  C   UNL     1       6.517  -0.601  -3.890  0.00  0.00    -0.012 C 
ATOM     23  C   UNL     1       5.879  -0.880  -2.506  0.00  0.00    -0.030 C 
ATOM     24  N   UNL     1       4.613  -0.119  -2.526  0.00  0.00    +0.390 N 
ATOM     25  H   UNL     1       3.851  -0.735  -2.833  0.00  0.00    -0.080 HD
BRANCH  23  26
ATOM     26  C   UNL     1       5.595  -2.351  -2.347  0.00  0.00    -0.024 A 
ATOM     27  C   UNL     1       6.263  -3.275  -1.613  0.00  0.00    +0.009 A 
ATOM     28  C   UNL     1       5.816  -4.583  -1.615  0.00  0.00    +0.008 A 
ATOM     29  C   UNL     1       4.723  -4.903  -2.351  0.00  0.00    +0.045 A 
ATOM     30  S   UNL     1       4.286  -3.328  -3.068  0.00  0.00    -0.103 S 
ENDBRANCH  23  26
ENDBRANCH  19  24
ENDBRANCH  16  19
ENDBRANCH   4  15
BRANCH   1  32
ATOM     31  C   UNL     1      -0.734   3.298   2.525  0.00  0.00    +0.007 C 
ATOM     32  C   UNL     1      -1.220   4.063   1.292  0.00  0.00    +0.037 C 
ENDBRANCH   1  32
TORSDOF 6
