REMARK  Name = ZINC09599748
REMARK  11 active torsions:
REMARK  status: ('A' for Active; 'I' for Inactive)
REMARK    1  A    between atoms: C_1  and  C_2
REMARK    2  A    between atoms: C_2  and  N_3
REMARK    3  A    between atoms: N_3  and  C_4
REMARK    4  A    between atoms: N_3  and  S_11
REMARK    5  A    between atoms: C_4  and  C_5
REMARK    6  A    between atoms: S_11  and  C_14
REMARK    7  A    between atoms: C_17  and  C_20
REMARK    8  A    between atoms: N_22  and  C_23
REMARK    9  A    between atoms: C_24  and  C_34
REMARK   10  A    between atoms: C_29  and  C_33
REMARK   11  A    between atoms: N_36  and  C_37
REMARK                            x       y       z     vdW  Elec       q    Type
REMARK                         _______ _______ _______ _____ _____    ______ ____
ROOT
ATOM      1  C   UNL     1       3.262 -10.052  -4.206  0.00  0.00    +0.106 A 
ATOM      2  C   UNL     1       3.231  -9.038  -5.146  0.00  0.00    +0.029 A 
ATOM      3  C   UNL     1       2.895  -7.754  -4.769  0.00  0.00    +0.015 A 
ATOM      4  C   UNL     1       2.587  -7.479  -3.435  0.00  0.00    +0.037 A 
ATOM      5  C   UNL     1       2.626  -8.507  -2.491  0.00  0.00    +0.015 A 
ATOM      6  C   UNL     1       2.957  -9.787  -2.882  0.00  0.00    +0.029 A 
ENDROOT
BRANCH   4   7
ATOM      7  C   UNL     1       2.227  -6.106  -3.024  0.00  0.00    +0.249 C 
ATOM      8  O   UNL     1       2.198  -5.213  -3.848  0.00  0.00    -0.270 OA
ATOM      9  N   UNL     1       1.929  -5.845  -1.736  0.00  0.00    -0.275 N 
ATOM     10  H   UNL     1       1.952  -6.558  -1.079  0.00  0.00    +0.156 HD
BRANCH   9  11
ATOM     11  C   UNL     1       1.592  -4.557  -1.350  0.00  0.00    +0.085 A 
ATOM     12  C   UNL     1       1.258  -4.096  -0.085  0.00  0.00    +0.069 A 
ATOM     13  C   UNL     1       0.941  -2.684   0.053  0.00  0.00    -0.023 A 
ATOM     14  C   UNL     1       1.008  -1.966  -1.089  0.00  0.00    -0.004 A 
ATOM     15  S   UNL     1       1.484  -3.133  -2.331  0.00  0.00    -0.077 S 
ATOM     16  C   UNL     1       0.736  -0.502  -1.252  0.00  0.00    +0.046 C 
ATOM     17  C   UNL     1       0.002  -0.004   0.002  0.00  0.00    -0.009 C 
ATOM     18  C   UNL     1       0.742  -0.514   1.242  0.00  0.00    +0.008 C 
ATOM     19  C   UNL     1       0.557  -2.027   1.373  0.00  0.00    +0.037 C 
ATOM     20  C   UNL     1      -0.019   1.526   0.010  0.00  0.00    +0.008 C 
BRANCH  12  21
ATOM     21  C   UNL     1       1.226  -4.998   1.070  0.00  0.00    +0.246 C 
ATOM     22  O   UNL     1       0.198  -5.582   1.358  0.00  0.00    -0.270 OA
ATOM     23  N   UNL     1       2.336  -5.182   1.813  0.00  0.00    -0.314 N 
ATOM     24  C   UNL     1       2.304  -6.084   2.967  0.00  0.00    +0.128 C 
ATOM     25  H   UNL     1       3.156  -4.716   1.583  0.00  0.00    +0.149 HD
ENDBRANCH  12  21
ENDBRANCH   9  11
ENDBRANCH   4   7
BRANCH   1  26
ATOM     26  S   UNL     1       3.692 -11.689  -4.696  0.00  0.00    +0.061 S 
ATOM     27  O   UNL     1       3.118 -12.565  -3.735  0.00  0.00    -0.153 OA
ATOM     28  O   UNL     1       3.402 -11.787  -6.083  0.00  0.00    -0.153 OA
BRANCH  26  29
ATOM     29  N   UNL     1       5.335 -11.830  -4.544  0.00  0.00    -0.173 NA
BRANCH  29  31
ATOM     30  C   UNL     1       6.684 -10.050  -5.538  0.00  0.00    +0.022 C 
ATOM     31  C   UNL     1       6.206 -11.497  -5.673  0.00  0.00    +0.106 C 
ENDBRANCH  29  31
BRANCH  29  32
ATOM     32  C   UNL     1       5.917 -12.289  -3.280  0.00  0.00    +0.144 C 
BRANCH  32  33
ATOM     33  C   UNL     1       6.156 -13.775  -3.348  0.00  0.00    -0.032 A 
ATOM     34  C   UNL     1       5.170 -14.654  -2.939  0.00  0.00    +0.005 A 
ATOM     35  C   UNL     1       5.388 -16.017  -3.006  0.00  0.00    +0.000 A 
ATOM     36  C   UNL     1       6.596 -16.502  -3.471  0.00  0.00    +0.000 A 
ATOM     37  C   UNL     1       7.585 -15.623  -3.874  0.00  0.00    +0.000 A 
ATOM     38  C   UNL     1       7.364 -14.260  -3.813  0.00  0.00    +0.005 A 
ENDBRANCH  32  33
ENDBRANCH  29  32
ENDBRANCH  26  29
ENDBRANCH   1  26
TORSDOF 8
