REMARK  Name = ZINC39666356
REMARK  10 active torsions:
REMARK  status: ('A' for Active; 'I' for Inactive)
REMARK    1  A    between atoms: C_1  and  C_2
REMARK    2  A    between atoms: C_2  and  C_3
REMARK    3  A    between atoms: C_3  and  C_4
REMARK    4  A    between atoms: C_4  and  C_5
REMARK    5  A    between atoms: C_9  and  C_18
REMARK    6  A    between atoms: N_20  and  C_21
REMARK    7  A    between atoms: C_21  and  C_22
REMARK    8  A    between atoms: C_22  and  C_24
REMARK    9  A    between atoms: C_22  and  O_25
REMARK   10  A    between atoms: O_25  and  C_26
REMARK                            x       y       z     vdW  Elec       q    Type
REMARK                         _______ _______ _______ _____ _____    ______ ____
ROOT
ATOM      1  C   UNL     1      -0.770  -2.276   0.010  0.00  0.00    +0.216 C 
ATOM      2  O   UNL     1      -1.552  -1.373  -0.197  0.00  0.00    -0.276 OA
ATOM      3  N   UNL     1      -1.164  -3.556  -0.137  0.00  0.00    -0.300 N 
ATOM      4  C   UNL     1      -0.361  -4.784   0.074  0.00  0.00    +0.121 C 
ATOM      5  C   UNL     1      -1.335  -5.775   0.751  0.00  0.00    +0.100 C 
ATOM      6  C   UNL     1      -2.735  -5.292   0.338  0.00  0.00    -0.004 C 
ATOM      7  C   UNL     1      -2.501  -4.055  -0.540  0.00  0.00    +0.115 C 
ATOM      8  C   UNL     1      -3.547  -4.910   1.572  0.00  0.00    -0.010 C 
ATOM      9  C   UNL     1      -4.955  -4.488   1.141  0.00  0.00    -0.082 C 
ATOM     10  N   UNL     1      -5.603  -5.596   0.428  0.00  0.00    +0.379 N 
ATOM     11  C   UNL     1      -4.867  -5.896  -0.806  0.00  0.00    -0.082 C 
ATOM     12  C   UNL     1      -3.455  -6.377  -0.457  0.00  0.00    -0.010 C 
ATOM     13  H   UNL     1      -5.613  -6.414   1.019  0.00  0.00    -0.086 HD
ATOM     14  H   UNL     1      -6.550  -5.337   0.198  0.00  0.00    -0.086 HD
ENDROOT
BRANCH   5  15
ATOM     15  C   UNL     1      -1.179  -5.724   2.249  0.00  0.00    +0.218 C 
ATOM     16  O   UNL     1      -0.824  -4.696   2.787  0.00  0.00    -0.275 OA
ATOM     17  N   UNL     1      -1.435  -6.819   2.991  0.00  0.00    -0.312 N 
ATOM     18  H   UNL     1      -1.719  -7.641   2.560  0.00  0.00    +0.149 HD
BRANCH  17  19
ATOM     19  C   UNL     1      -1.284  -6.770   4.447  0.00  0.00    +0.148 C 
BRANCH  19  20
ATOM     20  C   UNL     1      -1.633  -8.135   5.043  0.00  0.00    +0.187 C 
ATOM     21  C   UNL     1      -1.597  -8.049   6.570  0.00  0.00    +0.053 C 
BRANCH  20  22
ATOM     22  O   UNL     1      -0.684  -9.106   4.598  0.00  0.00    -0.486 OA
BRANCH  22  23
ATOM     23  C   UNL     1      -1.094 -10.402   4.572  0.00  0.00    +0.139 A 
ATOM     24  C   UNL     1      -2.342 -10.746   5.069  0.00  0.00    +0.047 A 
ATOM     25  C   UNL     1      -2.756 -12.064   5.041  0.00  0.00    +0.004 A 
ATOM     26  C   UNL     1      -1.927 -13.040   4.519  0.00  0.00    +0.002 A 
ATOM     27  C   UNL     1      -0.682 -12.700   4.023  0.00  0.00    +0.023 A 
ATOM     28  C   UNL     1      -0.265 -11.382   4.043  0.00  0.00    +0.083 A 
ATOM     29 CL   UNL     1       1.295 -10.954   3.413  0.00  0.00    -0.080 Cl
ENDBRANCH  22  23
ENDBRANCH  20  22
ENDBRANCH  19  20
ENDBRANCH  17  19
ENDBRANCH   5  15
BRANCH   1  30
ATOM     30  C   UNL     1       0.644  -1.966   0.430  0.00  0.00    +0.096 C 
BRANCH  30  31
ATOM     31  C   UNL     1       0.829  -0.450   0.521  0.00  0.00    +0.009 C 
BRANCH  31  33
ATOM     32  C   UNL     1       2.448   1.381   1.039  0.00  0.00    +0.004 C 
ATOM     33  C   UNL     1       2.264  -0.136   0.948  0.00  0.00    -0.003 C 
ENDBRANCH  31  33
ENDBRANCH  30  31
ENDBRANCH   1  30
TORSDOF 8
