REMARK  Name = ZINC12520803
REMARK  6 active torsions:
REMARK  status: ('A' for Active; 'I' for Inactive)
REMARK    1  A    between atoms: C_1  and  C_2
REMARK    2  A    between atoms: C_2  and  C_24
REMARK    3  A    between atoms: N_5  and  N_9
REMARK    4  A    between atoms: C_10  and  C_12
REMARK    5  A    between atoms: C_12  and  S_13
REMARK    6  A    between atoms: S_13  and  C_14
REMARK                            x       y       z     vdW  Elec       q    Type
REMARK                         _______ _______ _______ _____ _____    ______ ____
ROOT
ATOM      1  N   UNL     1      -1.195   2.161   0.019  0.00  0.00    -0.223 N 
ATOM      2  C   UNL     1      -0.018   1.503   0.010  0.00  0.00    +0.240 C 
ATOM      3  O   UNL     1       1.024   2.123   0.004  0.00  0.00    -0.273 OA
ATOM      4  H   UNL     1      -2.028   1.664   0.021  0.00  0.00    +0.174 HD
ENDROOT
BRANCH   1   9
ATOM      5  C   UNL     1      -2.761   6.466  -0.698  0.00  0.00    +0.047 C 
ATOM      6  C   UNL     1      -1.411   5.757  -0.572  0.00  0.00    +0.137 C 
ATOM      7  C   UNL     1      -1.518   4.321  -1.044  0.00  0.00    +0.267 C 
ATOM      8  O   UNL     1      -1.814   3.934  -2.155  0.00  0.00    -0.271 OA
ATOM      9  N   UNL     1      -1.214   3.562   0.027  0.00  0.00    -0.137 N 
ATOM     10  C   UNL     1      -0.938   4.311   1.101  0.00  0.00    +0.327 C 
ATOM     11  O   UNL     1      -0.640   3.853   2.186  0.00  0.00    -0.251 OA
ATOM     12  N   UNL     1      -1.024   5.629   0.843  0.00  0.00    -0.280 N 
ATOM     13  H   UNL     1      -0.865   6.353   1.468  0.00  0.00    +0.152 HD
BRANCH   6  14
ATOM     14  C   UNL     1      -0.350   6.493  -1.348  0.00  0.00    -0.015 A 
ATOM     15  C   UNL     1      -0.071   6.131  -2.653  0.00  0.00    +0.006 A 
ATOM     16  C   UNL     1       0.900   6.809  -3.366  0.00  0.00    +0.000 A 
ATOM     17  C   UNL     1       1.599   7.843  -2.772  0.00  0.00    +0.000 A 
ATOM     18  C   UNL     1       1.324   8.202  -1.466  0.00  0.00    +0.000 A 
ATOM     19  C   UNL     1       0.350   7.527  -0.754  0.00  0.00    +0.006 A 
ENDBRANCH   6  14
ENDBRANCH   1   9
BRANCH   2  20
ATOM     20  C   UNL     1       0.002  -0.004   0.002  0.00  0.00    +0.174 C 
BRANCH  20  21
ATOM     21  S   UNL     1       1.716  -0.584  -0.018  0.00  0.00    -0.078 S 
BRANCH  21  22
ATOM     22  C   UNL     1       1.450  -2.326  -0.024  0.00  0.00    +0.168 A 
ATOM     23  N   UNL     1       2.437  -3.271  -0.044  0.00  0.00    -0.333 N 
ATOM     24  H   UNL     1       3.422  -3.100  -0.059  0.00  0.00    +0.168 HD
ATOM     25  C   UNL     1       1.818  -4.511  -0.039  0.00  0.00    +0.067 A 
ATOM     26  C   UNL     1       2.282  -5.817  -0.050  0.00  0.00    +0.028 A 
ATOM     27  C   UNL     1       1.385  -6.865  -0.047  0.00  0.00    +0.002 A 
ATOM     28  C   UNL     1       0.020  -6.621  -0.034  0.00  0.00    +0.002 A 
ATOM     29  C   UNL     1      -0.459  -5.330  -0.023  0.00  0.00    +0.030 A 
ATOM     30  C   UNL     1       0.436  -4.258  -0.025  0.00  0.00    +0.090 A 
ATOM     31  N   UNL     1       0.276  -2.908  -0.017  0.00  0.00    -0.222 NA
ENDBRANCH  21  22
ENDBRANCH  20  21
ENDBRANCH   2  20
TORSDOF 5
