REMARK  Name = ZINC12747790
REMARK  10 active torsions:
REMARK  status: ('A' for Active; 'I' for Inactive)
REMARK    1  A    between atoms: C_1  and  C_2
REMARK    2  A    between atoms: C_2  and  C_3
REMARK    3  A    between atoms: C_2  and  N_4
REMARK    4  A    between atoms: C_13  and  C_15
REMARK    5  A    between atoms: N_17  and  N_18
REMARK    6  A    between atoms: C_19  and  C_21
REMARK    7  A    between atoms: C_21  and  C_22
REMARK    8  A    between atoms: C_21  and  C_23
REMARK    9  A    between atoms: C_21  and  O_24
REMARK   10  A    between atoms: O_24  and  C_25
REMARK                            x       y       z     vdW  Elec       q    Type
REMARK                         _______ _______ _______ _____ _____    ______ ____
ROOT
ATOM      1  C   UNL     1       4.624   8.367   0.085  0.00  0.00    +0.281 C 
ATOM      2  O   UNL     1       5.698   7.807  -0.019  0.00  0.00    -0.267 OA
ATOM      3  N   UNL     1       3.487   7.644   0.111  0.00  0.00    -0.229 N 
ATOM      4  H   UNL     1       2.630   8.091   0.194  0.00  0.00    +0.173 HD
ENDROOT
BRANCH   1  14
ATOM      5  N   UNL     1       3.275  11.720   0.383  0.00  0.00    -0.226 N 
ATOM      6  C   UNL     1       4.311  12.583   0.371  0.00  0.00    +0.275 A 
ATOM      7  O   UNL     1       4.123  13.783   0.459  0.00  0.00    -0.266 OA
ATOM      8  C   UNL     1       5.672  12.042   0.251  0.00  0.00    +0.050 A 
ATOM      9  C   UNL     1       6.806  12.847   0.231  0.00  0.00    +0.014 A 
ATOM     10  C   UNL     1       8.049  12.260   0.115  0.00  0.00    +0.001 A 
ATOM     11  C   UNL     1       8.177  10.881   0.020  0.00  0.00    +0.001 A 
ATOM     12  C   UNL     1       7.064  10.066   0.039  0.00  0.00    +0.011 A 
ATOM     13  C   UNL     1       5.802  10.637   0.160  0.00  0.00    +0.020 A 
ATOM     14  C   UNL     1       4.565   9.839   0.182  0.00  0.00    +0.155 A 
ATOM     15  N   UNL     1       3.411  10.451   0.293  0.00  0.00    -0.163 NA
BRANCH   5  17
ATOM     16  C   UNL     1       1.098  11.864  -0.724  0.00  0.00    +0.032 C 
ATOM     17  C   UNL     1       1.920  12.264   0.503  0.00  0.00    +0.105 C 
ATOM     18  C   UNL     1       1.257  11.707   1.764  0.00  0.00    +0.032 C 
ENDBRANCH   5  17
ENDBRANCH   1  14
BRANCH   3  19
ATOM     19  N   UNL     1       3.543   6.247   0.019  0.00  0.00    -0.231 N 
ATOM     20  C   UNL     1       2.405   5.524   0.045  0.00  0.00    +0.272 C 
ATOM     21  O   UNL     1       1.334   6.083   0.148  0.00  0.00    -0.270 OA
ATOM     22  H   UNL     1       4.400   5.800  -0.064  0.00  0.00    +0.173 HD
BRANCH  20  23
ATOM     23  C   UNL     1       2.465   4.022  -0.054  0.00  0.00    +0.181 C 
ATOM     24  C   UNL     1       3.284   3.466   1.113  0.00  0.00    +0.065 C 
ATOM     25  C   UNL     1       3.126   3.623  -1.375  0.00  0.00    +0.065 C 
BRANCH  23  26
ATOM     26  O   UNL     1       1.141   3.488  -0.004  0.00  0.00    -0.477 OA
BRANCH  26  27
ATOM     27  C   UNL     1       0.288   3.858  -0.996  0.00  0.00    +0.122 A 
ATOM     28  C   UNL     1      -0.974   3.287  -1.076  0.00  0.00    +0.047 A 
ATOM     29  C   UNL     1      -1.839   3.666  -2.084  0.00  0.00    +0.023 A 
ATOM     30  C   UNL     1      -1.447   4.613  -3.014  0.00  0.00    +0.041 A 
ATOM     31  C   UNL     1      -0.189   5.183  -2.936  0.00  0.00    +0.023 A 
ATOM     32  C   UNL     1       0.679   4.807  -1.929  0.00  0.00    +0.047 A 
ATOM     33 CL   UNL     1      -2.536   5.087  -4.280  0.00  0.00    -0.084 Cl
ENDBRANCH  26  27
ENDBRANCH  23  26
ENDBRANCH  20  23
ENDBRANCH   3  19
TORSDOF 6
