REMARK  Name = ZINC04599525
REMARK  12 active torsions:
REMARK  status: ('A' for Active; 'I' for Inactive)
REMARK    1  A    between atoms: C_1  and  C_2
REMARK    2  A    between atoms: C_5  and  C_8
REMARK    3  A    between atoms: C_8  and  C_29
REMARK    4  A    between atoms: N_9  and  O_10
REMARK    5  A    between atoms: O_10  and  C_11
REMARK    6  A    between atoms: C_11  and  C_12
REMARK    7  A    between atoms: N_14  and  C_15
REMARK    8  A    between atoms: C_16  and  C_27
REMARK    9  A    between atoms: C_20  and  C_25
REMARK   10  A    between atoms: C_20  and  C_26
REMARK   11  A    between atoms: C_21  and  C_23
REMARK   12  A    between atoms: C_21  and  C_24
REMARK                            x       y       z     vdW  Elec       q    Type
REMARK                         _______ _______ _______ _____ _____    ______ ____
ROOT
ATOM      1  C   UNL     1      -4.611   1.695  -1.580  0.00  0.00    +0.090 A 
ATOM      2  C   UNL     1      -4.014   0.968  -0.557  0.00  0.00    +0.084 A 
ATOM      3  C   UNL     1      -2.938   1.604   0.171  0.00  0.00    -0.021 A 
ATOM      4  C   UNL     1      -2.631   2.862  -0.224  0.00  0.00    -0.015 A 
ATOM      5  S   UNL     1      -3.749   3.198  -1.554  0.00  0.00    -0.078 S 
ATOM      6  C   UNL     1      -1.575   3.745   0.357  0.00  0.00    -0.041 C 
ATOM      7  C   UNL     1      -0.729   1.579   1.268  0.00  0.00    -0.069 C 
ATOM      8  C   UNL     1      -2.142   0.986   1.313  0.00  0.00    +0.024 C 
ATOM      9  C   UNL     1      -0.013   1.086   0.008  0.00  0.00    -0.010 C 
ATOM     10  C   UNL     1       0.044   1.050   2.489  0.00  0.00    -0.010 C 
ATOM     11  C   UNL     1      -2.265   4.928   1.063  0.00  0.00    -0.005 C 
ATOM     12  C   UNL     1      -0.706   4.311  -0.775  0.00  0.00    -0.005 C 
ATOM     13  N   UNL     1      -0.715   3.062   1.366  0.00  0.00    +0.389 N 
ATOM     14  H   UNL     1      -1.042   3.326   2.302  0.00  0.00    -0.084 HD
ATOM     15  H   UNL     1       0.252   3.384   1.237  0.00  0.00    -0.084 HD
ENDROOT
BRANCH   1  18
ATOM     16  C   UNL     1      -6.098   2.156  -3.365  0.00  0.00    +0.258 C 
ATOM     17  O   UNL     1      -5.602   3.257  -3.481  0.00  0.00    -0.272 OA
ATOM     18  N   UNL     1      -5.645   1.308  -2.421  0.00  0.00    -0.276 N 
ATOM     19  H   UNL     1      -6.043   0.428  -2.328  0.00  0.00    +0.155 HD
BRANCH  16  20
ATOM     20  C   UNL     1      -7.222   1.737  -4.278  0.00  0.00    +0.358 C 
BRANCH  20  21
ATOM     21  O   UNL     1      -7.520   2.799  -5.186  0.00  0.00    -0.384 OA
BRANCH  21  23
ATOM     22  C   UNL     1      -8.933   3.386  -6.966  0.00  0.00    +0.084 C 
ATOM     23  N   UNL     1      -8.568   2.506  -6.092  0.00  0.00    -0.089 NA
ATOM     24  C   UNL     1      -8.244   4.726  -7.019  0.00  0.00    +0.069 C 
BRANCH  22  29
ATOM     25  C   UNL     1     -13.190   2.193 -10.647  0.00  0.00    +0.044 C 
ATOM     26  C   UNL     1     -12.075   2.506  -9.683  0.00  0.00    -0.050 A 
ATOM     27  C   UNL     1     -11.686   1.561  -8.750  0.00  0.00    +0.004 A 
ATOM     28  C   UNL     1     -10.666   1.841  -7.864  0.00  0.00    +0.010 A 
ATOM     29  C   UNL     1     -10.025   3.080  -7.911  0.00  0.00    -0.001 A 
ATOM     30  C   UNL     1     -10.426   4.031  -8.851  0.00  0.00    +0.010 A 
ATOM     31  C   UNL     1     -11.444   3.736  -9.735  0.00  0.00    +0.004 A 
ENDBRANCH  22  29
ENDBRANCH  21  23
ENDBRANCH  20  21
ENDBRANCH  16  20
ENDBRANCH   1  18
BRANCH   2  32
ATOM     32  C   UNL     1      -4.460  -0.357  -0.245  0.00  0.00    +0.102 C 
ATOM     33  N   UNL     1      -4.814  -1.408   0.003  0.00  0.00    -0.191 NA
ENDBRANCH   2  32
TORSDOF 6
