REMARK  Name = ZINC16010194
REMARK  5 active torsions:
REMARK  status: ('A' for Active; 'I' for Inactive)
REMARK    1  A    between atoms: C_1  and  C_2
REMARK    2  A    between atoms: C_2  and  C_4
REMARK    3  A    between atoms: C_2  and  O_35
REMARK    4  A    between atoms: N_12  and  C_15
REMARK    5  A    between atoms: C_15  and  C_16
REMARK                            x       y       z     vdW  Elec       q    Type
REMARK                         _______ _______ _______ _____ _____    ______ ____
ROOT
ATOM      1  C   UNL     1       0.690  -0.468  -1.266  0.00  0.00    +0.096 C 
ATOM      2  C   UNL     1       0.704  -2.011  -1.269  0.00  0.00    +0.109 C 
ATOM      3  C   UNL     1       0.543  -2.409  -2.763  0.00  0.00    +0.123 C 
ATOM      4  C   UNL     1      -0.796  -3.112  -2.793  0.00  0.00    +0.229 C 
ATOM      5  O   UNL     1      -1.311  -3.596  -3.778  0.00  0.00    -0.275 OA
ATOM      6  N   UNL     1      -1.324  -3.117  -1.564  0.00  0.00    -0.237 N 
ATOM      7  C   UNL     1      -0.560  -2.524  -0.617  0.00  0.00    +0.228 C 
ATOM      8  O   UNL     1      -0.835  -2.416   0.558  0.00  0.00    -0.275 OA
ATOM      9  C   UNL     1       0.455  -1.072  -3.510  0.00  0.00    +0.136 C 
ATOM     10  N   UNL     1      -0.025  -0.087  -2.513  0.00  0.00    -0.293 NA
ATOM     11  C   UNL     1       1.779  -0.685  -4.104  0.00  0.00    +0.005 A 
ATOM     12  C   UNL     1       3.026  -0.449  -3.568  0.00  0.00    +0.008 A 
ATOM     13  C   UNL     1       4.080  -0.100  -4.393  0.00  0.00    +0.002 A 
ATOM     14  C   UNL     1       3.880   0.010  -5.757  0.00  0.00    +0.022 A 
ATOM     15  C   UNL     1       2.632  -0.225  -6.299  0.00  0.00    +0.062 A 
ATOM     16  C   UNL     1       1.564  -0.575  -5.474  0.00  0.00    +0.057 A 
ATOM     17  N   UNL     1       0.230  -0.856  -5.778  0.00  0.00    -0.282 N 
ATOM     18  C   UNL     1      -0.488  -1.157  -4.678  0.00  0.00    +0.243 C 
ATOM     19  O   UNL     1      -1.667  -1.440  -4.639  0.00  0.00    -0.273 OA
ATOM     20 CL   UNL     1       2.392  -0.082  -8.012  0.00  0.00    -0.082 Cl
ATOM     21  H   UNL     1      -1.025  -0.144  -2.388  0.00  0.00    +0.124 HD
ATOM     22  H   UNL     1      -0.137  -0.836  -6.676  0.00  0.00    +0.155 HD
ENDROOT
BRANCH   1  24
ATOM     23  C   UNL     1      -0.096   1.583  -0.076  0.00  0.00    +0.039 C 
ATOM     24  C   UNL     1      -0.062   0.054  -0.040  0.00  0.00    +0.129 C 
BRANCH  24  25
ATOM     25  O   UNL     1       0.604  -0.380   1.148  0.00  0.00    -0.390 OA
ATOM     26  H   UNL     1       0.181  -0.084   1.966  0.00  0.00    +0.210 HD
ENDBRANCH  24  25
ENDBRANCH   1  24
BRANCH   6  27
ATOM     27  C   UNL     1      -2.624  -3.721  -1.262  0.00  0.00    +0.153 C 
BRANCH  27  28
ATOM     28  C   UNL     1      -2.453  -5.204  -1.056  0.00  0.00    -0.011 A 
ATOM     29  C   UNL     1      -2.670  -6.077  -2.105  0.00  0.00    +0.006 A 
ATOM     30  C   UNL     1      -2.513  -7.438  -1.917  0.00  0.00    +0.000 A 
ATOM     31  C   UNL     1      -2.139  -7.926  -0.678  0.00  0.00    +0.001 A 
ATOM     32  C   UNL     1      -1.922  -7.053   0.372  0.00  0.00    +0.020 A 
ATOM     33  C   UNL     1      -2.073  -5.691   0.182  0.00  0.00    +0.046 A 
ATOM     34 CL   UNL     1      -1.794  -4.595   1.498  0.00  0.00    -0.083 Cl
ENDBRANCH  27  28
ENDBRANCH   6  27
TORSDOF 4
