REMARK  Name = ZINC39710907
REMARK  9 active torsions:
REMARK  status: ('A' for Active; 'I' for Inactive)
REMARK    1  A    between atoms: C_1  and  C_2
REMARK    2  A    between atoms: C_8  and  C_14
REMARK    3  A    between atoms: C_14  and  C_16
REMARK    4  A    between atoms: C_14  and  N_28
REMARK    5  A    between atoms: N_21  and  C_22
REMARK    6  A    between atoms: N_28  and  C_29
REMARK    7  A    between atoms: N_28  and  C_36
REMARK    8  A    between atoms: C_29  and  C_30
REMARK    9  A    between atoms: C_36  and  C_37
REMARK                            x       y       z     vdW  Elec       q    Type
REMARK                         _______ _______ _______ _____ _____    ______ ____
ROOT
ATOM      1  C   UNL     1       1.908  -2.734   5.231  0.00  0.00    -0.009 C 
ENDROOT
BRANCH   1   9
ATOM      2  C   UNL     1      -1.034  -3.062  -0.145  0.00  0.00    +0.045 C 
ATOM      3  C   UNL     1      -1.546  -2.917   1.265  0.00  0.00    -0.029 A 
ATOM      4  C   UNL     1      -2.857  -3.152   1.533  0.00  0.00    +0.005 A 
ATOM      5  C   UNL     1      -3.395  -3.037   2.815  0.00  0.00    +0.001 A 
ATOM      6  C   UNL     1      -2.626  -2.678   3.875  0.00  0.00    +0.009 A 
ATOM      7  C   UNL     1      -1.204  -2.410   3.657  0.00  0.00    -0.007 A 
ATOM      8  C   UNL     1      -0.394  -2.047   4.691  0.00  0.00    -0.006 C 
ATOM      9  C   UNL     1       1.066  -1.788   4.373  0.00  0.00    +0.088 C 
ATOM     10  C   UNL     1       1.504  -1.953   2.935  0.00  0.00    +0.223 C 
ATOM     11  O   UNL     1       2.663  -1.758   2.624  0.00  0.00    -0.275 OA
ATOM     12  N   UNL     1       0.621  -2.311   2.018  0.00  0.00    -0.284 N 
ATOM     13  C   UNL     1      -0.662  -2.544   2.294  0.00  0.00    +0.043 A 
ATOM     14  H   UNL     1       0.922  -2.411   1.101  0.00  0.00    +0.155 HD
ENDBRANCH   1   9
BRANCH   1  15
ATOM     15  C   UNL     1       1.374  -4.161   5.092  0.00  0.00    +0.205 C 
ATOM     16  N   UNL     1       2.158  -5.085   5.922  0.00  0.00    -0.152 NA
ATOM     17  N   UNL     1       2.688  -5.925   5.192  0.00  0.00    -0.070 NA
ATOM     18  N   UNL     1       2.385  -5.740   3.844  0.00  0.00    -0.179 N 
ATOM     19  N   UNL     1       1.562  -4.649   3.710  0.00  0.00    -0.185 NA
ATOM     20  H   UNL     1       2.704  -6.295   3.115  0.00  0.00    +0.191 HD
BRANCH  19  21
ATOM     21  C   UNL     1       0.277  -5.027   3.106  0.00  0.00    +0.080 C 
ATOM     22  C   UNL     1      -0.469  -5.976   4.046  0.00  0.00    +0.021 C 
ATOM     23  C   UNL     1      -1.807  -6.370   3.417  0.00  0.00    +0.002 C 
ATOM     24  C   UNL     1      -1.556  -7.069   2.079  0.00  0.00    +0.000 C 
ATOM     25  C   UNL     1      -0.810  -6.119   1.140  0.00  0.00    +0.002 C 
ATOM     26  C   UNL     1       0.528  -5.726   1.769  0.00  0.00    +0.021 C 
ENDBRANCH  19  21
ENDBRANCH   1  15
BRANCH   1  27
ATOM     27  N   UNL     1       1.832  -2.317   6.638  0.00  0.00    +0.390 N 
ATOM     28  H   UNL     1       0.902  -2.490   6.990  0.00  0.00    -0.080 HD
BRANCH  27  29
ATOM     29  C   UNL     1       2.137  -0.884   6.742  0.00  0.00    -0.042 C 
BRANCH  29  30
ATOM     30  C   UNL     1       3.426  -0.591   6.019  0.00  0.00    -0.064 A 
ATOM     31  C   UNL     1       4.637  -0.877   6.623  0.00  0.00    +0.002 A 
ATOM     32  C   UNL     1       5.820  -0.608   5.960  0.00  0.00    +0.000 A 
ATOM     33  C   UNL     1       5.793  -0.054   4.694  0.00  0.00    +0.000 A 
ATOM     34  C   UNL     1       4.582   0.231   4.090  0.00  0.00    +0.000 A 
ATOM     35  C   UNL     1       3.399  -0.042   4.751  0.00  0.00    +0.002 A 
ENDBRANCH  29  30
ENDBRANCH  27  29
BRANCH  27  36
ATOM     36  C   UNL     1       2.805  -3.083   7.429  0.00  0.00    -0.040 C 
BRANCH  36  37
ATOM     37  C   UNL     1       2.652  -2.735   8.887  0.00  0.00    -0.046 A 
ATOM     38  C   UNL     1       3.258  -1.600   9.405  0.00  0.00    +0.005 A 
ATOM     39  C   UNL     1       3.091  -1.320  10.752  0.00  0.00    +0.020 A 
ATOM     40  C   UNL     1       2.330  -2.174  11.529  0.00  0.00    +0.111 A 
ATOM     41  N   UNL     1       1.769  -3.245  11.002  0.00  0.00    -0.263 NA
ATOM     42  C   UNL     1       1.903  -3.539   9.723  0.00  0.00    +0.112 A 
ENDBRANCH  36  37
ENDBRANCH  27  36
ENDBRANCH   1  27
TORSDOF 8
