REMARK  Name = ZINC02450889
REMARK  5 active torsions:
REMARK  status: ('A' for Active; 'I' for Inactive)
REMARK    1  A    between atoms: C_1  and  C_2
REMARK    2  A    between atoms: N_5  and  C_7
REMARK    3  A    between atoms: C_12  and  C_14
REMARK    4  A    between atoms: C_12  and  C_15
REMARK    5  A    between atoms: C_21  and  C_23
REMARK                            x       y       z     vdW  Elec       q    Type
REMARK                         _______ _______ _______ _____ _____    ______ ____
ROOT
ATOM      1  C   UNL     1      -0.018   1.503   0.010  0.00  0.00    +0.068 C 
ATOM      2  C   UNL     1       0.002  -0.004   0.002  0.00  0.00    +0.066 A 
ATOM      3  C   UNL     1       0.008  -0.820  -1.149  0.00  0.00    +0.032 A 
ATOM      4  C   UNL     1       0.026  -2.108  -0.741  0.00  0.00    +0.128 A 
ATOM      5  N   UNL     1       0.034  -2.096   0.628  0.00  0.00    -0.247 N 
ATOM      6  N   UNL     1       0.023  -0.769   1.056  0.00  0.00    -0.174 NA
ATOM      7  N   UNL     1       0.033  -3.292  -1.440  0.00  0.00    -0.270 N 
ATOM      8  C   UNL     1       0.075  -3.614  -2.697  0.00  0.00    +0.228 C 
ATOM      9  O   UNL     1       0.171  -4.803  -2.916  0.00  0.00    -0.275 OA
ATOM     10  C   UNL     1       0.024  -2.763  -3.905  0.00  0.00    +0.166 C 
ATOM     11  S   UNL     1       0.927  -1.220  -3.714  0.00  0.00    -0.138 S 
ATOM     12  C   UNL     1      -0.004  -0.244  -2.530  0.00  0.00    +0.112 C 
ATOM     13  H   UNL     1      -0.002  -4.067  -0.858  0.00  0.00    +0.156 HD
ENDROOT
BRANCH   5  14
ATOM     14  C   UNL     1       0.056  -3.276   1.496  0.00  0.00    +0.114 C 
ATOM     15  C   UNL     1      -1.186  -3.277   2.392  0.00  0.00    +0.055 C 
ATOM     16  C   UNL     1      -1.115  -4.470   3.349  0.00  0.00    +0.162 C 
ATOM     17  O   UNL     1       0.087  -4.392   4.117  0.00  0.00    -0.374 OA
ATOM     18  C   UNL     1       1.283  -4.434   3.336  0.00  0.00    +0.066 C 
ATOM     19  C   UNL     1       1.309  -3.241   2.377  0.00  0.00    +0.061 C 
ATOM     20  C   UNL     1       2.500  -4.372   4.261  0.00  0.00    +0.041 C 
ATOM     21  C   UNL     1       1.320  -5.735   2.530  0.00  0.00    +0.041 C 
ENDBRANCH   5  14
BRANCH  12  22
ATOM     22  C   UNL     1       0.583   1.144  -2.480  0.00  0.00    -0.030 A 
ATOM     23  C   UNL     1       1.881   1.330  -2.044  0.00  0.00    +0.005 A 
ATOM     24  C   UNL     1       2.419   2.603  -1.997  0.00  0.00    +0.000 A 
ATOM     25  C   UNL     1       1.658   3.689  -2.388  0.00  0.00    +0.000 A 
ATOM     26  C   UNL     1       0.360   3.503  -2.825  0.00  0.00    +0.000 A 
ATOM     27  C   UNL     1      -0.176   2.229  -2.875  0.00  0.00    +0.005 A 
ENDBRANCH  12  22
TORSDOF 2
