REMARK  Name = ZINC36597516
REMARK  15 active torsions:
REMARK  status: ('A' for Active; 'I' for Inactive)
REMARK    1  A    between atoms: C_1  and  C_2
REMARK    2  A    between atoms: C_2  and  C_3
REMARK    3  A    between atoms: C_3  and  C_4
REMARK    4  A    between atoms: C_4  and  N_5
REMARK    5  A    between atoms: C_6  and  C_8
REMARK    6  A    between atoms: C_8  and  C_10
REMARK    7  A    between atoms: C_8  and  N_22
REMARK    8  A    between atoms: C_19  and  O_20
REMARK    9  A    between atoms: O_20  and  C_21
REMARK   10  A    between atoms: N_22  and  C_23
REMARK   11  A    between atoms: C_23  and  C_24
REMARK   12  A    between atoms: C_27  and  C_29
REMARK   13  A    between atoms: C_30  and  C_32
REMARK   14  A    between atoms: C_33  and  O_39
REMARK   15  A    between atoms: C_37  and  O_38
REMARK                            x       y       z     vdW  Elec       q    Type
REMARK                         _______ _______ _______ _____ _____    ______ ____
ROOT
ATOM      1  C   UNL     1       2.320  -4.327  -3.879  0.00  0.00    +0.197 C 
ENDROOT
BRANCH   1   2
ATOM      2  C   UNL     1       3.707  -3.800  -3.615  0.00  0.00    +0.031 A 
ATOM      3  C   UNL     1       4.178  -2.673  -4.309  0.00  0.00    -0.009 A 
ATOM      4  C   UNL     1       3.377  -2.014  -5.258  0.00  0.00    +0.009 A 
ATOM      5  C   UNL     1       3.866  -0.925  -5.912  0.00  0.00    +0.001 A 
ATOM      6  C   UNL     1       5.151  -0.451  -5.655  0.00  0.00    +0.001 A 
ATOM      7  C   UNL     1       5.955  -1.063  -4.743  0.00  0.00    +0.008 A 
ATOM      8  C   UNL     1       5.485  -2.191  -4.047  0.00  0.00    -0.017 A 
ATOM      9  C   UNL     1       6.287  -2.848  -3.098  0.00  0.00    +0.012 A 
ATOM     10  C   UNL     1       5.801  -3.936  -2.443  0.00  0.00    +0.046 A 
ATOM     11  C   UNL     1       4.511  -4.411  -2.695  0.00  0.00    +0.126 A 
BRANCH  11  12
ATOM     12  O   UNL     1       4.052  -5.497  -2.021  0.00  0.00    -0.495 OA
ATOM     13  C   UNL     1       4.976  -6.163  -1.158  0.00  0.00    +0.277 C 
ENDBRANCH  11  12
ENDBRANCH   1   2
BRANCH   1  15
ATOM     14  N   UNL     1       1.436  -2.739  -2.202  0.00  0.00    -0.313 N 
ATOM     15  C   UNL     1       1.422  -3.983  -2.718  0.00  0.00    +0.238 C 
ATOM     16  O   UNL     1       0.688  -4.827  -2.249  0.00  0.00    -0.273 OA
ATOM     17  H   UNL     1       2.023  -2.064  -2.577  0.00  0.00    +0.149 HD
BRANCH  14  18
ATOM     18  C   UNL     1       0.563  -2.405  -1.073  0.00  0.00    +0.104 C 
BRANCH  18  19
ATOM     19  C   UNL     1       0.772  -0.940  -0.683  0.00  0.00    +0.018 C 
BRANCH  19  21
ATOM     20  C   UNL     1       0.069   0.874   0.885  0.00  0.00    +0.004 C 
ATOM     21  C   UNL     1      -0.140  -0.591   0.495  0.00  0.00    -0.002 C 
ENDBRANCH  19  21
ENDBRANCH  18  19
ENDBRANCH  14  18
ENDBRANCH   1  15
BRANCH   1  22
ATOM     22  N   UNL     1       2.374  -5.782  -4.041  0.00  0.00    -0.274 N 
ATOM     23  C   UNL     1       2.893  -6.317  -5.164  0.00  0.00    +0.255 C 
ATOM     24  O   UNL     1       2.859  -7.520  -5.336  0.00  0.00    -0.270 OA
BRANCH  23  25
ATOM     25  C   UNL     1       3.500  -5.444  -6.182  0.00  0.00    +0.119 A 
ATOM     26  C   UNL     1       4.889  -5.255  -6.212  0.00  0.00    +0.133 A 
ATOM     27  C   UNL     1       5.451  -4.431  -7.175  0.00  0.00    +0.046 A 
ATOM     28  C   UNL     1       4.646  -3.798  -8.104  0.00  0.00    +0.007 A 
ATOM     29  C   UNL     1       3.276  -3.977  -8.083  0.00  0.00    +0.046 A 
ATOM     30  C   UNL     1       2.694  -4.800  -7.133  0.00  0.00    +0.133 A 
BRANCH  30  31
ATOM     31  O   UNL     1       1.349  -4.979  -7.118  0.00  0.00    -0.506 OA
ATOM     32  H   UNL     1       0.867  -4.295  -6.636  0.00  0.00    +0.292 HD
ENDBRANCH  30  31
BRANCH  26  33
ATOM     33  O   UNL     1       5.681  -5.875  -5.301  0.00  0.00    -0.506 OA
ATOM     34  H   UNL     1       5.993  -6.747  -5.580  0.00  0.00    +0.292 HD
ENDBRANCH  26  33
ENDBRANCH  23  25
BRANCH  22  35
ATOM     35  C   UNL     1       1.864  -6.656  -2.981  0.00  0.00    +0.183 C 
BRANCH  35  36
ATOM     36  C   UNL     1       0.472  -7.114  -3.335  0.00  0.00    +0.122 A 
ATOM     37  C   UNL     1       0.162  -8.223  -4.030  0.00  0.00    +0.046 A 
ATOM     38  C   UNL     1      -1.248  -8.264  -4.129  0.00  0.00    +0.045 A 
ATOM     39  C   UNL     1      -1.715  -7.177  -3.488  0.00  0.00    +0.102 A 
ATOM     40  O   UNL     1      -0.669  -6.487  -3.004  0.00  0.00    -0.463 OA
ATOM     41  C   UNL     1      -3.166  -6.800  -3.335  0.00  0.00    +0.086 C 
ENDBRANCH  35  36
ENDBRANCH  22  35
ENDBRANCH   1  22
TORSDOF 12
