REMARK  Name = ZINC63830660
REMARK  5 active torsions:
REMARK  status: ('A' for Active; 'I' for Inactive)
REMARK    1  A    between atoms: C_4  and  C_7
REMARK    2  A    between atoms: C_18  and  C_20
REMARK    3  A    between atoms: C_20  and  N_21
REMARK    4  A    between atoms: C_24  and  C_29
REMARK    5  A    between atoms: C_29  and  C_30
REMARK                            x       y       z     vdW  Elec       q    Type
REMARK                         _______ _______ _______ _____ _____    ______ ____
ROOT
ATOM      1  C   UNL     1       3.993  -3.082   2.970  0.00  0.00    +0.214 C 
ENDROOT
BRANCH   1  12
ATOM      2  C   UNL     1       2.913  -3.072   0.316  0.00  0.00    +0.149 C 
ATOM      3  C   UNL     1       1.650  -2.570  -0.398  0.00  0.00    +0.256 C 
ATOM      4  O   UNL     1       2.036  -1.675  -1.443  0.00  0.00    -0.488 OA
ATOM      5  C   UNL     1       2.908  -0.679  -1.134  0.00  0.00    +0.142 A 
ATOM      6  C   UNL     1       2.991   0.439  -1.951  0.00  0.00    +0.047 A 
ATOM      7  C   UNL     1       3.876   1.455  -1.645  0.00  0.00    +0.004 A 
ATOM      8  C   UNL     1       4.683   1.364  -0.526  0.00  0.00    +0.002 A 
ATOM      9  C   UNL     1       4.606   0.254   0.295  0.00  0.00    +0.027 A 
ATOM     10  C   UNL     1       3.719  -0.767  -0.006  0.00  0.00    +0.079 A 
ATOM     11  N   UNL     1       3.632  -1.894   0.831  0.00  0.00    -0.256 N 
ATOM     12  C   UNL     1       4.185  -1.897   2.060  0.00  0.00    +0.238 C 
ATOM     13  O   UNL     1       4.839  -0.946   2.433  0.00  0.00    -0.273 OA
BRANCH   2  17
ATOM     14  C   UNL     1       5.390  -5.194  -2.442  0.00  0.00    +0.000 A 
ATOM     15  C   UNL     1       4.588  -5.889  -1.557  0.00  0.00    +0.000 A 
ATOM     16  C   UNL     1       3.786  -5.203  -0.664  0.00  0.00    +0.005 A 
ATOM     17  C   UNL     1       3.787  -3.821  -0.656  0.00  0.00    -0.023 A 
ATOM     18  C   UNL     1       4.590  -3.125  -1.541  0.00  0.00    +0.005 A 
ATOM     19  C   UNL     1       5.390  -3.811  -2.435  0.00  0.00    +0.000 A 
ENDBRANCH   2  17
ENDBRANCH   1  12
BRANCH   1  20
ATOM     20  N   UNL     1       4.585  -2.795   4.279  0.00  0.00    -0.216 N 
ATOM     21  C   UNL     1       5.864  -3.065   4.607  0.00  0.00    +0.244 C 
ATOM     22  O   UNL     1       6.709  -3.574   3.902  0.00  0.00    -0.273 OA
ATOM     23  C   UNL     1       6.026  -2.601   6.041  0.00  0.00    +0.165 C 
ATOM     24  N   UNL     1       4.695  -2.074   6.387  0.00  0.00    -0.287 N 
ATOM     25  C   UNL     1       3.925  -2.225   5.294  0.00  0.00    +0.310 C 
ATOM     26  O   UNL     1       2.759  -1.887   5.237  0.00  0.00    -0.252 OA
ATOM     27  H   UNL     1       4.427  -1.689   7.236  0.00  0.00    +0.151 HD
BRANCH  23  28
ATOM     28  C   UNL     1       6.396  -3.776   6.948  0.00  0.00    +0.065 C 
BRANCH  28  29
ATOM     29  C   UNL     1       6.670  -3.269   8.340  0.00  0.00    -0.039 C 
ATOM     30  C   UNL     1       5.800  -3.219   9.374  0.00  0.00    -0.001 A 
ATOM     31  C   UNL     1       4.391  -3.607   9.507  0.00  0.00    +0.010 A 
ATOM     32  C   UNL     1       3.772  -3.432  10.697  0.00  0.00    +0.001 A 
ATOM     33  C   UNL     1       4.441  -2.892  11.804  0.00  0.00    +0.002 A 
ATOM     34  C   UNL     1       5.735  -2.512  11.759  0.00  0.00    +0.026 A 
ATOM     35  C   UNL     1       6.484  -2.651  10.558  0.00  0.00    +0.043 A 
ATOM     36  N   UNL     1       7.729  -2.361  10.267  0.00  0.00    -0.380 N 
ATOM     37  C   UNL     1       7.977  -2.718   8.866  0.00  0.00    +0.144 C 
ATOM     38  H   UNL     1       8.379  -1.978  10.877  0.00  0.00    +0.160 HD
ENDBRANCH  28  29
ENDBRANCH  23  28
ENDBRANCH   1  20
TORSDOF 5
