REMARK  Name = ZINC39937707
REMARK  11 active torsions:
REMARK  status: ('A' for Active; 'I' for Inactive)
REMARK    1  A    between atoms: C_1  and  C_2
REMARK    2  A    between atoms: C_2  and  N_3
REMARK    3  A    between atoms: N_3  and  C_4
REMARK    4  A    between atoms: C_8  and  S_10
REMARK    5  A    between atoms: S_10  and  C_11
REMARK    6  A    between atoms: C_11  and  C_12
REMARK    7  A    between atoms: C_17  and  C_34
REMARK    8  A    between atoms: C_18  and  C_23
REMARK    9  A    between atoms: N_25  and  C_26
REMARK   10  A    between atoms: C_29  and  C_33
REMARK   11  A    between atoms: C_31  and  C_32
REMARK                            x       y       z     vdW  Elec       q    Type
REMARK                         _______ _______ _______ _____ _____    ______ ____
ROOT
ATOM      1  C   UNL     1      -0.362  -5.727   6.785  0.00  0.00    +0.134 C 
ATOM      2  N   UNL     1      -1.652  -5.954   6.731  0.00  0.00    -0.160 NA
ATOM      3  C   UNL     1      -2.298  -6.678   7.652  0.00  0.00    +0.271 C 
ATOM      4  O   UNL     1      -3.500  -6.870   7.571  0.00  0.00    -0.268 OA
ATOM      5  C   UNL     1      -1.498  -7.245   8.784  0.00  0.00    +0.071 C 
ATOM      6  C   UNL     1      -1.926  -7.994   9.811  0.00  0.00    -0.036 C 
ATOM      7  C   UNL     1      -0.903  -8.442  10.829  0.00  0.00    +0.165 C 
ATOM      8  S   UNL     1       0.640  -7.698  10.160  0.00  0.00    -0.088 S 
ATOM      9  C   UNL     1      -0.058  -6.916   8.728  0.00  0.00    +0.112 C 
ATOM     10  N   UNL     1       0.422  -6.192   7.745  0.00  0.00    -0.227 NA
ATOM     11  C   UNL     1      -3.378  -8.374   9.946  0.00  0.00    +0.041 C 
ENDROOT
BRANCH   7  12
ATOM     12  C   UNL     1      -1.222  -7.889  12.195  0.00  0.00    +0.235 C 
ATOM     13  O   UNL     1      -1.793  -6.825  12.300  0.00  0.00    -0.274 OA
ATOM     14  N   UNL     1      -0.872  -8.578  13.299  0.00  0.00    -0.284 N 
ATOM     15  H   UNL     1      -0.487  -9.465  13.216  0.00  0.00    +0.155 HD
BRANCH  14  16
ATOM     16  C   UNL     1      -1.062  -8.014  14.565  0.00  0.00    +0.036 A 
ATOM     17  C   UNL     1      -1.108  -6.633  14.712  0.00  0.00    +0.024 A 
ATOM     18  C   UNL     1      -1.297  -6.080  15.963  0.00  0.00    +0.005 A 
ATOM     19  C   UNL     1      -1.440  -6.898  17.069  0.00  0.00    -0.050 A 
ATOM     20  C   UNL     1      -1.394  -8.273  16.926  0.00  0.00    +0.008 A 
ATOM     21  C   UNL     1      -1.212  -8.833  15.677  0.00  0.00    -0.029 A 
ATOM     22  C   UNL     1      -1.170 -10.331  15.521  0.00  0.00    +0.045 C 
ATOM     23  C   UNL     1      -1.645  -6.290  18.433  0.00  0.00    +0.044 C 
ENDBRANCH  14  16
ENDBRANCH   7  12
BRANCH   1  24
ATOM     24  C   UNL     1       0.263  -4.897   5.693  0.00  0.00    +0.150 C 
BRANCH  24  25
ATOM     25  S   UNL     1      -1.018  -4.388   4.513  0.00  0.00    -0.090 S 
BRANCH  25  29
ATOM     26  C   UNL     1       0.789  -1.918   1.246  0.00  0.00    +0.222 C 
ATOM     27  N   UNL     1       1.713  -2.412   2.292  0.00  0.00    -0.241 N 
ATOM     28  N   UNL     1       1.127  -3.168   3.282  0.00  0.00    -0.171 NA
ATOM     29  C   UNL     1      -0.141  -3.439   3.315  0.00  0.00    +0.151 C 
ATOM     30  S   UNL     1      -0.792  -2.629   1.861  0.00  0.00    -0.058 S 
ATOM     31  H   UNL     1       2.663  -2.217   2.280  0.00  0.00    +0.171 HD
BRANCH  26  32
ATOM     32  N   UNL     1       0.743  -0.450   1.224  0.00  0.00    -0.289 NA
ATOM     33  H   UNL     1       1.671  -0.057   1.280  0.00  0.00    +0.124 HD
BRANCH  32  35
ATOM     34  C   UNL     1       0.008   1.567   0.043  0.00  0.00    +0.020 C 
ATOM     35  C   UNL     1       0.037   0.037   0.031  0.00  0.00    +0.080 C 
ENDBRANCH  32  35
ENDBRANCH  26  32
ENDBRANCH  25  29
ENDBRANCH  24  25
ENDBRANCH   1  24
TORSDOF 7
