REMARK  Name = ZINC21467732
REMARK  8 active torsions:
REMARK  status: ('A' for Active; 'I' for Inactive)
REMARK    1  A    between atoms: C_6  and  C_7
REMARK    2  A    between atoms: C_7  and  C_9
REMARK    3  A    between atoms: C_7  and  N_30
REMARK    4  A    between atoms: C_9  and  C_10
REMARK    5  A    between atoms: C_10  and  O_12
REMARK    6  A    between atoms: O_12  and  C_13
REMARK    7  A    between atoms: C_13  and  C_14
REMARK    8  A    between atoms: N_16  and  C_17
REMARK                            x       y       z     vdW  Elec       q    Type
REMARK                         _______ _______ _______ _____ _____    ______ ____
ROOT
ATOM      1  O   UNL     1      -6.002   1.841   0.349  0.00  0.00    -0.455 OA
ENDROOT
BRANCH   1   2
ATOM      2  C   UNL     1      -7.229   1.307   0.459  0.00  0.00    +0.310 C 
ATOM      3  O   UNL     1      -7.368   0.107   0.467  0.00  0.00    -0.251 OA
BRANCH   2   4
ATOM      4  C   UNL     1      -8.434   2.206   0.574  0.00  0.00    +0.147 C 
BRANCH   4   5
ATOM      5  C   UNL     1      -9.698   1.352   0.686  0.00  0.00    +0.115 C 
BRANCH   5  11
ATOM      6  C   UNL     1     -10.705   3.523   1.418  0.00  0.00    +0.007 A 
ATOM      7  C   UNL     1     -11.796   4.345   1.631  0.00  0.00    +0.020 A 
ATOM      8  C   UNL     1     -13.072   3.884   1.360  0.00  0.00    +0.041 A 
ATOM      9  C   UNL     1     -13.255   2.603   0.870  0.00  0.00    +0.020 A 
ATOM     10  C   UNL     1     -12.163   1.784   0.652  0.00  0.00    +0.007 A 
ATOM     11  C   UNL     1     -10.888   2.245   0.923  0.00  0.00    -0.027 A 
ATOM     12 CL   UNL     1     -14.444   4.912   1.635  0.00  0.00    -0.084 Cl
ENDBRANCH   5  11
BRANCH   5  13
ATOM     13  N   UNL     1      -9.892   0.600  -0.556  0.00  0.00    -0.292 N 
ATOM     14  C   UNL     1     -10.146   1.254  -1.707  0.00  0.00    +0.298 C 
ATOM     15  O   UNL     1     -10.124   2.469  -1.733  0.00  0.00    -0.253 OA
ATOM     16  N   UNL     1     -10.423   0.560  -2.829  0.00  0.00    -0.313 N 
ATOM     17  H   UNL     1      -9.830  -0.498  -0.550  0.00  0.00    +0.151 HD
ATOM     18  H   UNL     1     -10.630   1.094  -3.768  0.00  0.00    +0.146 HD
ATOM     19  H   UNL     1     -10.442  -0.539  -2.805  0.00  0.00    +0.146 HD
ENDBRANCH   5  13
ENDBRANCH   4   5
ENDBRANCH   2   4
ENDBRANCH   1   2
BRANCH   1  20
ATOM     20  C   UNL     1      -4.888   0.915   0.243  0.00  0.00    +0.328 C 
BRANCH  20  21
ATOM     21  C   UNL     1      -3.601   1.690   0.128  0.00  0.00    +0.255 C 
ATOM     22  O   UNL     1      -3.620   2.903   0.135  0.00  0.00    -0.272 OA
ATOM     23  N   UNL     1      -2.428   1.035   0.018  0.00  0.00    -0.283 N 
ATOM     24  H   UNL     1      -2.417  -0.060  -0.085  0.00  0.00    +0.155 HD
BRANCH  23  25
ATOM     25  C   UNL     1      -1.223   1.750   0.034  0.00  0.00    +0.037 A 
ATOM     26  C   UNL     1      -0.100   1.230  -0.597  0.00  0.00    +0.027 A 
ATOM     27  C   UNL     1       1.092   1.930  -0.577  0.00  0.00    +0.051 A 
ATOM     28  C   UNL     1       1.167   3.152   0.067  0.00  0.00    +0.167 A 
ATOM     29  C   UNL     1       0.039   3.680   0.695  0.00  0.00    +0.169 A 
ATOM     30  C   UNL     1      -1.153   2.979   0.675  0.00  0.00    +0.073 A 
ATOM     31  O   UNL     1       0.380   4.886   1.249  0.00  0.00    -0.447 OA
ATOM     32  C   UNL     1       1.550   5.280   0.517  0.00  0.00    +0.254 C 
ATOM     33  O   UNL     1       2.204   4.035   0.232  0.00  0.00    -0.448 OA
ATOM     34  C   UNL     1       2.445   6.202   1.352  0.00  0.00    +0.093 C 
ATOM     35  C   UNL     1       3.045   7.183   0.311  0.00  0.00    +0.008 C 
ATOM     36  C   UNL     1       1.867   7.409  -0.671  0.00  0.00    +0.008 C 
ATOM     37  C   UNL     1       1.182   6.026  -0.765  0.00  0.00    +0.093 C 
ENDBRANCH  23  25
ENDBRANCH  20  21
ENDBRANCH   1  20
TORSDOF 8
