REMARK  Name = ZINC49488690
REMARK  11 active torsions:
REMARK  status: ('A' for Active; 'I' for Inactive)
REMARK    1  A    between atoms: C_1  and  C_2
REMARK    2  A    between atoms: C_5  and  C_8
REMARK    3  A    between atoms: C_8  and  C_10
REMARK    4  A    between atoms: C_8  and  N_35
REMARK    5  A    between atoms: C_10  and  N_11
REMARK    6  A    between atoms: C_12  and  C_14
REMARK    7  A    between atoms: N_16  and  C_17
REMARK    8  A    between atoms: N_23  and  S_27
REMARK    9  A    between atoms: S_27  and  C_30
REMARK   10  A    between atoms: N_35  and  C_36
REMARK   11  A    between atoms: N_35  and  C_37
REMARK                            x       y       z     vdW  Elec       q    Type
REMARK                         _______ _______ _______ _____ _____    ______ ____
ROOT
ATOM      1  C   UNL     1      -2.160  -8.517  -0.794  0.00  0.00    +0.303 C 
ATOM      2  O   UNL     1      -1.126  -9.130  -0.965  0.00  0.00    -0.265 OA
ATOM      3  N   UNL     1      -3.261  -9.162  -0.361  0.00  0.00    -0.278 N 
ATOM      4  H   UNL     1      -4.068  -8.663  -0.160  0.00  0.00    +0.155 HD
ENDROOT
BRANCH   3   5
ATOM      5  C   UNL     1      -3.241 -10.550  -0.203  0.00  0.00    +0.036 A 
ATOM      6  C   UNL     1      -2.086 -11.186   0.237  0.00  0.00    +0.024 A 
ATOM      7  C   UNL     1      -2.066 -12.557   0.391  0.00  0.00    +0.007 A 
ATOM      8  C   UNL     1      -3.195 -13.310   0.111  0.00  0.00    -0.025 A 
ATOM      9  C   UNL     1      -4.351 -12.680  -0.326  0.00  0.00    +0.056 A 
ATOM     10  C   UNL     1      -4.376 -11.299  -0.479  0.00  0.00    +0.048 A 
ATOM     11  N   UNL     1      -5.507 -13.416  -0.607  0.00  0.00    -0.202 N 
ATOM     12  C   UNL     1      -5.407 -14.877  -0.729  0.00  0.00    +0.132 C 
ATOM     13  C   UNL     1      -4.539 -15.386   0.429  0.00  0.00    +0.025 C 
ATOM     14  C   UNL     1      -3.133 -14.805   0.286  0.00  0.00    +0.038 C 
BRANCH  11  15
ATOM     15  S   UNL     1      -6.964 -12.654  -0.798  0.00  0.00    +0.081 S 
ATOM     16  O   UNL     1      -7.965 -13.657  -0.692  0.00  0.00    -0.149 OA
ATOM     17  O   UNL     1      -6.939 -11.511   0.045  0.00  0.00    -0.149 OA
BRANCH  15  18
ATOM     18  C   UNL     1      -7.026 -12.055  -2.455  0.00  0.00    +0.146 A 
ATOM     19  C   UNL     1      -7.494 -12.671  -3.568  0.00  0.00    +0.036 A 
ATOM     20  C   UNL     1      -7.442 -12.002  -4.776  0.00  0.00    +0.010 A 
ATOM     21  C   UNL     1      -6.923 -10.750  -4.812  0.00  0.00    +0.047 A 
ATOM     22  S   UNL     1      -6.494 -10.478  -3.101  0.00  0.00    -0.077 S 
ENDBRANCH  15  18
ENDBRANCH  11  15
ENDBRANCH   3   5
BRANCH   1  24
ATOM     23  N   UNL     1      -1.110  -6.404  -1.496  0.00  0.00    -0.309 N 
ATOM     24  C   UNL     1      -2.212  -7.049  -1.063  0.00  0.00    +0.299 C 
ATOM     25  O   UNL     1      -3.246  -6.437  -0.893  0.00  0.00    -0.265 OA
ATOM     26  H   UNL     1      -0.284  -6.893  -1.633  0.00  0.00    +0.149 HD
BRANCH  23  27
ATOM     27  C   UNL     1      -1.161  -4.964  -1.760  0.00  0.00    +0.094 C 
BRANCH  27  28
ATOM     28  C   UNL     1       0.172  -4.508  -2.357  0.00  0.00    -0.021 C 
BRANCH  28  33
ATOM     29  C   UNL     1       0.994  -7.118  -7.447  0.00  0.00    +0.044 C 
ATOM     30  C   UNL     1       0.779  -6.437  -6.120  0.00  0.00    -0.050 A 
ATOM     31  C   UNL     1       1.412  -6.915  -4.987  0.00  0.00    +0.003 A 
ATOM     32  C   UNL     1       1.216  -6.291  -3.770  0.00  0.00    +0.002 A 
ATOM     33  C   UNL     1       0.387  -5.188  -3.685  0.00  0.00    -0.059 A 
ATOM     34  C   UNL     1      -0.245  -4.709  -4.817  0.00  0.00    +0.002 A 
ATOM     35  C   UNL     1      -0.046  -5.331  -6.035  0.00  0.00    +0.003 A 
ENDBRANCH  28  33
BRANCH  28  36
ATOM     36  N   UNL     1       0.148  -3.052  -2.551  0.00  0.00    +0.382 N 
ATOM     37  C   UNL     1       0.035  -2.386  -1.247  0.00  0.00    -0.096 C 
ATOM     38  C   UNL     1       1.389  -2.626  -3.212  0.00  0.00    -0.096 C 
ATOM     39  H   UNL     1      -0.642  -2.802  -3.127  0.00  0.00    -0.082 HD
ENDBRANCH  28  36
ENDBRANCH  27  28
ENDBRANCH  23  27
ENDBRANCH   1  24
TORSDOF 8
