REMARK  Name = ZINC00656905
REMARK  4 active torsions:
REMARK  status: ('A' for Active; 'I' for Inactive)
REMARK    1  A    between atoms: C_1  and  C_2
REMARK    2  A    between atoms: C_9  and  N_14
REMARK    3  A    between atoms: C_10  and  C_11
REMARK    4  A    between atoms: C_15  and  C_17
REMARK                            x       y       z     vdW  Elec       q    Type
REMARK                         _______ _______ _______ _____ _____    ______ ____
ROOT
ATOM      1  N   UNL     1       0.696  -5.847   2.434  0.00  0.00    -0.279 N 
ATOM      2  C   UNL     1       1.677  -6.096   3.324  0.00  0.00    +0.230 C 
ATOM      3  O   UNL     1       2.383  -5.191   3.716  0.00  0.00    -0.274 OA
ATOM      4  H   UNL     1       0.131  -6.571   2.120  0.00  0.00    +0.155 HD
ENDROOT
BRANCH   2   5
ATOM      5  C   UNL     1       1.898  -7.498   3.830  0.00  0.00    +0.142 C 
ATOM      6  C   UNL     1       0.642  -7.990   4.495  0.00  0.00    +0.011 A 
ATOM      7  C   UNL     1      -0.415  -8.423   3.714  0.00  0.00    +0.008 A 
ATOM      8  C   UNL     1      -1.577  -8.879   4.307  0.00  0.00    +0.001 A 
ATOM      9  C   UNL     1      -1.687  -8.903   5.685  0.00  0.00    +0.004 A 
ATOM     10  C   UNL     1      -0.637  -8.472   6.470  0.00  0.00    +0.046 A 
ATOM     11  C   UNL     1       0.534  -8.013   5.876  0.00  0.00    +0.133 A 
ATOM     12  O   UNL     1       1.555  -7.595   6.663  0.00  0.00    -0.455 OA
ATOM     13  C   UNL     1       2.816  -7.548   6.169  0.00  0.00    +0.133 A 
ATOM     14  C   UNL     1       3.045  -7.500   4.804  0.00  0.00    +0.011 A 
ATOM     15  C   UNL     1       4.343  -7.452   4.324  0.00  0.00    +0.008 A 
ATOM     16  C   UNL     1       5.409  -7.454   5.203  0.00  0.00    +0.001 A 
ATOM     17  C   UNL     1       5.183  -7.503   6.566  0.00  0.00    +0.004 A 
ATOM     18  C   UNL     1       3.891  -7.549   7.051  0.00  0.00    +0.046 A 
ENDBRANCH   2   5
BRANCH   1  26
ATOM     19  C   UNL     1      -0.019   1.526   0.010  0.00  0.00    +0.008 C 
ATOM     20  C   UNL     1       0.002  -0.004   0.002  0.00  0.00    -0.009 C 
ATOM     21  C   UNL     1      -1.434  -0.537   0.019  0.00  0.00    +0.008 C 
ATOM     22  C   UNL     1      -1.433  -2.045  -0.237  0.00  0.00    +0.037 C 
ATOM     23  C   UNL     1      -0.464  -2.704   0.734  0.00  0.00    -0.023 A 
ATOM     24  C   UNL     1       0.485  -1.986   1.374  0.00  0.00    -0.004 A 
ATOM     25  S   UNL     1       1.343  -3.167   2.373  0.00  0.00    -0.077 S 
ATOM     26  C   UNL     1       0.492  -4.557   1.968  0.00  0.00    +0.084 A 
ATOM     27  C   UNL     1      -0.459  -4.119   1.061  0.00  0.00    +0.068 A 
ATOM     28  C   UNL     1       0.739  -0.515   1.248  0.00  0.00    +0.046 C 
BRANCH  27  29
ATOM     29  C   UNL     1      -1.421  -5.045   0.456  0.00  0.00    +0.244 C 
ATOM     30  O   UNL     1      -1.149  -5.611  -0.587  0.00  0.00    -0.270 OA
ATOM     31  N   UNL     1      -2.608  -5.271   1.055  0.00  0.00    -0.325 N 
ATOM     32  H   UNL     1      -2.825  -4.821   1.886  0.00  0.00    +0.145 HD
ATOM     33  H   UNL     1      -3.244  -5.884   0.655  0.00  0.00    +0.145 HD
ENDBRANCH  27  29
ENDBRANCH   1  26
TORSDOF 3
