REMARK  Name = ZINC59125381
REMARK  7 active torsions:
REMARK  status: ('A' for Active; 'I' for Inactive)
REMARK    1  A    between atoms: C_1  and  C_2
REMARK    2  A    between atoms: C_2  and  O_3
REMARK    3  A    between atoms: O_3  and  C_4
REMARK    4  A    between atoms: C_4  and  C_6
REMARK    5  A    between atoms: N_8  and  C_27
REMARK    6  A    between atoms: C_17  and  C_20
REMARK    7  A    between atoms: C_31  and  N_33
REMARK                            x       y       z     vdW  Elec       q    Type
REMARK                         _______ _______ _______ _____ _____    ______ ____
ROOT
ATOM      1  C   UNL     1      -2.845  -2.418   0.016  0.00  0.00    +0.202 C 
ATOM      2  N   UNL     1      -3.994  -1.790   0.025  0.00  0.00    -0.163 NA
ATOM      3  N   UNL     1      -5.212  -2.451   0.033  0.00  0.00    -0.192 N 
ATOM      4  C   UNL     1      -5.111  -3.901   0.032  0.00  0.00    +0.181 C 
ATOM      5  S   UNL     1      -3.304  -4.148   0.011  0.00  0.00    -0.054 S 
ATOM      6  C   UNL     1      -5.771  -4.590   1.198  0.00  0.00    +0.003 A 
ATOM      7  C   UNL     1      -5.728  -4.153   2.526  0.00  0.00    +0.008 A 
ATOM      8  C   UNL     1      -6.365  -4.840   3.532  0.00  0.00    +0.000 A 
ATOM      9  C   UNL     1      -7.068  -5.992   3.231  0.00  0.00    +0.000 A 
ATOM     10  C   UNL     1      -7.114  -6.433   1.929  0.00  0.00    +0.005 A 
ATOM     11  C   UNL     1      -6.469  -5.744   0.900  0.00  0.00    -0.023 A 
ATOM     12  C   UNL     1      -6.473  -6.191  -0.565  0.00  0.00    +0.110 C 
ATOM     13  S   UNL     1      -5.886  -4.671  -1.426  0.00  0.00    -0.105 S 
ENDROOT
BRANCH  12  14
ATOM     14  C   UNL     1      -5.519  -7.337  -0.782  0.00  0.00    -0.030 A 
ATOM     15  C   UNL     1      -4.174  -7.178  -0.503  0.00  0.00    +0.006 A 
ATOM     16  C   UNL     1      -3.298  -8.229  -0.702  0.00  0.00    +0.020 A 
ATOM     17  C   UNL     1      -3.767  -9.439  -1.180  0.00  0.00    +0.041 A 
ATOM     18  C   UNL     1      -5.113  -9.597  -1.459  0.00  0.00    +0.020 A 
ATOM     19  C   UNL     1      -5.989  -8.548  -1.254  0.00  0.00    +0.006 A 
ATOM     20 CL   UNL     1      -2.668 -10.759  -1.430  0.00  0.00    -0.084 Cl
ENDBRANCH  12  14
BRANCH   3  21
ATOM     21  C   UNL     1      -6.435  -1.780   0.043  0.00  0.00    +0.057 A 
ATOM     22  C   UNL     1      -7.624  -2.499   0.057  0.00  0.00    +0.025 A 
ATOM     23  C   UNL     1      -8.832  -1.832   0.067  0.00  0.00    +0.004 A 
ATOM     24  C   UNL     1      -8.860  -0.449   0.062  0.00  0.00    +0.033 A 
ATOM     25  C   UNL     1      -7.679   0.270   0.047  0.00  0.00    +0.128 A 
ATOM     26  C   UNL     1      -6.467  -0.391   0.043  0.00  0.00    +0.057 A 
BRANCH  25  27
ATOM     27  N   UNL     1      -7.714   1.750   0.041  0.00  0.00    +0.056 N 
ATOM     28  O   UNL     1      -8.775   2.329   0.049  0.00  0.00    -0.126 OA
ATOM     29  O   UNL     1      -6.682   2.379   0.028  0.00  0.00    -0.126 OA
ENDBRANCH  25  27
ENDBRANCH   3  21
BRANCH   1  30
ATOM     30  C   UNL     1      -1.497  -1.838   0.006  0.00  0.00    +0.366 C 
ATOM     31  O   UNL     1      -0.523  -2.566  -0.007  0.00  0.00    -0.243 OA
BRANCH  30  32
ATOM     32  O   UNL     1      -1.339  -0.499   0.012  0.00  0.00    -0.460 OA
BRANCH  32  34
ATOM     33  C   UNL     1      -0.019   1.526   0.010  0.00  0.00    +0.048 C 
ATOM     34  C   UNL     1       0.002  -0.004   0.002  0.00  0.00    +0.229 C 
ENDBRANCH  32  34
ENDBRANCH  30  32
ENDBRANCH   1  30
TORSDOF 6
