REMARK  Name = ZINC38671196
REMARK  12 active torsions:
REMARK  status: ('A' for Active; 'I' for Inactive)
REMARK    1  A    between atoms: C_1  and  C_2
REMARK    2  A    between atoms: C_2  and  O_3
REMARK    3  A    between atoms: O_3  and  C_4
REMARK    4  A    between atoms: C_5  and  C_35
REMARK    5  A    between atoms: C_7  and  S_11
REMARK    6  A    between atoms: C_9  and  C_10
REMARK    7  A    between atoms: S_11  and  N_14
REMARK    8  A    between atoms: N_14  and  C_15
REMARK    9  A    between atoms: C_15  and  C_16
REMARK   10  A    between atoms: C_16  and  C_18
REMARK   11  A    between atoms: C_16  and  N_29
REMARK   12  A    between atoms: N_27  and  C_28
REMARK                            x       y       z     vdW  Elec       q    Type
REMARK                         _______ _______ _______ _____ _____    ______ ____
ROOT
ATOM      1  C   UNL     1      -1.363  -7.785   0.700  0.00  0.00    -0.022 C 
ENDROOT
BRANCH   1   2
ATOM      2  C   UNL     1      -2.867  -7.850   0.774  0.00  0.00    -0.059 A 
ATOM      3  C   UNL     1      -3.574  -8.569  -0.172  0.00  0.00    +0.004 A 
ATOM      4  C   UNL     1      -4.951  -8.627  -0.105  0.00  0.00    +0.023 A 
ATOM      5  C   UNL     1      -5.627  -7.964   0.914  0.00  0.00    +0.033 A 
ATOM      6  C   UNL     1      -4.918  -7.246   1.863  0.00  0.00    -0.026 A 
ATOM      7  C   UNL     1      -3.535  -7.195   1.790  0.00  0.00    +0.007 A 
ATOM      8  C   UNL     1      -5.615  -6.524   2.986  0.00  0.00    +0.038 C 
ATOM      9  C   UNL     1      -7.080  -6.273   2.633  0.00  0.00    +0.024 C 
ATOM     10  C   UNL     1      -7.715  -7.595   2.182  0.00  0.00    +0.105 C 
ATOM     11  N   UNL     1      -7.024  -8.031   0.961  0.00  0.00    -0.333 N 
ATOM     12  C   UNL     1      -7.784  -8.528  -0.188  0.00  0.00    +0.129 C 
ENDBRANCH   1   2
BRANCH   1  13
ATOM     13  N   UNL     1      -0.835  -9.100   0.313  0.00  0.00    +0.385 N 
ATOM     14  C   UNL     1      -1.282 -10.110   1.279  0.00  0.00    -0.078 C 
ATOM     15  C   UNL     1      -0.803 -11.493   0.836  0.00  0.00    -0.019 C 
ATOM     16  C   UNL     1       0.727 -11.498   0.762  0.00  0.00    -0.004 C 
ATOM     17  C   UNL     1       1.185 -10.392  -0.192  0.00  0.00    -0.019 C 
ATOM     18  C   UNL     1       0.632  -9.049   0.289  0.00  0.00    -0.078 C 
ATOM     19  H   UNL     1      -1.177  -9.341  -0.606  0.00  0.00    -0.081 HD
ENDBRANCH   1  13
BRANCH   1  20
ATOM     20  C   UNL     1      -0.948  -6.742  -0.340  0.00  0.00    +0.095 C 
BRANCH  20  21
ATOM     21  N   UNL     1      -1.396  -5.416   0.093  0.00  0.00    -0.191 NA
ATOM     22  H   UNL     1      -2.048  -5.333   0.806  0.00  0.00    +0.148 HD
BRANCH  21  23
ATOM     23  S   UNL     1      -0.789  -4.059  -0.635  0.00  0.00    +0.058 S 
ATOM     24  O   UNL     1       0.624  -4.207  -0.657  0.00  0.00    -0.153 OA
ATOM     25  O   UNL     1      -1.429  -2.948  -0.022  0.00  0.00    -0.153 OA
BRANCH  23  29
ATOM     26  C   UNL     1      -2.164  -4.124  -4.949  0.00  0.00    +0.126 A 
ATOM     27  C   UNL     1      -2.942  -3.507  -3.981  0.00  0.00    -0.007 A 
ATOM     28  C   UNL     1      -2.521  -3.489  -2.666  0.00  0.00    +0.035 A 
ATOM     29  C   UNL     1      -1.324  -4.084  -2.314  0.00  0.00    +0.106 A 
ATOM     30  C   UNL     1      -0.546  -4.699  -3.277  0.00  0.00    +0.035 A 
ATOM     31  C   UNL     1      -0.966  -4.726  -4.593  0.00  0.00    -0.007 A 
ATOM     32  C   UNL     1      -0.120  -5.402  -5.641  0.00  0.00    +0.047 C 
ATOM     33  C   UNL     1      -4.247  -2.857  -4.364  0.00  0.00    +0.047 C 
BRANCH  26  34
ATOM     34  O   UNL     1      -2.576  -4.144  -6.244  0.00  0.00    -0.492 OA
BRANCH  34  36
ATOM     35  C   UNL     1      -3.751  -5.098  -8.128  0.00  0.00    +0.048 C 
ATOM     36  C   UNL     1      -3.387  -5.249  -6.650  0.00  0.00    +0.226 C 
ENDBRANCH  34  36
ENDBRANCH  26  34
ENDBRANCH  23  29
ENDBRANCH  21  23
ENDBRANCH  20  21
ENDBRANCH   1  20
TORSDOF 8
