REMARK  Name = ZINC09731554
REMARK  8 active torsions:
REMARK  status: ('A' for Active; 'I' for Inactive)
REMARK    1  A    between atoms: C_6  and  C_10
REMARK    2  A    between atoms: C_10  and  O_11
REMARK    3  A    between atoms: O_11  and  C_12
REMARK    4  A    between atoms: C_15  and  C_18
REMARK    5  A    between atoms: C_19  and  C_20
REMARK    6  A    between atoms: C_27  and  C_28
REMARK    7  A    between atoms: C_27  and  N_63
REMARK    8  A    between atoms: C_31  and  C_34
REMARK                            x       y       z     vdW  Elec       q    Type
REMARK                         _______ _______ _______ _____ _____    ______ ____
ROOT
ATOM      1  C   UNL     1       7.040  10.864  -0.017  0.00  0.00    +0.013 C 
ATOM      2  C   UNL     1       6.500  12.101  -0.006  0.00  0.00    +0.068 C 
ENDROOT
BRANCH   2   3
ATOM      3  C   UNL     1       7.368  13.278  -0.005  0.00  0.00    +0.239 C 
ATOM      4  O   UNL     1       8.575  13.144   0.079  0.00  0.00    -0.271 OA
ATOM      5  N   UNL     1       6.832  14.511  -0.096  0.00  0.00    -0.302 N 
ATOM      6  C   UNL     1       5.374  14.703  -0.089  0.00  0.00    +0.089 C 
ATOM      7  C   UNL     1       5.031  15.760   0.973  0.00  0.00    -0.059 C 
ATOM      8  C   UNL     1       7.256  16.718   0.850  0.00  0.00    -0.059 C 
ATOM      9  C   UNL     1       7.689  15.701  -0.211  0.00  0.00    +0.089 C 
ATOM     10  N   UNL     1       5.810  16.985   0.689  0.00  0.00    +0.384 N 
ATOM     11  H   UNL     1       5.631  17.276  -0.280  0.00  0.00    -0.081 HD
BRANCH  10  12
ATOM     12  C   UNL     1       5.393  18.070   1.600  0.00  0.00    -0.043 C 
BRANCH  12  13
ATOM     13  C   UNL     1       3.888  18.144   1.624  0.00  0.00    -0.064 A 
ATOM     14  C   UNL     1       3.223  18.941   0.709  0.00  0.00    +0.003 A 
ATOM     15  C   UNL     1       1.845  19.010   0.721  0.00  0.00    +0.019 A 
ATOM     16  C   UNL     1       1.122  18.281   1.667  0.00  0.00    +0.052 A 
ATOM     17  C   UNL     1       1.800  17.482   2.591  0.00  0.00    +0.019 A 
ATOM     18  C   UNL     1       3.177  17.419   2.564  0.00  0.00    +0.003 A 
BRANCH  16  19
ATOM     19  C   UNL     1      -0.308  18.351   1.690  0.00  0.00    +0.099 C 
ATOM     20  N   UNL     1      -1.442  18.407   1.707  0.00  0.00    -0.191 NA
ENDBRANCH  16  19
ENDBRANCH  12  13
ENDBRANCH  10  12
ENDBRANCH   2   3
BRANCH   1  24
ATOM     21  C   UNL     1       4.522   7.451  -0.022  0.00  0.00    +0.121 A 
ATOM     22  C   UNL     1       3.963   8.724  -0.017  0.00  0.00    +0.046 A 
ATOM     23  C   UNL     1       4.776   9.835  -0.010  0.00  0.00    +0.011 A 
ATOM     24  C   UNL     1       6.167   9.681  -0.018  0.00  0.00    -0.025 A 
ATOM     25  C   UNL     1       6.725   8.397  -0.029  0.00  0.00    +0.011 A 
ATOM     26  C   UNL     1       5.903   7.293  -0.031  0.00  0.00    +0.046 A 
BRANCH  21  27
ATOM     27  O   UNL     1       3.716   6.359  -0.025  0.00  0.00    -0.486 OA
BRANCH  27  28
ATOM     28  C   UNL     1       2.306   6.592  -0.016  0.00  0.00    +0.286 C 
BRANCH  28  34
ATOM     29  C   UNL     1      -1.237   1.756  -0.033  0.00  0.00    +0.005 A 
ATOM     30  C   UNL     1      -0.009   1.074  -0.039  0.00  0.00    +0.018 A 
ATOM     31  C   UNL     1       1.152   1.762  -0.040  0.00  0.00    +0.092 A 
ATOM     32  N   UNL     1       1.151   3.127  -0.032  0.00  0.00    -0.306 N 
ATOM     33  C   UNL     1       2.158   4.053  -0.031  0.00  0.00    +0.119 A 
ATOM     34  C   UNL     1       1.578   5.273  -0.020  0.00  0.00    +0.097 A 
ATOM     35  N   UNL     1       0.253   5.115  -0.014  0.00  0.00    -0.229 NA
ATOM     36  C   UNL     1      -0.031   3.820  -0.021  0.00  0.00    +0.138 A 
ATOM     37  C   UNL     1      -1.252   3.116  -0.018  0.00  0.00    +0.047 A 
ENDBRANCH  28  34
ENDBRANCH  27  28
ENDBRANCH  21  27
ENDBRANCH   1  24
TORSDOF 8
