REMARK  Name = ZINC39561163
REMARK  7 active torsions:
REMARK  status: ('A' for Active; 'I' for Inactive)
REMARK    1  A    between atoms: C_3  and  N_11
REMARK    2  A    between atoms: C_6  and  N_7
REMARK    3  A    between atoms: C_12  and  C_14
REMARK    4  A    between atoms: C_14  and  O_15
REMARK    5  A    between atoms: O_15  and  C_16
REMARK    6  A    between atoms: C_16  and  C_18
REMARK    7  A    between atoms: C_20  and  N_26
REMARK                            x       y       z     vdW  Elec       q    Type
REMARK                         _______ _______ _______ _____ _____    ______ ____
ROOT
ATOM      1  C   UNL     1       4.862   4.232  -0.238  0.00  0.00    +0.328 C 
ENDROOT
BRANCH   1   3
ATOM      2  N   UNL     1       3.584   2.125  -0.021  0.00  0.00    -0.282 N 
ATOM      3  C   UNL     1       3.568   3.470  -0.116  0.00  0.00    +0.255 C 
ATOM      4  O   UNL     1       2.512   4.066  -0.103  0.00  0.00    -0.272 OA
ATOM      5  H   UNL     1       4.429   1.654   0.049  0.00  0.00    +0.155 HD
BRANCH   2   8
ATOM      6  C   UNL     1       0.065   1.242  -0.620  0.00  0.00    +0.034 A 
ATOM      7  C   UNL     1       1.250   1.952  -0.618  0.00  0.00    +0.026 A 
ATOM      8  C   UNL     1       2.381   1.409  -0.024  0.00  0.00    +0.048 A 
ATOM      9  C   UNL     1       2.317   0.153   0.567  0.00  0.00    +0.041 A 
ATOM     10  C   UNL     1       1.128  -0.551   0.562  0.00  0.00    +0.049 A 
ATOM     11  C   UNL     1       0.004  -0.007  -0.031  0.00  0.00    +0.127 A 
ATOM     12 BR   UNL     1       3.855  -0.591   1.378  0.00  0.00    -0.048 Br
BRANCH  11  13
ATOM     13  N   UNL     1      -1.268  -0.764  -0.034  0.00  0.00    +0.056 N 
ATOM     14  O   UNL     1      -2.253  -0.289  -0.552  0.00  0.00    -0.126 OA
ATOM     15  O   UNL     1      -1.323  -1.856   0.480  0.00  0.00    -0.126 OA
ENDBRANCH  11  13
ENDBRANCH   2   8
ENDBRANCH   1   3
BRANCH   1  16
ATOM     16  O   UNL     1       4.585   5.631  -0.323  0.00  0.00    -0.451 OA
BRANCH  16  17
ATOM     17  C   UNL     1       5.642   6.458  -0.438  0.00  0.00    +0.360 C 
ATOM     18  O   UNL     1       6.768   6.004  -0.465  0.00  0.00    -0.243 OA
BRANCH  17  19
ATOM     19  C   UNL     1       5.431   7.919  -0.531  0.00  0.00    +0.169 A 
ATOM     20  C   UNL     1       6.528   8.768  -0.655  0.00  0.00    +0.095 A 
ATOM     21  C   UNL     1       6.312  10.143  -0.742  0.00  0.00    +0.067 A 
ATOM     22  C   UNL     1       5.000  10.611  -0.700  0.00  0.00    +0.100 A 
ATOM     23  C   UNL     1       3.960   9.703  -0.575  0.00  0.00    +0.150 A 
ATOM     24  N   UNL     1       4.196   8.409  -0.501  0.00  0.00    -0.226 NA
ATOM     25 CL   UNL     1       2.323  10.278  -0.523  0.00  0.00    -0.060 Cl
ATOM     26 CL   UNL     1       4.671  12.312  -0.804  0.00  0.00    -0.078 Cl
ATOM     27 CL   UNL     1       8.140   8.124  -0.700  0.00  0.00    -0.079 Cl
BRANCH  21  28
ATOM     28  N   UNL     1       7.382  11.028  -0.866  0.00  0.00    -0.356 N 
ATOM     29  H   UNL     1       8.290  10.689  -0.893  0.00  0.00    +0.142 HD
ATOM     30  H   UNL     1       7.218  11.982  -0.925  0.00  0.00    +0.142 HD
ENDBRANCH  21  28
ENDBRANCH  17  19
ENDBRANCH  16  17
ENDBRANCH   1  16
TORSDOF 7
