REMARK  Name = ZINC41894762
REMARK  2 active torsions:
REMARK  status: ('A' for Active; 'I' for Inactive)
REMARK    1  A    between atoms: C_7  and  C_11
REMARK    2  A    between atoms: C_7  and  N_14
REMARK                            x       y       z     vdW  Elec       q    Type
REMARK                         _______ _______ _______ _____ _____    ______ ____
ROOT
ATOM      1  C   UNL     1       0.197   1.434   0.057  0.00  0.00    +0.000 A 
ATOM      2  C   UNL     1       1.425   2.072   0.032  0.00  0.00    +0.001 A 
ATOM      3  C   UNL     1       2.579   1.321  -0.018  0.00  0.00    +0.015 A 
ATOM      4  C   UNL     1       2.518  -0.073  -0.040  0.00  0.00    +0.014 A 
ATOM      5  C   UNL     1       1.293  -0.713  -0.001  0.00  0.00    +0.004 A 
ATOM      6  C   UNL     1       0.134   0.058   0.038  0.00  0.00    +0.007 A 
ATOM      7  C   UNL     1       1.111  -2.202   0.025  0.00  0.00    +0.194 C 
ATOM      8  C   UNL     1       2.279  -2.971  -0.566  0.00  0.00    +0.058 C 
ATOM      9  C   UNL     1       3.543  -2.673   0.254  0.00  0.00    +0.077 C 
ATOM     10  S   UNL     1       4.038  -0.966  -0.126  0.00  0.00    -0.125 S 
ENDROOT
BRANCH   7  11
ATOM     11  N   UNL     1       0.926  -2.627   1.415  0.00  0.00    -0.204 N 
ATOM     12  C   UNL     1       0.718  -3.929   1.698  0.00  0.00    +0.269 A 
ATOM     13  O   UNL     1       0.683  -4.755   0.800  0.00  0.00    -0.266 OA
ATOM     14  C   UNL     1       0.542  -4.328   3.038  0.00  0.00    +0.077 A 
ATOM     15  C   UNL     1       0.585  -3.392   4.023  0.00  0.00    +0.079 A 
ATOM     16  C   UNL     1       0.804  -2.041   3.693  0.00  0.00    +0.287 A 
ATOM     17  O   UNL     1       0.847  -1.106   4.676  0.00  0.00    -0.264 OA
ATOM     18  N   UNL     1       0.972  -1.681   2.445  0.00  0.00    -0.125 NA
ENDBRANCH   7  11
BRANCH   7  19
ATOM     19  C   UNL     1      -0.135  -2.548  -0.750  0.00  0.00    +0.388 C 
ATOM     20  O   UNL     1      -0.222  -2.250  -1.929  0.00  0.00    -0.243 OA
ATOM     21  O   UNL     1      -1.055  -3.126  -0.197  0.00  0.00    -0.243 OA
ENDBRANCH   7  19
TORSDOF 2
