REMARK  Name = ZINC45576286
REMARK  8 active torsions:
REMARK  status: ('A' for Active; 'I' for Inactive)
REMARK    1  A    between atoms: C_1  and  C_2
REMARK    2  A    between atoms: C_2  and  C_3
REMARK    3  A    between atoms: C_2  and  N_4
REMARK    4  A    between atoms: C_5  and  C_7
REMARK    5  A    between atoms: C_7  and  C_8
REMARK    6  A    between atoms: C_8  and  N_9
REMARK    7  A    between atoms: N_12  and  N_13
REMARK    8  A    between atoms: C_14  and  C_16
REMARK                            x       y       z     vdW  Elec       q    Type
REMARK                         _______ _______ _______ _____ _____    ______ ____
ROOT
ATOM      1  N   UNL     1      -5.375  -1.722  -2.556  0.00  0.00    -0.298 N 
ATOM      2  C   UNL     1      -6.053  -1.854  -3.713  0.00  0.00    +0.316 C 
ATOM      3  O   UNL     1      -5.525  -1.552  -4.765  0.00  0.00    -0.251 OA
ATOM      4  N   UNL     1      -7.318  -2.320  -3.703  0.00  0.00    -0.218 N 
ATOM      5  H   UNL     1      -5.796  -1.963  -1.716  0.00  0.00    +0.150 HD
ATOM      6  H   UNL     1      -7.806  -2.415  -4.536  0.00  0.00    +0.174 HD
ENDROOT
BRANCH   4   7
ATOM      7  N   UNL     1      -7.927  -2.668  -2.491  0.00  0.00    -0.229 N 
ATOM      8  C   UNL     1      -9.191  -3.135  -2.481  0.00  0.00    +0.267 C 
ATOM      9  O   UNL     1      -9.804  -3.254  -3.526  0.00  0.00    -0.268 OA
ATOM     10  H   UNL     1      -7.438  -2.574  -1.658  0.00  0.00    +0.173 HD
BRANCH   8  11
ATOM     11  C   UNL     1      -9.828  -3.499  -1.212  0.00  0.00    +0.076 A 
ATOM     12  C   UNL     1     -11.093  -3.994  -0.983  0.00  0.00    +0.024 A 
ATOM     13  C   UNL     1     -11.451  -4.231   0.348  0.00  0.00    -0.036 A 
ATOM     14  C   UNL     1     -10.541  -3.916   1.289  0.00  0.00    -0.006 A 
ATOM     15  S   UNL     1      -9.170  -3.426   0.440  0.00  0.00    -0.088 S 
ATOM     16  C   UNL     1     -10.607  -3.873   2.796  0.00  0.00    +0.043 C 
ATOM     17  C   UNL     1     -11.990  -4.249   3.328  0.00  0.00    +0.005 C 
ATOM     18  C   UNL     1     -12.178  -5.758   3.332  0.00  0.00    +0.000 C 
ATOM     19  C   UNL     1     -11.553  -6.433   2.128  0.00  0.00    +0.000 C 
ATOM     20  C   UNL     1     -12.574  -6.345   0.989  0.00  0.00    +0.005 C 
ATOM     21  C   UNL     1     -12.800  -4.874   0.640  0.00  0.00    +0.036 C 
ENDBRANCH   8  11
ENDBRANCH   4   7
BRANCH   1  22
ATOM     22  C   UNL     1      -4.000  -1.215  -2.566  0.00  0.00    +0.115 C 
BRANCH  22  23
ATOM     23  C   UNL     1      -3.465  -1.164  -1.134  0.00  0.00    +0.114 C 
BRANCH  23  25
ATOM     24  N   UNL     1      -1.372  -0.511   0.012  0.00  0.00    -0.313 N 
ATOM     25  C   UNL     1      -2.051  -0.643  -1.145  0.00  0.00    +0.215 C 
ATOM     26  O   UNL     1      -1.524  -0.341  -2.194  0.00  0.00    -0.276 OA
ATOM     27  H   UNL     1      -1.794  -0.752   0.852  0.00  0.00    +0.149 HD
BRANCH  24  29
ATOM     28  C   UNL     1      -0.019   1.526   0.010  0.00  0.00    +0.027 C 
ATOM     29  C   UNL     1       0.002  -0.004   0.002  0.00  0.00    +0.067 C 
ATOM     30  C   UNL     1       0.742  -0.511   1.242  0.00  0.00    +0.027 C 
ENDBRANCH  24  29
ENDBRANCH  23  25
ENDBRANCH  22  23
ENDBRANCH   1  22
TORSDOF 6
