REMARK  Name = ZINC06409971
REMARK  11 active torsions:
REMARK  status: ('A' for Active; 'I' for Inactive)
REMARK    1  A    between atoms: C_1  and  C_2
REMARK    2  A    between atoms: C_7  and  C_14
REMARK    3  A    between atoms: C_14  and  C_16
REMARK    4  A    between atoms: C_14  and  N_75
REMARK    5  A    between atoms: N_20  and  C_21
REMARK    6  A    between atoms: C_26  and  C_27
REMARK    7  A    between atoms: C_26  and  N_75
REMARK    8  A    between atoms: C_30  and  O_33
REMARK    9  A    between atoms: O_33  and  C_34
REMARK   10  A    between atoms: C_35  and  C_36
REMARK   11  A    between atoms: C_35  and  N_75
REMARK                            x       y       z     vdW  Elec       q    Type
REMARK                         _______ _______ _______ _____ _____    ______ ____
ROOT
ATOM      1  C   UNL     1      -2.440   3.662   7.285  0.00  0.00    +0.039 C 
ENDROOT
BRANCH   1   8
ATOM      2  C   UNL     1       2.000   1.782   0.932  0.00  0.00    +0.044 C 
ATOM      3  C   UNL     1       0.989   2.173   1.978  0.00  0.00    -0.048 A 
ATOM      4  C   UNL     1      -0.299   2.519   1.594  0.00  0.00    +0.004 A 
ATOM      5  C   UNL     1      -1.232   2.871   2.527  0.00  0.00    +0.010 A 
ATOM      6  C   UNL     1      -0.884   2.894   3.881  0.00  0.00    -0.001 A 
ATOM      7  C   UNL     1      -1.858   3.273   4.907  0.00  0.00    +0.017 A 
ATOM      8  C   UNL     1      -1.463   3.278   6.205  0.00  0.00    +0.011 A 
ATOM      9  C   UNL     1      -0.140   2.925   6.546  0.00  0.00    +0.251 A 
ATOM     10  O   UNL     1       0.194   2.936   7.718  0.00  0.00    -0.268 OA
ATOM     11  N   UNL     1       0.761   2.576   5.611  0.00  0.00    -0.322 N 
ATOM     12  H   UNL     1       1.662   2.338   5.881  0.00  0.00    +0.169 HD
ATOM     13  C   UNL     1       0.423   2.550   4.275  0.00  0.00    +0.049 A 
ATOM     14  C   UNL     1       1.355   2.190   3.307  0.00  0.00    +0.029 A 
ENDBRANCH   1   8
BRANCH   1  15
ATOM     15  C   UNL     1      -2.018   4.970   7.902  0.00  0.00    +0.143 A 
ATOM     16  N   UNL     1      -1.026   5.157   8.739  0.00  0.00    -0.115 NA
ATOM     17  N   UNL     1      -0.986   6.410   9.036  0.00  0.00    -0.023 NA
ATOM     18  N   UNL     1      -1.927   7.027   8.411  0.00  0.00    -0.044 NA
ATOM     19  N   UNL     1      -2.582   6.175   7.698  0.00  0.00    -0.227 N 
BRANCH  19  20
ATOM     20  C   UNL     1      -3.727   6.463   6.830  0.00  0.00    +0.111 C 
ATOM     21  C   UNL     1      -3.339   7.523   5.779  0.00  0.00    +0.027 C 
ATOM     22  C   UNL     1      -4.612   8.393   5.628  0.00  0.00    +0.002 C 
ATOM     23  C   UNL     1      -5.147   8.470   7.080  0.00  0.00    +0.002 C 
ATOM     24  C   UNL     1      -4.876   7.065   7.657  0.00  0.00    +0.027 C 
ENDBRANCH  19  20
ENDBRANCH   1  15
BRANCH   1  25
ATOM     25  N   UNL     1      -2.437   2.616   8.330  0.00  0.00    +0.394 N 
ATOM     26  H   UNL     1      -1.498   2.557   8.740  0.00  0.00    -0.080 HD
BRANCH  25  27
ATOM     27  C   UNL     1      -3.404   2.962   9.393  0.00  0.00    -0.041 C 
BRANCH  27  28
ATOM     28  C   UNL     1      -3.225   2.004  10.543  0.00  0.00    -0.064 A 
ATOM     29  C   UNL     1      -3.964   0.837  10.591  0.00  0.00    +0.005 A 
ATOM     30  C   UNL     1      -3.797  -0.045  11.641  0.00  0.00    +0.046 A 
ATOM     31  C   UNL     1      -2.895   0.247  12.654  0.00  0.00    +0.120 A 
ATOM     32  C   UNL     1      -2.159   1.421  12.606  0.00  0.00    +0.046 A 
ATOM     33  C   UNL     1      -2.325   2.297  11.551  0.00  0.00    +0.005 A 
BRANCH  31  34
ATOM     34  O   UNL     1      -2.733  -0.617  13.691  0.00  0.00    -0.495 OA
ATOM     35  C   UNL     1      -3.525  -1.806  13.674  0.00  0.00    +0.277 C 
ENDBRANCH  31  34
ENDBRANCH  27  28
ENDBRANCH  25  27
BRANCH  25  36
ATOM     36  C   UNL     1      -2.785   1.308   7.736  0.00  0.00    -0.045 C 
BRANCH  36  37
ATOM     37  C   UNL     1      -4.229   1.317   7.228  0.00  0.00    +0.102 C 
ATOM     38  C   UNL     1      -4.643  -0.097   6.764  0.00  0.00    +0.032 C 
ATOM     39  C   UNL     1      -5.531   0.160   5.526  0.00  0.00    +0.030 C 
ATOM     40  C   UNL     1      -5.548   1.699   5.389  0.00  0.00    +0.160 C 
ATOM     41  O   UNL     1      -4.341   2.141   6.048  0.00  0.00    -0.378 OA
ENDBRANCH  36  37
ENDBRANCH  25  36
ENDBRANCH   1  25
TORSDOF 9
