REMARK  Name = ZINC19860972
REMARK  5 active torsions:
REMARK  status: ('A' for Active; 'I' for Inactive)
REMARK    1  A    between atoms: C_1  and  C_2
REMARK    2  A    between atoms: C_5  and  C_8
REMARK    3  A    between atoms: N_12  and  N_13
REMARK    4  A    between atoms: C_14  and  C_15
REMARK    5  A    between atoms: C_19  and  N_21
REMARK                            x       y       z     vdW  Elec       q    Type
REMARK                         _______ _______ _______ _____ _____    ______ ____
ROOT
ATOM      1  C   UNL     1      -3.209   4.975   1.040  0.00  0.00    +0.184 A 
ATOM      2  N   UNL     1      -4.235   4.282   0.601  0.00  0.00    -0.152 NA
ATOM      3  N   UNL     1      -4.131   4.098  -0.667  0.00  0.00    -0.253 N 
ATOM      4  C   UNL     1      -3.035   4.667  -1.119  0.00  0.00    +0.197 A 
ATOM      5  N   UNL     1      -2.405   5.241  -0.047  0.00  0.00    -0.188 N 
ATOM      6  S   UNL     1      -2.478   4.684  -2.790  0.00  0.00    -0.010 S 
ATOM      7  H   UNL     1      -4.903   3.530  -1.205  0.00  0.00    +0.191 HD
ENDROOT
BRANCH   1  12
ATOM      8  C   UNL     1      -2.256   6.598   6.478  0.00  0.00    +0.044 C 
ATOM      9  C   UNL     1      -2.505   6.173   5.054  0.00  0.00    -0.050 A 
ATOM     10  C   UNL     1      -3.759   5.723   4.679  0.00  0.00    +0.004 A 
ATOM     11  C   UNL     1      -3.995   5.333   3.377  0.00  0.00    +0.012 A 
ATOM     12  C   UNL     1      -2.965   5.392   2.437  0.00  0.00    +0.021 A 
ATOM     13  C   UNL     1      -1.700   5.842   2.823  0.00  0.00    +0.012 A 
ATOM     14  C   UNL     1      -1.480   6.234   4.127  0.00  0.00    +0.004 A 
ENDBRANCH   1  12
BRANCH   5  15
ATOM     15  N   UNL     1      -1.199   5.954  -0.055  0.00  0.00    -0.171 NA
ATOM     16  C   UNL     1      -0.086   5.342  -0.320  0.00  0.00    +0.141 C 
BRANCH  16  17
ATOM     17  C   UNL     1      -0.039   3.868  -0.332  0.00  0.00    -0.003 A 
ATOM     18  C   UNL     1      -1.141   3.127   0.101  0.00  0.00    +0.009 A 
ATOM     19  C   UNL     1      -1.092   1.749   0.081  0.00  0.00    +0.003 A 
ATOM     20  C   UNL     1       0.049   1.100  -0.356  0.00  0.00    +0.033 A 
ATOM     21  C   UNL     1       1.144   1.827  -0.787  0.00  0.00    +0.127 A 
ATOM     22  C   UNL     1       1.108   3.207  -0.777  0.00  0.00    +0.042 A 
BRANCH  21  23
ATOM     23  N   UNL     1       2.358   1.124  -1.259  0.00  0.00    +0.056 N 
ATOM     24  O   UNL     1       2.392  -0.093  -1.268  0.00  0.00    -0.126 OA
ATOM     25  O   UNL     1       3.324   1.763  -1.638  0.00  0.00    -0.126 OA
ENDBRANCH  21  23
ENDBRANCH  16  17
ENDBRANCH   5  15
TORSDOF 4
