REMARK  Name = ZINC16827537
REMARK  7 active torsions:
REMARK  status: ('A' for Active; 'I' for Inactive)
REMARK    1  A    between atoms: C_1  and  C_2
REMARK    2  A    between atoms: C_2  and  C_4
REMARK    3  A    between atoms: C_2  and  S_15
REMARK    4  A    between atoms: N_6  and  C_7
REMARK    5  A    between atoms: S_15  and  C_16
REMARK    6  A    between atoms: C_19  and  C_27
REMARK    7  A    between atoms: N_20  and  C_21
REMARK                            x       y       z     vdW  Elec       q    Type
REMARK                         _______ _______ _______ _____ _____    ______ ____
ROOT
ATOM      1  C   UNL     1       0.792  -2.921  -1.011  0.00  0.00    +0.197 A 
ATOM      2  N   UNL     1       1.011  -4.156  -0.619  0.00  0.00    -0.122 NA
ATOM      3  N   UNL     1       1.571  -4.160   0.538  0.00  0.00    -0.128 NA
ATOM      4  C   UNL     1       1.749  -2.928   0.955  0.00  0.00    +0.169 A 
ATOM      5  N   UNL     1       1.250  -2.095  -0.022  0.00  0.00    -0.270 N 
ENDROOT
BRANCH   4   6
ATOM      6  C   UNL     1       2.366  -2.514   2.233  0.00  0.00    +0.023 A 
ATOM      7  C   UNL     1       2.211  -1.204   2.693  0.00  0.00    +0.015 A 
ATOM      8  C   UNL     1       2.786  -0.820   3.885  0.00  0.00    +0.050 A 
ATOM      9  C   UNL     1       3.519  -1.730   4.633  0.00  0.00    +0.166 A 
ATOM     10  C   UNL     1       3.678  -3.039   4.179  0.00  0.00    +0.167 A 
ATOM     11  C   UNL     1       3.099  -3.432   2.986  0.00  0.00    +0.061 A 
ATOM     12  O   UNL     1       4.432  -3.727   5.086  0.00  0.00    -0.453 OA
ATOM     13  C   UNL     1       4.389  -2.943   6.293  0.00  0.00    +0.466 C 
ATOM     14  O   UNL     1       4.175  -1.600   5.823  0.00  0.00    -0.453 OA
ENDBRANCH   4   6
BRANCH   5  15
ATOM     15  C   UNL     1       1.223  -0.693  -0.008  0.00  0.00    +0.051 A 
ATOM     16  C   UNL     1       0.009  -0.021   0.016  0.00  0.00    +0.026 A 
ATOM     17  C   UNL     1      -0.015   1.360   0.030  0.00  0.00    +0.002 A 
ATOM     18  C   UNL     1       1.169   2.073   0.021  0.00  0.00    +0.000 A 
ATOM     19  C   UNL     1       2.381   1.407  -0.003  0.00  0.00    +0.002 A 
ATOM     20  C   UNL     1       2.411   0.026  -0.018  0.00  0.00    +0.026 A 
ENDBRANCH   5  15
BRANCH   1  21
ATOM     21  S   UNL     1       0.048  -2.423  -2.529  0.00  0.00    -0.073 S 
BRANCH  21  23
ATOM     22  C   UNL     1       1.058  -4.744  -3.557  0.00  0.00    +0.029 C 
ATOM     23  C   UNL     1      -0.272  -4.044  -3.269  0.00  0.00    +0.137 C 
BRANCH  23  24
ATOM     24  C   UNL     1      -1.035  -3.867  -4.556  0.00  0.00    +0.230 C 
ATOM     25  O   UNL     1      -0.952  -2.825  -5.172  0.00  0.00    -0.274 OA
ATOM     26  N   UNL     1      -1.810  -4.866  -5.023  0.00  0.00    -0.284 N 
ATOM     27  H   UNL     1      -1.825  -5.722  -4.567  0.00  0.00    +0.155 HD
BRANCH  26  28
ATOM     28  C   UNL     1      -2.594  -4.668  -6.166  0.00  0.00    +0.036 A 
ATOM     29  C   UNL     1      -3.838  -5.276  -6.270  0.00  0.00    +0.026 A 
ATOM     30  C   UNL     1      -4.614  -5.076  -7.395  0.00  0.00    +0.043 A 
ATOM     31  C   UNL     1      -4.147  -4.277  -8.425  0.00  0.00    +0.159 A 
ATOM     32  C   UNL     1      -2.903  -3.673  -8.328  0.00  0.00    +0.160 A 
ATOM     33  C   UNL     1      -2.127  -3.867  -7.199  0.00  0.00    +0.064 A 
ATOM     34  F   UNL     1      -2.450  -2.894  -9.334  0.00  0.00    -0.202 F 
ATOM     35  F   UNL     1      -4.905  -4.087  -9.527  0.00  0.00    -0.202 F 
ENDBRANCH  26  28
ENDBRANCH  23  24
ENDBRANCH  21  23
ENDBRANCH   1  21
TORSDOF 6
