REMARK  Name = ZINC35555433
REMARK  6 active torsions:
REMARK  status: ('A' for Active; 'I' for Inactive)
REMARK    1  A    between atoms: C_6  and  N_7
REMARK    2  A    between atoms: C_11  and  C_28
REMARK    3  A    between atoms: N_18  and  C_20
REMARK    4  A    between atoms: C_20  and  C_21
REMARK    5  A    between atoms: C_21  and  N_22
REMARK    6  A    between atoms: N_30  and  C_31
REMARK                            x       y       z     vdW  Elec       q    Type
REMARK                         _______ _______ _______ _____ _____    ______ ____
ROOT
ATOM      1  C   UNL     1      -0.037   1.381  -0.026  0.00  0.00    +0.034 A 
ATOM      2  C   UNL     1       1.150   2.086  -0.023  0.00  0.00    +0.025 A 
ATOM      3  C   UNL     1       2.363   1.407  -0.028  0.00  0.00    +0.033 A 
ATOM      4  C   UNL     1       2.377   0.020  -0.034  0.00  0.00    -0.023 A 
ATOM      5  C   UNL     1       1.185  -0.680  -0.038  0.00  0.00    +0.038 A 
ATOM      6  C   UNL     1      -0.019  -0.002  -0.035  0.00  0.00    +0.127 A 
ATOM      7  C   UNL     1       3.680  -0.726  -0.030  0.00  0.00    +0.051 C 
ATOM      8  C   UNL     1       4.787   0.057  -0.703  0.00  0.00    +0.098 C 
ATOM      9  C   UNL     1       4.846   1.511  -0.323  0.00  0.00    +0.069 C 
ATOM     10  N   UNL     1       3.555   2.119  -0.029  0.00  0.00    -0.329 N 
ATOM     11  C   UNL     1       3.555   3.553   0.326  0.00  0.00    +0.087 C 
ATOM     12  C   UNL     1       4.542   3.731   1.489  0.00  0.00    -0.060 C 
ATOM     13  N   UNL     1       5.860   3.212   1.105  0.00  0.00    +0.383 N 
ATOM     14  C   UNL     1       5.791   1.765   0.853  0.00  0.00    -0.055 C 
ATOM     15  H   UNL     1       6.172   3.681   0.268  0.00  0.00    -0.082 HD
ENDROOT
BRANCH   8  16
ATOM     16  C   UNL     1       4.597  -0.036  -2.195  0.00  0.00    +0.222 C 
ATOM     17  O   UNL     1       4.431   0.972  -2.849  0.00  0.00    -0.275 OA
ATOM     18  N   UNL     1       4.613  -1.239  -2.803  0.00  0.00    -0.283 N 
ATOM     19  H   UNL     1       4.826  -2.037  -2.294  0.00  0.00    +0.155 HD
BRANCH  18  20
ATOM     20  C   UNL     1       4.322  -1.336  -4.170  0.00  0.00    +0.069 A 
ATOM     21  C   UNL     1       3.544  -0.366  -4.787  0.00  0.00    +0.029 A 
ATOM     22  C   UNL     1       3.258  -0.464  -6.135  0.00  0.00    +0.040 A 
ATOM     23  C   UNL     1       3.746  -1.529  -6.872  0.00  0.00    +0.126 A 
ATOM     24  C   UNL     1       4.522  -2.499  -6.261  0.00  0.00    +0.078 A 
ATOM     25  C   UNL     1       4.817  -2.402  -4.913  0.00  0.00    +0.147 A 
ATOM     26  F   UNL     1       5.579  -3.345  -4.318  0.00  0.00    -0.203 F 
ATOM     27  F   UNL     1       3.465  -1.622  -8.190  0.00  0.00    -0.205 F 
ENDBRANCH  18  20
ENDBRANCH   8  16
BRANCH   6  28
ATOM     28  N   UNL     1      -1.292  -0.757  -0.039  0.00  0.00    +0.056 N 
ATOM     29  O   UNL     1      -2.346  -0.164  -0.035  0.00  0.00    -0.126 OA
ATOM     30  O   UNL     1      -1.278  -1.966  -0.047  0.00  0.00    -0.126 OA
ENDBRANCH   6  28
BRANCH  13  31
ATOM     31  C   UNL     1       6.817   3.470   2.189  0.00  0.00    -0.063 C 
BRANCH  31  32
ATOM     32  C   UNL     1       7.006   4.979   2.354  0.00  0.00    +0.066 C 
BRANCH  32  33
ATOM     33  N   UNL     1       7.963   5.237   3.438  0.00  0.00    -0.300 NA
ATOM     34  C   UNL     1       7.415   4.816   4.736  0.00  0.00    +0.112 C 
ATOM     35  C   UNL     1       8.465   5.047   5.826  0.00  0.00    +0.175 C 
ATOM     36  O   UNL     1       8.854   6.423   5.823  0.00  0.00    -0.377 OA
ATOM     37  C   UNL     1       9.393   6.866   4.574  0.00  0.00    +0.175 C 
ATOM     38  C   UNL     1       8.352   6.654   3.472  0.00  0.00    +0.112 C 
ENDBRANCH  32  33
ENDBRANCH  31  32
ENDBRANCH  13  31
TORSDOF 6
