REMARK  Name = ZINC44709683
REMARK  8 active torsions:
REMARK  status: ('A' for Active; 'I' for Inactive)
REMARK    1  A    between atoms: C_4  and  C_7
REMARK    2  A    between atoms: C_7  and  C_8
REMARK    3  A    between atoms: C_8  and  C_9
REMARK    4  A    between atoms: C_9  and  C_11
REMARK    5  A    between atoms: C_9  and  O_29
REMARK    6  A    between atoms: C_12  and  C_13
REMARK    7  A    between atoms: C_18  and  O_27
REMARK    8  A    between atoms: C_24  and  O_26
REMARK                            x       y       z     vdW  Elec       q    Type
REMARK                         _______ _______ _______ _____ _____    ______ ____
ROOT
ATOM      1  C   UNL     1       3.841  -4.028  -3.978  0.00  0.00    +0.020 C 
ATOM      2  C   UNL     1       2.713  -4.652  -4.215  0.00  0.00    -0.007 C 
ATOM      3 BR   UNL     1       5.208  -4.888  -2.995  0.00  0.00    -0.053 Br
ENDROOT
BRANCH   2   4
ATOM      4  C   UNL     1       1.564  -3.915  -4.854  0.00  0.00    +0.047 C 
ATOM      5  C   UNL     1       0.295  -4.110  -4.022  0.00  0.00    +0.032 C 
ATOM      6  C   UNL     1       0.408  -5.397  -3.168  0.00  0.00    +0.068 C 
ATOM      7  C   UNL     1      -1.079  -5.831  -3.105  0.00  0.00    +0.248 C 
ATOM      8  O   UNL     1      -1.624  -5.500  -4.392  0.00  0.00    -0.348 OA
ATOM      9  C   UNL     1      -0.842  -4.446  -5.020  0.00  0.00    +0.128 C 
ATOM     10  C   UNL     1      -0.130  -5.061  -6.241  0.00  0.00    +0.064 C 
ATOM     11  C   UNL     1       1.294  -4.483  -6.254  0.00  0.00    +0.124 C 
BRANCH  11  12
ATOM     12  O   UNL     1       2.236  -5.517  -6.548  0.00  0.00    -0.391 OA
ATOM     13  H   UNL     1       2.120  -5.918  -7.420  0.00  0.00    +0.210 HD
ENDBRANCH  11  12
BRANCH   7  14
ATOM     14  O   UNL     1      -1.176  -7.237  -2.870  0.00  0.00    -0.367 OA
ATOM     15  H   UNL     1      -2.083  -7.566  -2.821  0.00  0.00    +0.212 HD
ENDBRANCH   7  14
ENDBRANCH   2   4
BRANCH   1  16
ATOM     16  C   UNL     1       4.048  -2.625  -4.488  0.00  0.00    +0.151 C 
BRANCH  16  17
ATOM     17  O   UNL     1       5.274  -2.560  -5.219  0.00  0.00    -0.387 OA
ATOM     18  H   UNL     1       6.055  -2.793  -4.698  0.00  0.00    +0.210 HD
ENDBRANCH  16  17
BRANCH  16  19
ATOM     19  C   UNL     1       4.107  -1.656  -3.305  0.00  0.00    +0.037 C 
BRANCH  19  20
ATOM     20  C   UNL     1       4.192  -0.220  -3.826  0.00  0.00    +0.006 C 
BRANCH  20  24
ATOM     21  C   UNL     1       3.208   3.073  -1.197  0.00  0.00    +0.000 C 
ATOM     22  C   UNL     1       4.521   3.142  -1.979  0.00  0.00    +0.000 C 
ATOM     23  C   UNL     1       4.462   2.173  -3.162  0.00  0.00    +0.003 C 
ATOM     24  C   UNL     1       4.252   0.749  -2.644  0.00  0.00    -0.011 C 
ATOM     25  C   UNL     1       2.939   0.679  -1.861  0.00  0.00    +0.003 C 
ATOM     26  C   UNL     1       2.998   1.649  -0.679  0.00  0.00    +0.000 C 
ENDBRANCH  20  24
ENDBRANCH  19  20
ENDBRANCH  16  19
ENDBRANCH   1  16
TORSDOF 8
