REMARK  Name = ZINC41394236
REMARK  5 active torsions:
REMARK  status: ('A' for Active; 'I' for Inactive)
REMARK    1  A    between atoms: C_1  and  C_2
REMARK    2  A    between atoms: C_2  and  C_3
REMARK    3  A    between atoms: C_2  and  N_4
REMARK    4  A    between atoms: N_14  and  C_15
REMARK    5  A    between atoms: C_18  and  N_21
REMARK                            x       y       z     vdW  Elec       q    Type
REMARK                         _______ _______ _______ _____ _____    ______ ____
ROOT
ATOM      1  N   UNL     1      -1.153  -1.006   0.184  0.00  0.00    -0.278 N 
ATOM      2  C   UNL     1      -1.665  -1.258   1.403  0.00  0.00    +0.264 A 
ATOM      3  O   UNL     1      -1.303  -0.612   2.371  0.00  0.00    -0.267 OA
ATOM      4  C   UNL     1      -2.640  -2.295   1.546  0.00  0.00    +0.076 A 
ATOM      5  C   UNL     1      -3.323  -2.737   2.764  0.00  0.00    -0.023 A 
ATOM      6  C   UNL     1      -4.210  -3.745   2.637  0.00  0.00    -0.004 A 
ATOM      7  S   UNL     1      -4.191  -4.160   0.914  0.00  0.00    -0.073 S 
ATOM      8  C   UNL     1      -2.987  -2.976   0.367  0.00  0.00    +0.117 A 
ATOM      9  N   UNL     1      -2.443  -2.677  -0.807  0.00  0.00    -0.208 NA
ATOM     10  C   UNL     1      -1.551  -1.715  -0.911  0.00  0.00    +0.204 A 
ATOM     11  N   UNL     1      -1.009  -1.424  -2.140  0.00  0.00    -0.285 N 
ATOM     12  C   UNL     1      -5.030  -4.375   3.721  0.00  0.00    +0.043 C 
ATOM     13  C   UNL     1      -4.444  -3.955   5.077  0.00  0.00    +0.005 C 
ATOM     14  C   UNL     1      -4.213  -2.442   5.065  0.00  0.00    +0.005 C 
ATOM     15  C   UNL     1      -3.056  -2.100   4.125  0.00  0.00    +0.037 C 
ATOM     16  H   UNL     1      -0.283  -0.784  -2.211  0.00  0.00    +0.155 HD
ENDROOT
BRANCH  11  17
ATOM     17  C   UNL     1      -1.504  -2.050  -3.289  0.00  0.00    +0.034 A 
ATOM     18  C   UNL     1      -2.855  -2.356  -3.386  0.00  0.00    +0.025 A 
ATOM     19  C   UNL     1      -3.343  -2.973  -4.520  0.00  0.00    +0.029 A 
ATOM     20  C   UNL     1      -2.483  -3.290  -5.563  0.00  0.00    +0.065 A 
ATOM     21  C   UNL     1      -1.132  -2.985  -5.466  0.00  0.00    +0.029 A 
ATOM     22  C   UNL     1      -0.644  -2.362  -4.335  0.00  0.00    +0.025 A 
BRANCH  20  23
ATOM     23  N   UNL     1      -2.979  -3.918  -6.715  0.00  0.00    -0.240 N 
ATOM     24  C   UNL     1      -2.254  -4.285  -7.796  0.00  0.00    +0.114 A 
ATOM     25  C   UNL     1      -3.100  -4.857  -8.684  0.00  0.00    +0.041 A 
ATOM     26  C   UNL     1      -4.384  -4.840  -8.129  0.00  0.00    +0.135 A 
ATOM     27  N   UNL     1      -4.311  -4.283  -6.946  0.00  0.00    -0.175 NA
ENDBRANCH  20  23
ENDBRANCH  11  17
BRANCH   1  29
ATOM     28  C   UNL     1      -0.748   1.386   0.492  0.00  0.00    +0.031 C 
ATOM     29  C   UNL     1      -0.154   0.054   0.030  0.00  0.00    +0.087 C 
ATOM     30  C   UNL     1       1.076  -0.277   0.878  0.00  0.00    +0.031 C 
ENDBRANCH   1  29
TORSDOF 3
