REMARK  Name = ZINC20782314
REMARK  10 active torsions:
REMARK  status: ('A' for Active; 'I' for Inactive)
REMARK    1  A    between atoms: C_1  and  C_2
REMARK    2  A    between atoms: C_2  and  C_4
REMARK    3  A    between atoms: C_2  and  N_9
REMARK    4  A    between atoms: N_9  and  C_10
REMARK    5  A    between atoms: N_9  and  C_11
REMARK    6  A    between atoms: C_11  and  C_12
REMARK    7  A    between atoms: C_15  and  C_20
REMARK    8  A    between atoms: N_22  and  C_23
REMARK    9  A    between atoms: C_23  and  C_24
REMARK   10  A    between atoms: C_24  and  N_30
REMARK                            x       y       z     vdW  Elec       q    Type
REMARK                         _______ _______ _______ _____ _____    ______ ____
ROOT
ATOM      1  C   UNL     1       4.973   5.788   1.379  0.00  0.00    +0.003 A 
ATOM      2  C   UNL     1       3.776   6.421   1.471  0.00  0.00    +0.020 A 
ATOM      3  C   UNL     1       2.591   5.708   1.288  0.00  0.00    +0.020 A 
ATOM      4  C   UNL     1       2.660   4.342   1.021  0.00  0.00    +0.101 A 
ATOM      5  C   UNL     1       3.935   3.726   0.934  0.00  0.00    +0.261 A 
ATOM      6  O   UNL     1       4.023   2.534   0.697  0.00  0.00    -0.267 OA
ATOM      7  N   UNL     1       5.048   4.462   1.115  0.00  0.00    -0.327 N 
ATOM      8  H   UNL     1       6.029   3.970   1.045  0.00  0.00    +0.169 HD
ENDROOT
BRANCH   4   9
ATOM      9  C   UNL     1       1.434   3.554   0.826  0.00  0.00    +0.249 C 
ATOM     10  O   UNL     1       0.353   4.111   0.790  0.00  0.00    -0.270 OA
ATOM     11  N   UNL     1       1.507   2.216   0.687  0.00  0.00    -0.309 N 
ATOM     12  H   UNL     1       2.488   1.722   0.633  0.00  0.00    +0.149 HD
BRANCH  11  13
ATOM     13  C   UNL     1       0.280   1.419   0.608  0.00  0.00    +0.126 C 
BRANCH  13  14
ATOM     14  C   UNL     1       0.641  -0.059   0.454  0.00  0.00    +0.038 C 
ATOM     15  C   UNL     1       1.459  -0.254  -0.825  0.00  0.00    +0.024 C 
ATOM     16  C   UNL     1       0.635   0.198  -2.032  0.00  0.00    +0.002 C 
ATOM     17  C   UNL     1      -0.646  -0.634  -2.115  0.00  0.00    +0.000 C 
ATOM     18  C   UNL     1      -1.464  -0.439  -0.836  0.00  0.00    +0.002 C 
ATOM     19  C   UNL     1      -0.640  -0.891   0.371  0.00  0.00    +0.024 C 
BRANCH  14  20
ATOM     20  N   UNL     1       1.433  -0.493   1.612  0.00  0.00    -0.291 NA
ATOM     21  C   UNL     1       1.872  -1.888   1.458  0.00  0.00    +0.113 C 
ATOM     22  C   UNL     1       2.741  -2.279   2.656  0.00  0.00    +0.175 C 
ATOM     23  O   UNL     1       2.001  -2.075   3.863  0.00  0.00    -0.377 OA
ATOM     24  C   UNL     1       1.558  -0.728   4.045  0.00  0.00    +0.175 C 
ATOM     25  C   UNL     1       0.677  -0.321   2.861  0.00  0.00    +0.113 C 
ENDBRANCH  14  20
ENDBRANCH  13  14
ENDBRANCH  11  13
ENDBRANCH   4   9
BRANCH   1  26
ATOM     26  C   UNL     1       6.243   6.576   1.574  0.00  0.00    -0.024 C 
BRANCH  26  27
ATOM     27  N   UNL     1       7.020   6.570   0.327  0.00  0.00    +0.386 N 
ATOM     28  C   UNL     1       6.375   7.400  -0.699  0.00  0.00    -0.095 C 
ATOM     29  H   UNL     1       7.052   5.536  -0.045  0.00  0.00    -0.081 HD
BRANCH  27  31
ATOM     30  C   UNL     1       8.427   8.522   0.781  0.00  0.00    -0.008 C 
ATOM     31  C   UNL     1       8.402   7.008   0.566  0.00  0.00    -0.034 C 
BRANCH  31  32
ATOM     32  C   UNL     1       9.253   6.655  -0.626  0.00  0.00    -0.024 A 
ATOM     33  C   UNL     1      10.441   6.002  -0.664  0.00  0.00    +0.009 A 
ATOM     34  C   UNL     1      11.048   5.786  -1.887  0.00  0.00    +0.008 A 
ATOM     35  C   UNL     1      10.438   6.234  -3.012  0.00  0.00    +0.045 A 
ATOM     36  S   UNL     1       8.956   6.981  -2.356  0.00  0.00    -0.103 S 
ENDBRANCH  31  32
ENDBRANCH  27  31
ENDBRANCH  26  27
ENDBRANCH   1  26
TORSDOF 8
