REMARK  Name = ZINC18326715
REMARK  8 active torsions:
REMARK  status: ('A' for Active; 'I' for Inactive)
REMARK    1  A    between atoms: C_1  and  C_2
REMARK    2  A    between atoms: C_5  and  N_9
REMARK    3  A    between atoms: C_6  and  C_8
REMARK    4  A    between atoms: C_13  and  S_14
REMARK    5  A    between atoms: S_14  and  C_15
REMARK    6  A    between atoms: C_15  and  C_17
REMARK    7  A    between atoms: C_15  and  C_18
REMARK    8  A    between atoms: C_24  and  C_29
REMARK                            x       y       z     vdW  Elec       q    Type
REMARK                         _______ _______ _______ _____ _____    ______ ____
ROOT
ATOM      1  C   UNL     1      -4.873   3.443   3.315  0.00  0.00    +0.117 C 
ATOM      2  C   UNL     1      -4.859   4.949   3.585  0.00  0.00    +0.027 C 
ENDROOT
BRANCH   1   3
ATOM      3  C   UNL     1      -5.070   2.701   4.612  0.00  0.00    +0.124 A 
ATOM      4  N   UNL     1      -3.986   2.239   5.287  0.00  0.00    -0.309 N 
ATOM      5  H   UNL     1      -3.100   2.393   4.926  0.00  0.00    +0.170 HD
ATOM      6  C   UNL     1      -4.118   1.577   6.452  0.00  0.00    +0.260 A 
ATOM      7  O   UNL     1      -3.135   1.173   7.049  0.00  0.00    -0.267 OA
ATOM      8  C   UNL     1      -5.431   1.350   6.975  0.00  0.00    +0.083 A 
ATOM      9  C   UNL     1      -5.829   0.663   8.199  0.00  0.00    +0.039 A 
ATOM     10  C   UNL     1      -7.151   0.570   8.492  0.00  0.00    +0.059 A 
ATOM     11  S   UNL     1      -7.936   1.408   7.129  0.00  0.00    -0.076 S 
ATOM     12  C   UNL     1      -6.489   1.859   6.206  0.00  0.00    +0.116 A 
ATOM     13  N   UNL     1      -6.280   2.510   5.065  0.00  0.00    -0.225 NA
BRANCH   9  14
ATOM     14  C   UNL     1      -4.815   0.080   9.101  0.00  0.00    +0.136 A 
ATOM     15  C   UNL     1      -4.734   0.277  10.444  0.00  0.00    +0.050 A 
ATOM     16  C   UNL     1      -3.624  -0.466  10.897  0.00  0.00    +0.042 A 
ATOM     17  C   UNL     1      -3.084  -1.066   9.819  0.00  0.00    +0.196 A 
ATOM     18  O   UNL     1      -3.806  -0.734   8.735  0.00  0.00    -0.463 OA
ENDBRANCH   9  14
ENDBRANCH   1   3
BRANCH   1  19
ATOM     19  S   UNL     1      -3.300   2.948   2.570  0.00  0.00    -0.075 S 
BRANCH  19  24
ATOM     20  N   UNL     1      -2.459   3.824   0.046  0.00  0.00    -0.277 N 
ATOM     21  C   UNL     1      -2.962   4.642  -0.932  0.00  0.00    +0.230 A 
ATOM     22  N   UNL     1      -4.120   5.072  -0.519  0.00  0.00    -0.137 NA
ATOM     23  N   UNL     1      -4.381   4.595   0.646  0.00  0.00    -0.122 NA
ATOM     24  C   UNL     1      -3.396   3.822   1.042  0.00  0.00    +0.197 A 
BRANCH  20  29
ATOM     25  C   UNL     1       2.490   1.045  -0.015  0.00  0.00    +0.044 C 
ATOM     26  C   UNL     1       1.176   1.783   0.000  0.00  0.00    -0.050 A 
ATOM     27  C   UNL     1       1.161   3.166   0.007  0.00  0.00    +0.005 A 
ATOM     28  C   UNL     1      -0.042   3.844   0.023  0.00  0.00    +0.027 A 
ATOM     29  C   UNL     1      -1.237   3.137   0.030  0.00  0.00    +0.053 A 
ATOM     30  C   UNL     1      -1.219   1.750   0.017  0.00  0.00    -0.026 A 
ATOM     31  C   UNL     1      -0.013   1.076   0.008  0.00  0.00    +0.008 A 
ATOM     32  C   UNL     1      -2.513   0.978   0.020  0.00  0.00    +0.046 C 
ENDBRANCH  20  29
ENDBRANCH  19  24
ENDBRANCH   1  19
TORSDOF 5
