REMARK  Name = ZINC39978883
REMARK  13 active torsions:
REMARK  status: ('A' for Active; 'I' for Inactive)
REMARK    1  A    between atoms: C_1  and  C_2
REMARK    2  A    between atoms: C_2  and  C_3
REMARK    3  A    between atoms: C_3  and  O_4
REMARK    4  A    between atoms: O_4  and  C_5
REMARK    5  A    between atoms: C_8  and  C_13
REMARK    6  A    between atoms: C_10  and  O_11
REMARK    7  A    between atoms: O_11  and  C_12
REMARK    8  A    between atoms: C_15  and  C_34
REMARK    9  A    between atoms: C_16  and  N_33
REMARK   10  A    between atoms: C_21  and  C_24
REMARK   11  A    between atoms: C_24  and  S_25
REMARK   12  A    between atoms: S_25  and  C_26
REMARK   13  A    between atoms: C_29  and  C_32
REMARK                            x       y       z     vdW  Elec       q    Type
REMARK                         _______ _______ _______ _____ _____    ______ ____
ROOT
ATOM      1  C   UNL     1      -6.403  -4.585   0.038  0.00  0.00    +0.098 C 
ATOM      2  C   UNL     1      -7.208  -4.163   1.253  0.00  0.00    +0.097 C 
ATOM      3  C   UNL     1      -8.307  -3.388   1.142  0.00  0.00    +0.195 C 
ATOM      4  O   UNL     1      -8.845  -2.915   0.002  0.00  0.00    -0.448 OA
ATOM      5  C   UNL     1      -7.995  -2.842  -1.145  0.00  0.00    +0.343 C 
ATOM      6  C   UNL     1      -7.218  -4.164  -1.153  0.00  0.00    +0.031 C 
ATOM      7  C   UNL     1      -7.473  -4.704  -2.320  0.00  0.00    +0.079 C 
ATOM      8  N   UNL     1      -8.379  -3.954  -2.998  0.00  0.00    -0.154 NA
ATOM      9  N   UNL     1      -8.741  -2.906  -2.404  0.00  0.00    -0.138 NA
ENDROOT
BRANCH   1  13
ATOM     10  C   UNL     1      -2.617  -2.596   0.013  0.00  0.00    +0.162 A 
ATOM     11  C   UNL     1      -3.790  -1.859   0.022  0.00  0.00    +0.050 A 
ATOM     12  C   UNL     1      -5.013  -2.505   0.030  0.00  0.00    +0.008 A 
ATOM     13  C   UNL     1      -5.068  -3.886   0.029  0.00  0.00    -0.031 A 
ATOM     14  C   UNL     1      -3.901  -4.628   0.020  0.00  0.00    +0.054 A 
ATOM     15  C   UNL     1      -2.673  -3.987   0.006  0.00  0.00    +0.162 A 
BRANCH  15  16
ATOM     16  O   UNL     1      -1.524  -4.715  -0.009  0.00  0.00    -0.491 OA
ATOM     17  C   UNL     1      -1.658  -6.138  -0.015  0.00  0.00    +0.277 C 
ENDBRANCH  15  16
BRANCH  10  18
ATOM     18  O   UNL     1      -1.414  -1.962   0.005  0.00  0.00    -0.488 OA
BRANCH  18  19
ATOM     19  C   UNL     1      -1.433  -0.534   0.013  0.00  0.00    +0.229 C 
BRANCH  19  21
ATOM     20  C   UNL     1      -0.019   1.526   0.010  0.00  0.00    +0.007 C 
ATOM     21  C   UNL     1       0.002  -0.004   0.002  0.00  0.00    +0.038 C 
ENDBRANCH  19  21
ENDBRANCH  18  19
ENDBRANCH  10  18
ENDBRANCH   1  13
BRANCH   3  22
ATOM     22  N   UNL     1      -8.942  -3.047   2.310  0.00  0.00    -0.329 N 
ATOM     23  H   UNL     1      -8.595  -3.362   3.159  0.00  0.00    +0.145 HD
ATOM     24  H   UNL     1      -9.736  -2.491   2.286  0.00  0.00    +0.145 HD
ENDBRANCH   3  22
BRANCH   2  25
ATOM     25  C   UNL     1      -6.792  -4.600   2.552  0.00  0.00    +0.101 C 
ATOM     26  N   UNL     1      -6.462  -4.946   3.582  0.00  0.00    -0.191 NA
ENDBRANCH   2  25
BRANCH   7  27
ATOM     27  C   UNL     1      -6.849  -5.976  -2.835  0.00  0.00    +0.131 C 
BRANCH  27  28
ATOM     28  S   UNL     1      -8.060  -7.323  -2.743  0.00  0.00    -0.119 S 
BRANCH  28  29
ATOM     29  C   UNL     1      -7.191  -8.721  -3.372  0.00  0.00    +0.008 A 
ATOM     30  C   UNL     1      -5.870  -8.592  -3.785  0.00  0.00    +0.015 A 
ATOM     31  C   UNL     1      -5.192  -9.689  -4.277  0.00  0.00    +0.004 A 
ATOM     32  C   UNL     1      -5.826 -10.916  -4.360  0.00  0.00    -0.050 A 
ATOM     33  C   UNL     1      -7.140 -11.048  -3.950  0.00  0.00    +0.004 A 
ATOM     34  C   UNL     1      -7.822  -9.956  -3.451  0.00  0.00    +0.015 A 
ATOM     35  C   UNL     1      -5.082 -12.111  -4.897  0.00  0.00    +0.044 C 
ENDBRANCH  28  29
ENDBRANCH  27  28
ENDBRANCH   7  27
TORSDOF 10
