REMARK  Name = ZINC45512368
REMARK  5 active torsions:
REMARK  status: ('A' for Active; 'I' for Inactive)
REMARK    1  A    between atoms: C_1  and  C_2
REMARK    2  A    between atoms: C_2  and  C_4
REMARK    3  A    between atoms: C_2  and  N_16
REMARK    4  A    between atoms: N_6  and  C_7
REMARK    5  A    between atoms: C_19  and  N_22
REMARK                            x       y       z     vdW  Elec       q    Type
REMARK                         _______ _______ _______ _____ _____    ______ ____
ROOT
ATOM      1  N   UNL     1       0.057  -0.709  -1.240  0.00  0.00    +0.387 N 
ATOM      2  C   UNL     1      -0.730  -0.116  -2.327  0.00  0.00    -0.076 C 
ATOM      3  C   UNL     1      -0.577  -0.962  -3.593  0.00  0.00    +0.006 C 
ATOM      4  C   UNL     1      -1.077  -2.382  -3.315  0.00  0.00    +0.089 C 
ATOM      5  C   UNL     1      -0.299  -2.964  -2.131  0.00  0.00    +0.006 C 
ATOM      6  C   UNL     1      -0.463  -2.044  -0.919  0.00  0.00    -0.076 C 
ATOM      7  H   UNL     1       1.021  -0.785  -1.528  0.00  0.00    -0.081 HD
ENDROOT
BRANCH   4   8
ATOM      8  N   UNL     1      -0.863  -3.218  -4.499  0.00  0.00    -0.289 N 
ATOM      9  C   UNL     1      -1.856  -3.873  -5.224  0.00  0.00    +0.070 A 
ATOM     10  C   UNL     1      -3.234  -3.954  -5.093  0.00  0.00    +0.028 A 
ATOM     11  C   UNL     1      -3.967  -4.704  -5.992  0.00  0.00    +0.002 A 
ATOM     12  C   UNL     1      -3.332  -5.374  -7.023  0.00  0.00    +0.002 A 
ATOM     13  C   UNL     1      -1.960  -5.300  -7.162  0.00  0.00    +0.028 A 
ATOM     14  C   UNL     1      -1.215  -4.550  -6.264  0.00  0.00    +0.067 A 
ATOM     15  N   UNL     1       0.146  -4.284  -6.139  0.00  0.00    -0.306 N 
ATOM     16  H   UNL     1       0.846  -4.619  -6.722  0.00  0.00    +0.170 HD
ATOM     17  C   UNL     1       0.325  -3.478  -5.075  0.00  0.00    +0.328 A 
ATOM     18  O   UNL     1       1.399  -3.053  -4.691  0.00  0.00    -0.247 OA
ENDBRANCH   4   8
BRANCH   1  20
ATOM     19  C   UNL     1       0.444   1.560  -0.403  0.00  0.00    -0.004 C 
ATOM     20  C   UNL     1      -0.030   0.148  -0.050  0.00  0.00    +0.016 C 
BRANCH  20  21
ATOM     21  C   UNL     1       0.843  -0.417   1.041  0.00  0.00    +0.203 C 
ATOM     22  O   UNL     1       1.819  -1.078   0.756  0.00  0.00    -0.277 OA
ATOM     23  N   UNL     1       0.538  -0.188   2.334  0.00  0.00    -0.286 N 
ATOM     24  H   UNL     1      -0.281   0.278   2.564  0.00  0.00    +0.155 HD
BRANCH  23  25
ATOM     25  C   UNL     1       1.405  -0.622   3.345  0.00  0.00    +0.053 A 
ATOM     26  C   UNL     1       2.732  -0.904   3.050  0.00  0.00    +0.046 A 
ATOM     27  C   UNL     1       3.585  -1.332   4.049  0.00  0.00    +0.061 A 
ATOM     28  C   UNL     1       3.116  -1.481   5.344  0.00  0.00    +0.061 A 
ATOM     29  C   UNL     1       1.794  -1.201   5.641  0.00  0.00    +0.043 A 
ATOM     30  C   UNL     1       0.939  -0.766   4.646  0.00  0.00    +0.064 A 
ATOM     31 CL   UNL     1      -0.718  -0.408   5.020  0.00  0.00    -0.082 Cl
ATOM     32 CL   UNL     1       4.190  -2.020   6.597  0.00  0.00    -0.082 Cl
ATOM     33 CL   UNL     1       5.244  -1.685   3.681  0.00  0.00    -0.082 Cl
ENDBRANCH  23  25
ENDBRANCH  20  21
ENDBRANCH   1  20
TORSDOF 4
