REMARK  Name = ZINC11784552
REMARK  4 active torsions:
REMARK  status: ('A' for Active; 'I' for Inactive)
REMARK    1  A    between atoms: C_1  and  C_2
REMARK    2  A    between atoms: C_5  and  C_7
REMARK    3  A    between atoms: C_9  and  C_13
REMARK    4  A    between atoms: N_23  and  C_24
REMARK                            x       y       z     vdW  Elec       q    Type
REMARK                         _______ _______ _______ _____ _____    ______ ____
ROOT
ATOM      1  C   UNL     1       1.738  -1.855  -0.025  0.00  0.00    +0.264 C 
ATOM      2  O   UNL     1       2.918  -2.117  -0.162  0.00  0.00    -0.268 OA
ATOM      3  N   UNL     1       0.835  -2.849   0.081  0.00  0.00    -0.296 N 
ATOM      4  C   UNL     1      -0.602  -2.563   0.099  0.00  0.00    +0.110 C 
ATOM      5  C   UNL     1      -1.332  -3.415  -0.932  0.00  0.00    +0.045 C 
ATOM      6  C   UNL     1      -0.891  -4.868  -0.954  0.00  0.00    +0.040 C 
ATOM      7  C   UNL     1      -1.432  -5.501  -2.271  0.00  0.00    +0.035 C 
ATOM      8  C   UNL     1      -1.581  -6.979  -1.840  0.00  0.00    +0.098 C 
ATOM      9  C   UNL     1      -1.863  -6.886  -0.357  0.00  0.00    +0.216 C 
ATOM     10  O   UNL     1      -2.339  -7.768   0.323  0.00  0.00    -0.276 OA
ATOM     11  N   UNL     1      -1.504  -5.667   0.104  0.00  0.00    -0.299 N 
ATOM     12  C   UNL     1      -1.734  -5.250   1.489  0.00  0.00    +0.132 C 
ATOM     13  C   UNL     1       0.625  -5.025  -0.970  0.00  0.00    +0.045 C 
ATOM     14  C   UNL     1       1.269  -4.250   0.181  0.00  0.00    +0.110 C 
ENDROOT
BRANCH   1  17
ATOM     15  C   UNL     1       1.149   1.751  -0.183  0.00  0.00    +0.100 A 
ATOM     16  C   UNL     1       1.971   0.645  -0.475  0.00  0.00    +0.063 A 
ATOM     17  C   UNL     1       1.297  -0.452   0.026  0.00  0.00    +0.121 A 
ATOM     18  N   UNL     1       0.141   0.022   0.579  0.00  0.00    -0.272 N 
ATOM     19  H   UNL     1      -0.556  -0.541   1.023  0.00  0.00    +0.189 HD
ATOM     20  N   UNL     1       0.082   1.298   0.443  0.00  0.00    -0.173 NA
BRANCH  15  25
ATOM     21  C   UNL     1       3.063   6.782  -1.863  0.00  0.00    +0.051 C 
ATOM     22  C   UNL     1       2.345   5.572  -1.321  0.00  0.00    -0.013 A 
ATOM     23  C   UNL     1       1.151   5.505  -0.678  0.00  0.00    +0.011 A 
ATOM     24  C   UNL     1       0.677   4.278  -0.270  0.00  0.00    +0.018 A 
ATOM     25  C   UNL     1       1.432   3.164  -0.518  0.00  0.00    +0.040 A 
ATOM     26  S   UNL     1       2.845   3.859  -1.361  0.00  0.00    -0.092 S 
ENDBRANCH  15  25
ENDBRANCH   1  17
TORSDOF 2
