REMARK  Name = ZINC36008081
REMARK  6 active torsions:
REMARK  status: ('A' for Active; 'I' for Inactive)
REMARK    1  A    between atoms: C_1  and  C_2
REMARK    2  A    between atoms: C_5  and  C_7
REMARK    3  A    between atoms: C_5  and  O_11
REMARK    4  A    between atoms: C_12  and  C_14
REMARK    5  A    between atoms: C_19  and  C_32
REMARK    6  A    between atoms: C_22  and  C_25
REMARK                            x       y       z     vdW  Elec       q    Type
REMARK                         _______ _______ _______ _____ _____    ______ ____
ROOT
ATOM      1  C   UNL     1       0.025  -2.711  -3.161  0.00  0.00    +0.151 A 
ATOM      2  C   UNL     1       0.027  -3.620  -4.243  0.00  0.00    +0.078 A 
ATOM      3  C   UNL     1       0.015  -2.898  -5.381  0.00  0.00    +0.119 A 
ATOM      4  N   UNL     1       0.004  -1.574  -5.045  0.00  0.00    -0.238 N 
ATOM      5  N   UNL     1       0.006  -1.484  -3.654  0.00  0.00    -0.164 NA
ATOM      6  C   UNL     1      -0.016  -0.486  -6.027  0.00  0.00    +0.215 C 
ATOM      7  C   UNL     1      -0.500  -1.041  -7.372  0.00  0.00    +0.063 C 
ATOM      8  C   UNL     1       0.289  -2.305  -7.730  0.00  0.00    +0.104 C 
ATOM      9  N   UNL     1       0.015  -3.335  -6.709  0.00  0.00    -0.322 N 
ATOM     10  H   UNL     1      -0.155  -4.260  -6.945  0.00  0.00    +0.148 HD
ENDROOT
BRANCH   1  17
ATOM     11  C   UNL     1      -0.018   1.503   0.010  0.00  0.00    +0.062 C 
ATOM     12  C   UNL     1       0.002  -0.004   0.002  0.00  0.00    +0.039 C 
ATOM     13  N   UNL     1       0.008  -0.729  -1.041  0.00  0.00    -0.183 NA
ATOM     14  N   UNL     1       0.028  -2.100  -0.791  0.00  0.00    -0.147 N 
ATOM     15  C   UNL     1       0.037  -2.314   0.665  0.00  0.00    +0.257 C 
ATOM     16  C   UNL     1       0.026  -0.880   1.234  0.00  0.00    +0.118 C 
ATOM     17  C   UNL     1       0.037  -3.068  -1.728  0.00  0.00    +0.289 C 
ATOM     18  O   UNL     1       0.054  -4.237  -1.393  0.00  0.00    -0.266 OA
BRANCH  15  19
ATOM     19  C   UNL     1      -1.209  -3.085   1.106  0.00  0.00    +0.438 C 
ATOM     20  F   UNL     1      -1.222  -4.341   0.491  0.00  0.00    -0.166 F 
ATOM     21  F   UNL     1      -1.191  -3.245   2.495  0.00  0.00    -0.166 F 
ATOM     22  F   UNL     1      -2.354  -2.372   0.733  0.00  0.00    -0.166 F 
ENDBRANCH  15  19
BRANCH  15  23
ATOM     23  O   UNL     1       1.224  -3.001   1.066  0.00  0.00    -0.363 OA
ATOM     24  H   UNL     1       1.320  -3.881   0.677  0.00  0.00    +0.212 HD
ENDBRANCH  15  23
ENDBRANCH   1  17
BRANCH   8  25
ATOM     25  C   UNL     1      -0.142  -2.803  -9.085  0.00  0.00    -0.027 A 
ATOM     26  C   UNL     1      -1.309  -3.533  -9.214  0.00  0.00    +0.007 A 
ATOM     27  C   UNL     1      -1.704  -3.990 -10.457  0.00  0.00    +0.020 A 
ATOM     28  C   UNL     1      -0.932  -3.717 -11.572  0.00  0.00    +0.041 A 
ATOM     29  C   UNL     1       0.236  -2.987 -11.443  0.00  0.00    +0.020 A 
ATOM     30  C   UNL     1       0.628  -2.526 -10.200  0.00  0.00    +0.007 A 
ATOM     31 CL   UNL     1      -1.428  -4.292 -13.134  0.00  0.00    -0.084 Cl
ENDBRANCH   8  25
BRANCH   6  32
ATOM     32  C   UNL     1      -0.965   0.616  -5.552  0.00  0.00    +0.412 C 
ATOM     33  F   UNL     1      -0.526   1.110  -4.319  0.00  0.00    -0.168 F 
ATOM     34  F   UNL     1      -0.982   1.653  -6.491  0.00  0.00    -0.168 F 
ATOM     35  F   UNL     1      -2.255   0.092  -5.412  0.00  0.00    -0.168 F 
ENDBRANCH   6  32
TORSDOF 5
