REMARK  Name = ZINC03532436
REMARK  10 active torsions:
REMARK  status: ('A' for Active; 'I' for Inactive)
REMARK    1  A    between atoms: C_1  and  C_2
REMARK    2  A    between atoms: N_13  and  C_26
REMARK    3  A    between atoms: C_14  and  S_16
REMARK    4  A    between atoms: S_16  and  C_17
REMARK    5  A    between atoms: C_17  and  C_19
REMARK    6  A    between atoms: C_17  and  C_20
REMARK    7  A    between atoms: C_26  and  C_27
REMARK    8  A    between atoms: C_27  and  C_28
REMARK    9  A    between atoms: C_28  and  C_29
REMARK   10  A    between atoms: C_28  and  C_30
REMARK                            x       y       z     vdW  Elec       q    Type
REMARK                         _______ _______ _______ _____ _____    ______ ____
ROOT
ATOM      1  C   UNL     1       1.397   3.572   0.258  0.00  0.00    +0.008 C 
ATOM      2  C   UNL     1       1.415   2.064  -0.000  0.00  0.00    -0.009 C 
ATOM      3  C   UNL     1      -0.019   1.524   0.010  0.00  0.00    +0.008 C 
ATOM      4  C   UNL     1       0.002  -0.004   0.002  0.00  0.00    +0.037 C 
ATOM      5  C   UNL     1       0.873  -0.481  -1.157  0.00  0.00    -0.023 A 
ATOM      6  C   UNL     1       1.763   0.356  -1.737  0.00  0.00    -0.004 A 
ATOM      7  S   UNL     1       2.540  -0.602  -3.014  0.00  0.00    -0.073 S 
ATOM      8  C   UNL     1       1.673  -2.120  -2.768  0.00  0.00    +0.117 A 
ATOM      9  C   UNL     1       0.801  -1.830  -1.694  0.00  0.00    +0.076 A 
ATOM     10  C   UNL     1      -0.058  -2.886  -1.245  0.00  0.00    +0.263 A 
ATOM     11  O   UNL     1      -0.844  -2.734  -0.326  0.00  0.00    -0.267 OA
ATOM     12  N   UNL     1       0.057  -4.062  -1.905  0.00  0.00    -0.287 N 
ATOM     13  C   UNL     1       0.928  -4.253  -2.935  0.00  0.00    +0.173 A 
ATOM     14  N   UNL     1       1.737  -3.299  -3.374  0.00  0.00    -0.216 NA
ATOM     15  C   UNL     1       2.034   1.784  -1.377  0.00  0.00    +0.046 C 
ENDROOT
BRANCH  13  16
ATOM     16  S   UNL     1       0.983  -5.833  -3.713  0.00  0.00    -0.075 S 
BRANCH  16  17
ATOM     17  C   UNL     1       2.262  -5.526  -4.957  0.00  0.00    +0.137 C 
ATOM     18  C   UNL     1       1.762  -4.480  -5.955  0.00  0.00    +0.029 C 
BRANCH  17  19
ATOM     19  C   UNL     1       2.572  -6.808  -5.685  0.00  0.00    +0.233 C 
ATOM     20  O   UNL     1       1.739  -7.687  -5.747  0.00  0.00    -0.274 OA
ATOM     21  N   UNL     1       3.775  -6.978  -6.268  0.00  0.00    -0.239 N 
ATOM     22  C   UNL     1       4.053  -8.125  -6.919  0.00  0.00    +0.303 C 
ATOM     23  O   UNL     1       3.218  -9.006  -6.981  0.00  0.00    -0.253 OA
ATOM     24  N   UNL     1       5.256  -8.294  -7.502  0.00  0.00    -0.313 N 
ATOM     25  H   UNL     1       4.531  -6.181  -6.212  0.00  0.00    +0.159 HD
ATOM     26  H   UNL     1       5.483  -9.230  -8.034  0.00  0.00    +0.146 HD
ATOM     27  H   UNL     1       6.012  -7.497  -7.446  0.00  0.00    +0.146 HD
ENDBRANCH  17  19
ENDBRANCH  16  17
ENDBRANCH  13  16
BRANCH  12  28
ATOM     28  C   UNL     1      -0.794  -5.181  -1.493  0.00  0.00    +0.127 C 
BRANCH  28  29
ATOM     29  C   UNL     1      -0.079  -5.996  -0.414  0.00  0.00    +0.025 C 
BRANCH  29  30
ATOM     30  C   UNL     1      -0.968  -7.165   0.016  0.00  0.00    -0.016 C 
ATOM     31  C   UNL     1      -0.204  -8.050   1.003  0.00  0.00    +0.007 C 
ATOM     32  C   UNL     1      -2.231  -6.624   0.689  0.00  0.00    +0.007 C 
ENDBRANCH  29  30
ENDBRANCH  28  29
ENDBRANCH  12  28
TORSDOF 6
