REMARK  Name = ZINC12145850
REMARK  7 active torsions:
REMARK  status: ('A' for Active; 'I' for Inactive)
REMARK    1  A    between atoms: C_1  and  C_2
REMARK    2  A    between atoms: C_2  and  C_4
REMARK    3  A    between atoms: C_2  and  N_12
REMARK    4  A    between atoms: C_4  and  C_5
REMARK    5  A    between atoms: C_5  and  C_6
REMARK    6  A    between atoms: C_13  and  C_15
REMARK    7  A    between atoms: C_15  and  N_59
REMARK                            x       y       z     vdW  Elec       q    Type
REMARK                         _______ _______ _______ _____ _____    ______ ____
ROOT
ATOM      1  C   UNL     1       6.266   0.595   3.528  0.00  0.00    -0.073 C 
ATOM      2  C   UNL     1       7.774   0.573   3.266  0.00  0.00    +0.050 C 
ATOM      3  C   UNL     1       8.075  -0.413   2.133  0.00  0.00    +0.175 C 
ATOM      4  C   UNL     1       7.293   0.008   0.885  0.00  0.00    +0.050 C 
ATOM      5  C   UNL     1       5.799   0.047   1.214  0.00  0.00    -0.073 C 
ATOM      6  N   UNL     1       7.652  -1.755   2.538  0.00  0.00    -0.274 N 
ATOM      7  C   UNL     1       8.222  -2.846   1.978  0.00  0.00    +0.250 C 
ATOM      8  O   UNL     1       7.789  -3.961   2.195  0.00  0.00    -0.270 OA
ATOM      9  C   UNL     1       9.386  -2.639   1.094  0.00  0.00    +0.078 A 
ATOM     10  C   UNL     1       9.899  -3.669   0.311  0.00  0.00    +0.017 A 
ATOM     11  C   UNL     1      10.982  -3.426  -0.509  0.00  0.00    +0.001 A 
ATOM     12  C   UNL     1      11.556  -2.165  -0.554  0.00  0.00    +0.004 A 
ATOM     13  C   UNL     1      11.057  -1.137   0.223  0.00  0.00    +0.046 A 
ATOM     14  C   UNL     1       9.975  -1.366   1.055  0.00  0.00    +0.135 A 
ATOM     15  O   UNL     1       9.473  -0.387   1.846  0.00  0.00    -0.468 OA
ATOM     16  H   UNL     1       6.960  -1.862   3.210  0.00  0.00    +0.153 HD
ATOM     17  N   UNL     1       5.571   1.028   2.297  0.00  0.00    +0.386 N 
ATOM     18  H   UNL     1       5.945   1.938   2.006  0.00  0.00    -0.081 HD
ENDROOT
BRANCH  17  19
ATOM     19  C   UNL     1       4.123   1.165   2.556  0.00  0.00    +0.019 C 
BRANCH  19  21
ATOM     20  N   UNL     1       2.138   1.964   1.316  0.00  0.00    -0.314 N 
ATOM     21  C   UNL     1       3.477   1.825   1.366  0.00  0.00    +0.197 C 
ATOM     22  O   UNL     1       4.163   2.232   0.452  0.00  0.00    -0.278 OA
ATOM     23  H   UNL     1       1.589   1.638   2.047  0.00  0.00    +0.149 HD
BRANCH  20  25
ATOM     24  C   UNL     1       1.512   4.123   0.353  0.00  0.00    +0.028 C 
ATOM     25  C   UNL     1       1.510   2.605   0.159  0.00  0.00    +0.070 C 
BRANCH  25  26
ATOM     26  C   UNL     1       0.068   2.111   0.021  0.00  0.00    +0.026 C 
BRANCH  26  27
ATOM     27  C   UNL     1       0.070   0.615  -0.297  0.00  0.00    +0.037 C 
BRANCH  27  28
ATOM     28  C   UNL     1      -1.350   0.128  -0.433  0.00  0.00    -0.047 A 
ATOM     29  C   UNL     1      -2.025  -0.349   0.674  0.00  0.00    +0.003 A 
ATOM     30  C   UNL     1      -3.329  -0.791   0.551  0.00  0.00    +0.000 A 
ATOM     31  C   UNL     1      -3.954  -0.764  -0.681  0.00  0.00    +0.000 A 
ATOM     32  C   UNL     1      -3.277  -0.292  -1.790  0.00  0.00    +0.000 A 
ATOM     33  C   UNL     1      -1.975   0.154  -1.666  0.00  0.00    +0.003 A 
ENDBRANCH  27  28
ENDBRANCH  26  27
ENDBRANCH  25  26
ENDBRANCH  20  25
ENDBRANCH  19  21
ENDBRANCH  17  19
TORSDOF 6
