REMARK  Name = ZINC35711814
REMARK  18 active torsions:
REMARK  status: ('A' for Active; 'I' for Inactive)
REMARK    1  A    between atoms: C_1  and  C_2
REMARK    2  A    between atoms: C_2  and  C_3
REMARK    3  A    between atoms: C_3  and  N_4
REMARK    4  A    between atoms: C_5  and  C_40
REMARK    5  A    between atoms: C_6  and  C_34
REMARK    6  A    between atoms: C_7  and  C_12
REMARK    7  A    between atoms: C_15  and  N_18
REMARK    8  A    between atoms: N_21  and  C_22
REMARK    9  A    between atoms: C_23  and  C_31
REMARK   10  A    between atoms: C_27  and  C_28
REMARK   11  A    between atoms: C_28  and  C_29
REMARK   12  A    between atoms: C_28  and  C_30
REMARK   13  A    between atoms: C_31  and  C_32
REMARK   14  A    between atoms: C_31  and  C_33
REMARK   15  A    between atoms: C_34  and  O_36
REMARK   16  A    between atoms: O_36  and  C_37
REMARK   17  A    between atoms: C_37  and  C_38
REMARK   18  A    between atoms: C_37  and  C_39
REMARK                            x       y       z     vdW  Elec       q    Type
REMARK                         _______ _______ _______ _____ _____    ______ ____
ROOT
ATOM      1  C   UNL     1      -0.715  -5.849  -5.388  0.00  0.00    -0.022 A 
ATOM      2  C   UNL     1      -0.238  -5.734  -6.681  0.00  0.00    +0.007 A 
ATOM      3  C   UNL     1       1.002  -6.245  -7.008  0.00  0.00    +0.024 A 
ATOM      4  C   UNL     1       1.770  -6.876  -6.038  0.00  0.00    +0.035 A 
ATOM      5  C   UNL     1       1.288  -6.990  -4.741  0.00  0.00    +0.024 A 
ATOM      6  C   UNL     1       0.049  -6.471  -4.418  0.00  0.00    +0.007 A 
ENDROOT
BRANCH   1  10
ATOM      7  N   UNL     1      -3.531  -3.486  -6.537  0.00  0.00    -0.259 N 
ATOM      8  C   UNL     1      -2.668  -2.979  -5.608  0.00  0.00    +0.024 C 
ATOM      9  C   UNL     1      -1.919  -3.795  -4.834  0.00  0.00    +0.078 C 
ATOM     10  C   UNL     1      -2.069  -5.290  -5.034  0.00  0.00    +0.143 C 
ATOM     11  N   UNL     1      -3.026  -5.733  -6.061  0.00  0.00    -0.288 N 
ATOM     12  C   UNL     1      -3.706  -4.796  -6.752  0.00  0.00    +0.307 C 
ATOM     13  O   UNL     1      -4.501  -5.152  -7.599  0.00  0.00    -0.252 OA
ATOM     14  C   UNL     1      -2.550  -1.486  -5.442  0.00  0.00    +0.061 C 
ATOM     15  H   UNL     1      -3.166  -6.677  -6.235  0.00  0.00    +0.151 HD
BRANCH   9  16
ATOM     16  C   UNL     1      -1.025  -3.271  -3.871  0.00  0.00    +0.339 C 
ATOM     17  O   UNL     1      -0.921  -2.067  -3.729  0.00  0.00    -0.245 OA
BRANCH  16  18
ATOM     18  O   UNL     1      -0.288  -4.107  -3.111  0.00  0.00    -0.459 OA
BRANCH  18  19
ATOM     19  C   UNL     1       0.595  -3.510  -2.159  0.00  0.00    +0.171 C 
ATOM     20  C   UNL     1      -0.140  -3.323  -0.830  0.00  0.00    +0.052 C 
ATOM     21  C   UNL     1       1.808  -4.418  -1.947  0.00  0.00    +0.052 C 
ENDBRANCH  18  19
ENDBRANCH  16  18
ENDBRANCH   9  16
BRANCH   7  22
ATOM     22  C   UNL     1      -4.312  -2.543  -7.342  0.00  0.00    +0.114 C 
BRANCH  22  24
ATOM     23  C   UNL     1      -4.292  -1.089  -9.373  0.00  0.00    +0.005 C 
ATOM     24  C   UNL     1      -3.475  -2.074  -8.533  0.00  0.00    +0.016 C 
ENDBRANCH  22  24
ENDBRANCH   7  22
ENDBRANCH   1  10
BRANCH   4  25
ATOM     25  N   UNL     1       3.027  -7.396  -6.367  0.00  0.00    -0.269 N 
ATOM     26  C   UNL     1       3.804  -6.762  -7.268  0.00  0.00    +0.308 C 
ATOM     27  O   UNL     1       3.379  -5.786  -7.857  0.00  0.00    -0.252 OA
ATOM     28  N   UNL     1       5.051  -7.209  -7.516  0.00  0.00    -0.269 N 
ATOM     29  H   UNL     1       3.339  -8.212  -5.947  0.00  0.00    +0.156 HD
ATOM     30  H   UNL     1       5.362  -8.030  -7.104  0.00  0.00    +0.156 HD
BRANCH  28  31
ATOM     31  C   UNL     1       5.896  -6.488  -8.367  0.00  0.00    +0.042 A 
ATOM     32  C   UNL     1       6.232  -7.003  -9.612  0.00  0.00    -0.023 A 
ATOM     33  C   UNL     1       7.067  -6.290 -10.451  0.00  0.00    +0.006 A 
ATOM     34  C   UNL     1       7.567  -5.064 -10.051  0.00  0.00    +0.001 A 
ATOM     35  C   UNL     1       7.234  -4.549  -8.812  0.00  0.00    +0.006 A 
ATOM     36  C   UNL     1       6.395  -5.255  -7.972  0.00  0.00    -0.023 A 
BRANCH  36  37
ATOM     37  C   UNL     1       6.027  -4.689  -6.624  0.00  0.00    +0.015 C 
ATOM     38  C   UNL     1       7.301  -4.416  -5.821  0.00  0.00    +0.012 C 
ATOM     39  C   UNL     1       5.254  -3.382  -6.814  0.00  0.00    +0.012 C 
ENDBRANCH  36  37
BRANCH  32  40
ATOM     40  C   UNL     1       5.688  -8.339 -10.048  0.00  0.00    +0.015 C 
ATOM     41  C   UNL     1       4.967  -8.184 -11.389  0.00  0.00    +0.012 C 
ATOM     42  C   UNL     1       6.840  -9.334 -10.201  0.00  0.00    +0.012 C 
ENDBRANCH  32  40
ENDBRANCH  28  31
ENDBRANCH   4  25
TORSDOF 10
