REMARK  Name = ZINC20806868
REMARK  14 active torsions:
REMARK  status: ('A' for Active; 'I' for Inactive)
REMARK    1  A    between atoms: C_1  and  C_2
REMARK    2  A    between atoms: C_2  and  C_3
REMARK    3  A    between atoms: C_3  and  C_4
REMARK    4  A    between atoms: C_4  and  C_5
REMARK    5  A    between atoms: C_5  and  C_6
REMARK    6  A    between atoms: C_6  and  C_8
REMARK    7  A    between atoms: C_6  and  C_9
REMARK    8  A    between atoms: C_9  and  C_11
REMARK    9  A    between atoms: C_9  and  C_12
REMARK   10  A    between atoms: C_14  and  O_32
REMARK   11  A    between atoms: C_19  and  C_30
REMARK   12  A    between atoms: C_19  and  C_31
REMARK   13  A    between atoms: N_23  and  C_26
REMARK   14  A    between atoms: C_26  and  C_27
REMARK                            x       y       z     vdW  Elec       q    Type
REMARK                         _______ _______ _______ _____ _____    ______ ____
ROOT
ATOM      1  C   UNL     1      -2.145   0.840   3.708  0.00  0.00    -0.037 A 
ATOM      2  C   UNL     1      -2.274  -0.535   3.640  0.00  0.00    +0.050 A 
ATOM      3  C   UNL     1      -3.533  -1.117   3.591  0.00  0.00    +0.128 A 
ATOM      4  C   UNL     1      -4.665  -0.303   3.611  0.00  0.00    +0.060 A 
ATOM      5  C   UNL     1      -4.526   1.089   3.679  0.00  0.00    +0.133 A 
ATOM      6  C   UNL     1      -3.265   1.653   3.733  0.00  0.00    +0.050 A 
ATOM      7  O   UNL     1      -5.648   1.854   3.693  0.00  0.00    -0.481 OA
ATOM      8  C   UNL     1      -6.760   1.377   2.936  0.00  0.00    +0.126 C 
ATOM      9  C   UNL     1      -7.036  -0.075   3.253  0.00  0.00    -0.027 C 
ATOM     10  C   UNL     1      -6.029  -0.878   3.566  0.00  0.00    -0.047 C 
ATOM     11  C   UNL     1      -6.215  -2.339   3.866  0.00  0.00    -0.041 C 
ATOM     12  N   UNL     1      -7.618  -2.630   4.178  0.00  0.00    +0.388 N 
ATOM     13  C   UNL     1      -8.491  -2.090   3.123  0.00  0.00    -0.073 C 
ATOM     14  C   UNL     1      -8.460  -0.564   3.207  0.00  0.00    +0.016 C 
ATOM     15  C   UNL     1      -7.997   2.211   3.277  0.00  0.00    +0.060 C 
ATOM     16  C   UNL     1      -6.453   1.517   1.444  0.00  0.00    +0.060 C 
ATOM     17  H   UNL     1      -7.871  -2.142   5.131  0.00  0.00    -0.081 HD
ENDROOT
BRANCH   1  18
ATOM     18  C   UNL     1      -0.772   1.460   3.762  0.00  0.00    +0.019 C 
ATOM     19  C   UNL     1      -0.033   0.953   5.002  0.00  0.00    +0.013 C 
BRANCH  18  20
ATOM     20  C   UNL     1       0.011   1.072   2.506  0.00  0.00    -0.007 C 
ATOM     21  C   UNL     1       1.405   1.701   2.561  0.00  0.00    +0.008 C 
BRANCH  20  22
ATOM     22  C   UNL     1      -0.729   1.579   1.267  0.00  0.00    +0.004 C 
BRANCH  22  23
ATOM     23  C   UNL     1      -0.013   1.086   0.008  0.00  0.00    +0.000 C 
BRANCH  23  24
ATOM     24  C   UNL     1      -0.753   1.593  -1.232  0.00  0.00    -0.000 C 
BRANCH  24  26
ATOM     25  C   UNL     1      -0.777   1.606  -3.730  0.00  0.00    +0.004 C 
ATOM     26  C   UNL     1      -0.037   1.099  -2.490  0.00  0.00    -0.003 C 
ENDBRANCH  24  26
ENDBRANCH  23  24
ENDBRANCH  22  23
ENDBRANCH  20  22
ENDBRANCH  18  20
ENDBRANCH   1  18
BRANCH   3  27
ATOM     27  O   UNL     1      -3.660  -2.468   3.524  0.00  0.00    -0.506 OA
ATOM     28  H   UNL     1      -4.660  -2.925   3.485  0.00  0.00    +0.292 HD
ENDBRANCH   3  27
BRANCH  12  29
ATOM     29  C   UNL     1      -7.831  -4.074   4.350  0.00  0.00    +0.019 C 
BRANCH  29  30
ATOM     30  C   UNL     1      -9.210  -4.315   4.906  0.00  0.00    +0.194 C 
ATOM     31  O   UNL     1      -9.944  -3.378   5.136  0.00  0.00    -0.278 OA
ATOM     32  N   UNL     1      -9.629  -5.574   5.147  0.00  0.00    -0.331 N 
ATOM     33  H   UNL     1     -10.636  -5.750   5.553  0.00  0.00    +0.145 HD
ATOM     34  H   UNL     1      -8.963  -6.424   4.938  0.00  0.00    +0.145 HD
ENDBRANCH  29  30
ENDBRANCH  12  29
TORSDOF 9
