REMARK  Name = ZINC13148534
REMARK  9 active torsions:
REMARK  status: ('A' for Active; 'I' for Inactive)
REMARK    1  A    between atoms: C_4  and  N_27
REMARK    2  A    between atoms: C_5  and  C_7
REMARK    3  A    between atoms: C_7  and  O_9
REMARK    4  A    between atoms: O_9  and  C_10
REMARK    5  A    between atoms: C_10  and  C_11
REMARK    6  A    between atoms: N_16  and  C_17
REMARK    7  A    between atoms: N_27  and  C_28
REMARK    8  A    between atoms: C_28  and  C_29
REMARK    9  A    between atoms: C_29  and  C_30
REMARK                            x       y       z     vdW  Elec       q    Type
REMARK                         _______ _______ _______ _____ _____    ______ ____
ROOT
ATOM      1  O   UNL     1      -9.298   1.185   3.284  0.00  0.00    -0.452 OA
ENDROOT
BRANCH   1   2
ATOM      2  C   UNL     1     -10.573   0.786   3.457  0.00  0.00    +0.341 C 
ATOM      3  O   UNL     1     -11.105   0.073   2.629  0.00  0.00    -0.245 OA
BRANCH   2   8
ATOM      4  C   UNL     1     -11.389   2.331   6.776  0.00  0.00    +0.001 A 
ATOM      5  C   UNL     1     -12.735   2.019   6.900  0.00  0.00    +0.002 A 
ATOM      6  C   UNL     1     -13.381   1.308   5.911  0.00  0.00    +0.024 A 
ATOM      7  C   UNL     1     -12.685   0.899   4.780  0.00  0.00    +0.041 A 
ATOM      8  C   UNL     1     -11.323   1.213   4.651  0.00  0.00    +0.080 A 
ATOM      9  C   UNL     1     -10.681   1.930   5.665  0.00  0.00    +0.017 A 
BRANCH   7  10
ATOM     10  N   UNL     1     -13.334   0.182   3.783  0.00  0.00    -0.343 N 
ATOM     11  H   UNL     1     -12.829  -0.171   3.033  0.00  0.00    +0.146 HD
BRANCH  10  12
ATOM     12  C   UNL     1     -14.779  -0.040   3.862  0.00  0.00    +0.106 C 
BRANCH  12  13
ATOM     13  C   UNL     1     -15.239  -0.850   2.649  0.00  0.00    +0.054 C 
BRANCH  13  14
ATOM     14  C   UNL     1     -16.726  -1.079   2.731  0.00  0.00    -0.046 A 
ATOM     15  C   UNL     1     -17.218  -2.202   3.370  0.00  0.00    +0.006 A 
ATOM     16  C   UNL     1     -18.581  -2.410   3.450  0.00  0.00    +0.038 A 
ATOM     17  C   UNL     1     -19.455  -1.499   2.881  0.00  0.00    +0.123 A 
ATOM     18  C   UNL     1     -18.961  -0.378   2.237  0.00  0.00    +0.038 A 
ATOM     19  C   UNL     1     -17.597  -0.169   2.162  0.00  0.00    +0.006 A 
ATOM     20  F   UNL     1     -20.788  -1.704   2.954  0.00  0.00    -0.205 F 
ENDBRANCH  13  14
ENDBRANCH  12  13
ENDBRANCH  10  12
ENDBRANCH   7  10
ENDBRANCH   2   8
ENDBRANCH   1   2
BRANCH   1  21
ATOM     21  C   UNL     1      -8.620   0.725   2.084  0.00  0.00    +0.328 C 
BRANCH  21  22
ATOM     22  C   UNL     1      -7.215   1.268   2.062  0.00  0.00    +0.258 C 
ATOM     23  O   UNL     1      -6.822   1.972   2.968  0.00  0.00    -0.272 OA
ATOM     24  N   UNL     1      -6.394   0.970   1.036  0.00  0.00    -0.237 N 
ATOM     25  C   UNL     1      -5.136   1.455   1.016  0.00  0.00    +0.306 C 
ATOM     26  O   UNL     1      -4.743   2.161   1.924  0.00  0.00    -0.252 OA
ATOM     27  N   UNL     1      -4.315   1.157  -0.010  0.00  0.00    -0.294 N 
ATOM     28  H   UNL     1      -6.707   0.406   0.312  0.00  0.00    +0.159 HD
ATOM     29  H   UNL     1      -4.629   0.594  -0.735  0.00  0.00    +0.151 HD
BRANCH  27  30
ATOM     30  C   UNL     1      -2.949   1.685  -0.032  0.00  0.00    +0.037 C 
ATOM     31  C   UNL     1      -2.235   1.201  -1.295  0.00  0.00    +0.029 C 
ATOM     32  C   UNL     1      -0.808   1.751  -1.318  0.00  0.00    -0.008 C 
ATOM     33  C   UNL     1      -0.051   1.257  -0.083  0.00  0.00    +0.007 C 
ATOM     34  C   UNL     1      -0.764   1.742   1.180  0.00  0.00    -0.008 C 
ATOM     35  C   UNL     1      -2.192   1.191   1.203  0.00  0.00    +0.029 C 
ATOM     36  C   UNL     1      -0.808   3.271   1.187  0.00  0.00    +0.007 C 
ATOM     37  C   UNL     1      -1.565   3.765  -0.047  0.00  0.00    -0.008 C 
ATOM     38  C   UNL     1      -0.851   3.281  -1.311  0.00  0.00    +0.007 C 
ATOM     39  C   UNL     1      -2.992   3.214  -0.025  0.00  0.00    +0.029 C 
ENDBRANCH  27  30
ENDBRANCH  21  22
ENDBRANCH   1  21
TORSDOF 9
