REMARK  Name = ZINC03297524
REMARK  12 active torsions:
REMARK  status: ('A' for Active; 'I' for Inactive)
REMARK    1  A    between atoms: C_1  and  C_2
REMARK    2  A    between atoms: C_2  and  C_3
REMARK    3  A    between atoms: C_2  and  C_4
REMARK    4  A    between atoms: C_2  and  C_5
REMARK    5  A    between atoms: C_8  and  C_11
REMARK    6  A    between atoms: C_14  and  S_17
REMARK    7  A    between atoms: N_15  and  N_16
REMARK    8  A    between atoms: S_17  and  C_18
REMARK    9  A    between atoms: C_18  and  C_19
REMARK   10  A    between atoms: N_21  and  C_22
REMARK   11  A    between atoms: C_25  and  O_29
REMARK   12  A    between atoms: O_29  and  C_30
REMARK                            x       y       z     vdW  Elec       q    Type
REMARK                         _______ _______ _______ _____ _____    ______ ____
ROOT
ATOM      1  C   UNL     1      -9.663   4.650  -0.492  0.00  0.00    +0.182 A 
ATOM      2  N   UNL     1      -8.772   5.594  -0.296  0.00  0.00    -0.127 NA
ATOM      3  N   UNL     1      -7.592   5.085  -0.269  0.00  0.00    -0.121 NA
ATOM      4  C   UNL     1      -7.657   3.785  -0.454  0.00  0.00    +0.209 A 
ATOM      5  N   UNL     1      -8.976   3.463  -0.599  0.00  0.00    -0.224 N 
ENDROOT
BRANCH   1   9
ATOM      6  C   UNL     1     -13.871   5.164  -0.746  0.00  0.00    -0.042 A 
ATOM      7  C   UNL     1     -13.344   3.906  -0.519  0.00  0.00    +0.005 A 
ATOM      8  C   UNL     1     -11.978   3.732  -0.435  0.00  0.00    +0.012 A 
ATOM      9  C   UNL     1     -11.127   4.829  -0.581  0.00  0.00    +0.021 A 
ATOM     10  C   UNL     1     -11.666   6.097  -0.804  0.00  0.00    +0.012 A 
ATOM     11  C   UNL     1     -13.034   6.256  -0.891  0.00  0.00    +0.005 A 
BRANCH   6  13
ATOM     12  C   UNL     1     -16.013   4.904   0.477  0.00  0.00    +0.015 C 
ATOM     13  C   UNL     1     -15.364   5.347  -0.837  0.00  0.00    -0.013 C 
ATOM     14  C   UNL     1     -15.684   6.821  -1.091  0.00  0.00    +0.015 C 
ATOM     15  C   UNL     1     -15.913   4.500  -1.987  0.00  0.00    +0.015 C 
ENDBRANCH   6  13
ENDBRANCH   1   9
BRANCH   5  16
ATOM     16  N   UNL     1      -9.504   2.220  -0.806  0.00  0.00    -0.295 N 
ATOM     17  H   UNL     1      -9.802   1.804   0.063  0.00  0.00    +0.163 HD
ATOM     18  H   UNL     1     -10.263   2.256  -1.469  0.00  0.00    +0.163 HD
ENDBRANCH   5  16
BRANCH   4  19
ATOM     19  S   UNL     1      -6.296   2.667  -0.498  0.00  0.00    -0.075 S 
BRANCH  19  20
ATOM     20  C   UNL     1      -4.929   3.824  -0.238  0.00  0.00    +0.173 C 
BRANCH  20  21
ATOM     21  C   UNL     1      -3.625   3.070  -0.238  0.00  0.00    +0.227 C 
ATOM     22  O   UNL     1      -3.620   1.867  -0.399  0.00  0.00    -0.275 OA
ATOM     23  N   UNL     1      -2.464   3.730  -0.060  0.00  0.00    -0.285 N 
ATOM     24  H   UNL     1      -2.472   4.679   0.144  0.00  0.00    +0.155 HD
BRANCH  23  25
ATOM     25  C   UNL     1      -1.245   3.048  -0.169  0.00  0.00    +0.035 A 
ATOM     26  C   UNL     1      -0.130   3.502   0.522  0.00  0.00    +0.027 A 
ATOM     27  C   UNL     1       1.072   2.832   0.410  0.00  0.00    +0.049 A 
ATOM     28  C   UNL     1       1.164   1.699  -0.385  0.00  0.00    +0.138 A 
ATOM     29  C   UNL     1       0.049   1.241  -1.072  0.00  0.00    +0.084 A 
ATOM     30  C   UNL     1      -1.154   1.913  -0.965  0.00  0.00    +0.047 A 
ATOM     31 CL   UNL     1       0.164  -0.177  -2.067  0.00  0.00    -0.080 Cl
BRANCH  28  32
ATOM     32  O   UNL     1       2.347   1.037  -0.490  0.00  0.00    -0.494 OA
ATOM     33  C   UNL     1       3.453   1.564   0.245  0.00  0.00    +0.277 C 
ENDBRANCH  28  32
ENDBRANCH  23  25
ENDBRANCH  20  21
ENDBRANCH  19  20
ENDBRANCH   4  19
TORSDOF 8
