REMARK  Name = ZINC21820071
REMARK  6 active torsions:
REMARK  status: ('A' for Active; 'I' for Inactive)
REMARK    1  A    between atoms: C_1  and  C_2
REMARK    2  A    between atoms: C_2  and  C_4
REMARK    3  A    between atoms: C_2  and  N_17
REMARK    4  A    between atoms: N_6  and  C_7
REMARK    5  A    between atoms: C_10  and  N_14
REMARK    6  A    between atoms: N_17  and  C_18
REMARK                            x       y       z     vdW  Elec       q    Type
REMARK                         _______ _______ _______ _____ _____    ______ ____
ROOT
ATOM      1  C   UNL     1       2.427  -0.238   0.079  0.00  0.00    +0.237 C 
ATOM      2  O   UNL     1       1.388  -0.864   0.086  0.00  0.00    -0.273 OA
ATOM      3  N   UNL     1       2.403   1.106  -0.015  0.00  0.00    -0.283 N 
ATOM      4  H   UNL     1       3.344   1.667  -0.113  0.00  0.00    +0.155 HD
ENDROOT
BRANCH   3   5
ATOM      5  C   UNL     1       1.181   1.788   0.012  0.00  0.00    +0.052 A 
ATOM      6  C   UNL     1       0.076   1.213   0.627  0.00  0.00    +0.027 A 
ATOM      7  C   UNL     1      -1.130   1.886   0.647  0.00  0.00    +0.034 A 
ATOM      8  C   UNL     1      -1.236   3.135   0.063  0.00  0.00    +0.128 A 
ATOM      9  C   UNL     1      -0.139   3.711  -0.551  0.00  0.00    +0.054 A 
ATOM     10  C   UNL     1       1.069   3.041  -0.578  0.00  0.00    +0.064 A 
ATOM     11 CL   UNL     1       2.447   3.764  -1.349  0.00  0.00    -0.082 Cl
BRANCH   8  12
ATOM     12  N   UNL     1      -2.529   3.855   0.090  0.00  0.00    +0.056 N 
ATOM     13  O   UNL     1      -2.626   4.953  -0.428  0.00  0.00    -0.126 OA
ATOM     14  O   UNL     1      -3.497   3.349   0.630  0.00  0.00    -0.126 OA
ENDBRANCH   8  12
ENDBRANCH   3   5
BRANCH   1  16
ATOM     15  C   UNL     1       4.495  -0.492   1.423  0.00  0.00    +0.038 C 
ATOM     16  C   UNL     1       3.744  -0.964   0.176  0.00  0.00    +0.154 C 
BRANCH  16  17
ATOM     17  N   UNL     1       3.502  -2.406   0.268  0.00  0.00    -0.333 N 
ATOM     18  H   UNL     1       2.546  -2.779   0.664  0.00  0.00    +0.147 HD
BRANCH  17  19
ATOM     19  C   UNL     1       4.485  -3.307  -0.147  0.00  0.00    +0.028 A 
ATOM     20  C   UNL     1       5.691  -2.838  -0.653  0.00  0.00    +0.023 A 
ATOM     21  C   UNL     1       6.661  -3.732  -1.056  0.00  0.00    +0.006 A 
ATOM     22  C   UNL     1       6.433  -5.097  -0.971  0.00  0.00    -0.044 A 
ATOM     23  C   UNL     1       5.232  -5.566  -0.472  0.00  0.00    -0.042 A 
ATOM     24  C   UNL     1       4.258  -4.673  -0.061  0.00  0.00    +0.026 A 
ATOM     25  C   UNL     1       5.231  -7.080  -0.482  0.00  0.00    +0.036 C 
ATOM     26  C   UNL     1       6.375  -7.479  -1.438  0.00  0.00    +0.009 C 
ATOM     27  C   UNL     1       7.321  -6.263  -1.348  0.00  0.00    +0.036 C 
ENDBRANCH  17  19
ENDBRANCH  16  17
ENDBRANCH   1  16
TORSDOF 5
