REMARK  Name = ZINC59640988
REMARK  11 active torsions:
REMARK  status: ('A' for Active; 'I' for Inactive)
REMARK    1  A    between atoms: C_1  and  C_2
REMARK    2  A    between atoms: C_4  and  C_31
REMARK    3  A    between atoms: C_5  and  C_29
REMARK    4  A    between atoms: C_6  and  N_8
REMARK    5  A    between atoms: N_8  and  N_9
REMARK    6  A    between atoms: C_10  and  C_11
REMARK    7  A    between atoms: C_14  and  O_18
REMARK    8  A    between atoms: O_18  and  C_19
REMARK    9  A    between atoms: C_19  and  C_20
REMARK   10  A    between atoms: C_31  and  O_32
REMARK   11  A    between atoms: O_32  and  C_33
REMARK                            x       y       z     vdW  Elec       q    Type
REMARK                         _______ _______ _______ _____ _____    ______ ____
ROOT
ATOM      1  C   UNL     1       0.054  -1.695   6.000  0.00  0.00    -0.004 A 
ATOM      2  C   UNL     1       0.029  -0.299   5.948  0.00  0.00    +0.013 A 
ATOM      3  C   UNL     1       0.024   0.433   7.116  0.00  0.00    +0.047 A 
ATOM      4  C   UNL     1       0.044  -0.215   8.344  0.00  0.00    +0.135 A 
ATOM      5  C   UNL     1       0.069  -1.603   8.401  0.00  0.00    +0.060 A 
ATOM      6  C   UNL     1       0.068  -2.344   7.238  0.00  0.00    +0.028 A 
ATOM      7 BR   UNL     1       0.097  -2.479  10.077  0.00  0.00    -0.046 Br
ENDROOT
BRANCH   1   9
ATOM      8  N   UNL     1       0.045  -1.877   3.604  0.00  0.00    -0.189 NA
ATOM      9  C   UNL     1       0.058  -2.482   4.753  0.00  0.00    +0.138 C 
BRANCH   8  10
ATOM     10  N   UNL     1       0.049  -2.625   2.420  0.00  0.00    -0.220 N 
ATOM     11  H   UNL     1       0.063  -3.594   2.458  0.00  0.00    +0.176 HD
BRANCH  10  17
ATOM     12  C   UNL     1      -0.018   1.503   0.010  0.00  0.00    +0.065 C 
ATOM     13  C   UNL     1       0.002  -0.004   0.002  0.00  0.00    +0.041 A 
ATOM     14  C   UNL     1       0.005  -0.676  -1.207  0.00  0.00    +0.030 A 
ATOM     15  C   UNL     1       0.024  -2.060  -1.218  0.00  0.00    +0.000 A 
ATOM     16  C   UNL     1       0.039  -2.734   0.008  0.00  0.00    +0.098 A 
ATOM     17  C   UNL     1       0.035  -1.981   1.195  0.00  0.00    +0.156 A 
ATOM     18  N   UNL     1       0.022  -0.657   1.147  0.00  0.00    -0.234 NA
BRANCH  16  19
ATOM     19  C   UNL     1       0.058  -4.166   0.053  0.00  0.00    +0.103 C 
ATOM     20  N   UNL     1       0.074  -5.301   0.089  0.00  0.00    -0.191 NA
ENDBRANCH  16  19
BRANCH  15  21
ATOM     21  C   UNL     1       0.028  -2.822  -2.518  0.00  0.00    +0.196 C 
BRANCH  21  22
ATOM     22  O   UNL     1       0.010  -1.901  -3.611  0.00  0.00    -0.378 OA
ATOM     23  C   UNL     1       0.012  -2.524  -4.896  0.00  0.00    +0.194 C 
ENDBRANCH  21  22
ENDBRANCH  15  21
ENDBRANCH  10  17
ENDBRANCH   8  10
ENDBRANCH   1   9
BRANCH   4  24
ATOM     24  O   UNL     1       0.039   0.510   9.493  0.00  0.00    -0.486 OA
BRANCH  24  25
ATOM     25  C   UNL     1       0.013   1.933   9.361  0.00  0.00    +0.264 C 
BRANCH  25  26
ATOM     26  C   UNL     1       0.011   2.564  10.730  0.00  0.00    -0.007 A 
ATOM     27  C   UNL     1      -1.188   2.826  11.367  0.00  0.00    +0.011 A 
ATOM     28  C   UNL     1      -1.194   3.404  12.623  0.00  0.00    +0.050 A 
ATOM     29  C   UNL     1       0.002   3.723  13.246  0.00  0.00    +0.166 A 
ATOM     30  C   UNL     1       1.209   3.459  12.604  0.00  0.00    +0.167 A 
ATOM     31  C   UNL     1       1.208   2.874  11.348  0.00  0.00    +0.056 A 
ATOM     32  O   UNL     1       2.231   3.859  13.415  0.00  0.00    -0.453 OA
ATOM     33  C   UNL     1       1.631   4.743  14.381  0.00  0.00    +0.466 C 
ATOM     34  O   UNL     1       0.267   4.289  14.459  0.00  0.00    -0.453 OA
ENDBRANCH  25  26
ENDBRANCH  24  25
ENDBRANCH   4  24
TORSDOF 9
