REMARK  Name = ZINC64073400
REMARK  7 active torsions:
REMARK  status: ('A' for Active; 'I' for Inactive)
REMARK    1  A    between atoms: C_7  and  C_10
REMARK    2  A    between atoms: C_10  and  C_11
REMARK    3  A    between atoms: C_11  and  C_13
REMARK    4  A    between atoms: C_11  and  N_28
REMARK    5  A    between atoms: N_15  and  C_16
REMARK    6  A    between atoms: C_19  and  S_22
REMARK    7  A    between atoms: S_22  and  C_23
REMARK                            x       y       z     vdW  Elec       q    Type
REMARK                         _______ _______ _______ _____ _____    ______ ____
ROOT
ATOM      1  C   UNL     1       0.464  -3.680  -1.300  0.00  0.00    +0.165 C 
ENDROOT
BRANCH   1   2
ATOM      2  N   UNL     1       1.761  -4.252  -1.670  0.00  0.00    -0.288 N 
ATOM      3  C   UNL     1       2.305  -5.231  -0.920  0.00  0.00    +0.298 C 
ATOM      4  O   UNL     1       1.719  -5.639   0.064  0.00  0.00    -0.253 OA
ATOM      5  N   UNL     1       3.498  -5.757  -1.260  0.00  0.00    -0.313 N 
ATOM      6  H   UNL     1       2.229  -3.926  -2.455  0.00  0.00    +0.151 HD
ATOM      7  H   UNL     1       3.966  -5.431  -2.045  0.00  0.00    +0.146 HD
ATOM      8  H   UNL     1       3.889  -6.462  -0.720  0.00  0.00    +0.146 HD
ENDBRANCH   1   2
BRANCH   1   9
ATOM      9  C   UNL     1      -0.582  -4.764  -1.303  0.00  0.00    +0.238 C 
ATOM     10  O   UNL     1      -0.250  -5.928  -1.223  0.00  0.00    -0.273 OA
ATOM     11  N   UNL     1      -1.887  -4.441  -1.394  0.00  0.00    -0.284 N 
ATOM     12  H   UNL     1      -2.158  -3.510  -1.381  0.00  0.00    +0.155 HD
BRANCH  11  13
ATOM     13  C   UNL     1      -2.853  -5.450  -1.508  0.00  0.00    +0.034 A 
ATOM     14  C   UNL     1      -4.109  -5.276  -0.943  0.00  0.00    +0.024 A 
ATOM     15  C   UNL     1      -5.061  -6.270  -1.056  0.00  0.00    +0.016 A 
ATOM     16  C   UNL     1      -4.761  -7.445  -1.735  0.00  0.00    +0.008 A 
ATOM     17  C   UNL     1      -3.504  -7.618  -2.300  0.00  0.00    +0.016 A 
ATOM     18  C   UNL     1      -2.555  -6.622  -2.192  0.00  0.00    +0.024 A 
BRANCH  16  19
ATOM     19  S   UNL     1      -5.975  -8.714  -1.878  0.00  0.00    -0.122 S 
BRANCH  19  20
ATOM     20  C   UNL     1      -5.139 -10.016  -2.824  0.00  0.00    +0.051 C 
ATOM     21  C   UNL     1      -4.883  -9.539  -4.268  0.00  0.00    +0.014 C 
ATOM     22  C   UNL     1      -5.109 -10.804  -5.133  0.00  0.00    +0.001 C 
ATOM     23  C   UNL     1      -6.305 -11.491  -4.427  0.00  0.00    +0.001 C 
ATOM     24  C   UNL     1      -6.043 -11.257  -2.925  0.00  0.00    +0.014 C 
ENDBRANCH  19  20
ENDBRANCH  16  19
ENDBRANCH  11  13
ENDBRANCH   1   9
BRANCH   1  25
ATOM     25  C   UNL     1       0.558  -3.065   0.098  0.00  0.00    +0.065 C 
BRANCH  25  32
ATOM     26  C   UNL     1      -0.070   1.451  -0.412  0.00  0.00    +0.001 A 
ATOM     27  C   UNL     1       1.119   2.192  -0.374  0.00  0.00    +0.002 A 
ATOM     28  C   UNL     1       2.329   1.620  -0.203  0.00  0.00    +0.026 A 
ATOM     29  C   UNL     1       2.443   0.210  -0.052  0.00  0.00    +0.043 A 
ATOM     30  N   UNL     1       3.483  -0.568   0.123  0.00  0.00    -0.380 N 
ATOM     31  C   UNL     1       3.019  -1.956   0.218  0.00  0.00    +0.144 C 
ATOM     32  C   UNL     1       1.514  -1.901   0.072  0.00  0.00    -0.039 C 
ATOM     33  C   UNL     1       1.201  -0.595  -0.087  0.00  0.00    -0.001 A 
ATOM     34  C   UNL     1      -0.075   0.106  -0.277  0.00  0.00    +0.010 A 
ATOM     35  H   UNL     1       4.406  -0.275   0.180  0.00  0.00    +0.160 HD
ENDBRANCH  25  32
ENDBRANCH   1  25
TORSDOF 7
