REMARK  Name = ZINC01845563
REMARK  6 active torsions:
REMARK  status: ('A' for Active; 'I' for Inactive)
REMARK    1  A    between atoms: C_1  and  C_2
REMARK    2  A    between atoms: C_8  and  N_14
REMARK    3  A    between atoms: C_10  and  S_12
REMARK    4  A    between atoms: S_12  and  C_13
REMARK    5  A    between atoms: N_14  and  C_15
REMARK    6  A    between atoms: C_15  and  C_16
REMARK                            x       y       z     vdW  Elec       q    Type
REMARK                         _______ _______ _______ _____ _____    ______ ____
ROOT
ATOM      1  C   UNL     1       6.528   4.018  -0.036  0.00  0.00    +0.086 C 
ATOM      2  C   UNL     1       5.039   4.251  -0.022  0.00  0.00    +0.106 A 
ATOM      3  N   UNL     1       4.439   5.476  -0.010  0.00  0.00    -0.327 N 
ATOM      4  H   UNL     1       4.902   6.363  -0.009  0.00  0.00    +0.168 HD
ATOM      5  C   UNL     1       3.083   5.270   0.001  0.00  0.00    +0.164 A 
ATOM      6  C   UNL     1       2.903   3.876  -0.005  0.00  0.00    +0.148 A 
ATOM      7  N   UNL     1       4.137   3.314  -0.019  0.00  0.00    -0.228 NA
ATOM      8  C   UNL     1       1.590   3.373   0.005  0.00  0.00    +0.151 A 
ATOM      9  N   UNL     1       0.580   4.235   0.014  0.00  0.00    -0.205 NA
ATOM     10  C   UNL     1       0.795   5.545   0.024  0.00  0.00    +0.192 A 
ATOM     11  N   UNL     1       2.015   6.061   0.015  0.00  0.00    -0.202 NA
ENDROOT
BRANCH  10  12
ATOM     12  S   UNL     1      -0.589   6.635   0.043  0.00  0.00    -0.089 S 
ATOM     13  C   UNL     1       0.267   8.230   0.043  0.00  0.00    +0.093 C 
ENDBRANCH  10  12
BRANCH   8  14
ATOM     14  N   UNL     1       1.356   2.010  -0.000  0.00  0.00    -0.323 N 
ATOM     15  H   UNL     1       1.756   1.606  -0.823  0.00  0.00    +0.148 HD
BRANCH  14  16
ATOM     16  C   UNL     1      -0.018   1.503   0.010  0.00  0.00    +0.138 C 
BRANCH  16  17
ATOM     17  C   UNL     1       0.002  -0.004   0.002  0.00  0.00    -0.030 A 
ATOM     18  C   UNL     1      -0.006  -0.689  -1.199  0.00  0.00    +0.006 A 
ATOM     19  C   UNL     1       0.019  -2.071  -1.207  0.00  0.00    +0.020 A 
ATOM     20  C   UNL     1       0.040  -2.769  -0.013  0.00  0.00    +0.041 A 
ATOM     21  C   UNL     1       0.042  -2.083   1.188  0.00  0.00    +0.020 A 
ATOM     22  C   UNL     1       0.023  -0.701   1.196  0.00  0.00    +0.006 A 
ATOM     23 CL   UNL     1       0.064  -4.505  -0.023  0.00  0.00    -0.084 Cl
ENDBRANCH  16  17
ENDBRANCH  14  16
ENDBRANCH   8  14
TORSDOF 4
