REMARK  Name = ZINC15813395
REMARK  10 active torsions:
REMARK  status: ('A' for Active; 'I' for Inactive)
REMARK    1  A    between atoms: C_1  and  C_2
REMARK    2  A    between atoms: C_5  and  N_9
REMARK    3  A    between atoms: C_7  and  C_8
REMARK    4  A    between atoms: C_10  and  C_29
REMARK    5  A    between atoms: C_13  and  S_14
REMARK    6  A    between atoms: S_14  and  C_15
REMARK    7  A    between atoms: C_15  and  C_17
REMARK    8  A    between atoms: C_15  and  C_18
REMARK    9  A    between atoms: N_20  and  C_21
REMARK   10  A    between atoms: C_22  and  C_26
REMARK                            x       y       z     vdW  Elec       q    Type
REMARK                         _______ _______ _______ _____ _____    ______ ____
ROOT
ATOM      1  N   UNL     1      -3.316   6.827   1.242  0.00  0.00    -0.270 N 
ATOM      2  C   UNL     1      -2.655   8.022   1.060  0.00  0.00    +0.169 A 
ATOM      3  N   UNL     1      -1.490   7.740   0.525  0.00  0.00    -0.128 NA
ATOM      4  N   UNL     1      -1.375   6.470   0.366  0.00  0.00    -0.122 NA
ATOM      5  C   UNL     1      -2.463   5.861   0.782  0.00  0.00    +0.197 A 
ENDROOT
BRANCH   1  10
ATOM      6  C   UNL     1      -8.493   6.071   3.443  0.00  0.00    +0.044 C 
ATOM      7  C   UNL     1      -7.118   6.271   2.859  0.00  0.00    -0.047 A 
ATOM      8  C   UNL     1      -6.100   6.774   3.648  0.00  0.00    +0.005 A 
ATOM      9  C   UNL     1      -4.839   6.959   3.115  0.00  0.00    +0.026 A 
ATOM     10  C   UNL     1      -4.595   6.640   1.786  0.00  0.00    +0.051 A 
ATOM     11  C   UNL     1      -5.620   6.141   0.995  0.00  0.00    +0.030 A 
ATOM     12  C   UNL     1      -6.878   5.953   1.535  0.00  0.00    -0.046 A 
ATOM     13  C   UNL     1      -7.991   5.406   0.678  0.00  0.00    +0.044 C 
ENDBRANCH   1  10
BRANCH   2  14
ATOM     14  C   UNL     1      -3.161   9.368   1.403  0.00  0.00    +0.020 A 
ATOM     15  C   UNL     1      -4.519   9.560   1.667  0.00  0.00    +0.011 A 
ATOM     16  C   UNL     1      -4.984  10.817   1.992  0.00  0.00    +0.001 A 
ATOM     17  C   UNL     1      -4.110  11.889   2.046  0.00  0.00    +0.000 A 
ATOM     18  C   UNL     1      -2.765  11.707   1.780  0.00  0.00    +0.001 A 
ATOM     19  C   UNL     1      -2.285  10.453   1.460  0.00  0.00    +0.011 A 
ENDBRANCH   2  14
BRANCH   5  20
ATOM     20  S   UNL     1      -2.765   4.125   0.759  0.00  0.00    -0.073 S 
BRANCH  20  21
ATOM     21  C   UNL     1      -1.213   3.547   0.027  0.00  0.00    +0.137 C 
ATOM     22  C   UNL     1      -1.101   4.067  -1.408  0.00  0.00    +0.029 C 
BRANCH  21  23
ATOM     23  C   UNL     1      -1.193   2.040   0.019  0.00  0.00    +0.231 C 
ATOM     24  O   UNL     1      -2.235   1.420   0.020  0.00  0.00    -0.274 OA
ATOM     25  N   UNL     1      -0.017   1.382   0.010  0.00  0.00    -0.278 N 
ATOM     26  H   UNL     1       0.817   1.879   0.004  0.00  0.00    +0.155 HD
BRANCH  25  27
ATOM     27  C   UNL     1       0.002  -0.004   0.002  0.00  0.00    +0.084 A 
ATOM     28  C   UNL     1       1.103  -0.853  -0.019  0.00  0.00    +0.065 A 
ATOM     29  C   UNL     1       0.830  -2.270  -0.018  0.00  0.00    +0.022 A 
ATOM     30  C   UNL     1      -0.461  -2.647  -0.008  0.00  0.00    +0.048 A 
ATOM     31  S   UNL     1      -1.340  -1.098   0.008  0.00  0.00    -0.081 S 
BRANCH  28  32
ATOM     32  C   UNL     1       2.474  -0.333  -0.037  0.00  0.00    +0.244 C 
ATOM     33  O   UNL     1       2.670   0.868  -0.034  0.00  0.00    -0.270 OA
ATOM     34  N   UNL     1       3.517  -1.186  -0.057  0.00  0.00    -0.325 N 
ATOM     35  H   UNL     1       3.361  -2.143  -0.059  0.00  0.00    +0.145 HD
ATOM     36  H   UNL     1       4.424  -0.843  -0.068  0.00  0.00    +0.145 HD
ENDBRANCH  28  32
ENDBRANCH  25  27
ENDBRANCH  21  23
ENDBRANCH  20  21
ENDBRANCH   5  20
TORSDOF 7
