REMARK  Name = ZINC20866693
REMARK  10 active torsions:
REMARK  status: ('A' for Active; 'I' for Inactive)
REMARK    1  A    between atoms: C_1  and  C_2
REMARK    2  A    between atoms: N_6  and  C_32
REMARK    3  A    between atoms: C_10  and  C_31
REMARK    4  A    between atoms: N_11  and  C_12
REMARK    5  A    between atoms: C_12  and  C_13
REMARK    6  A    between atoms: N_15  and  C_16
REMARK    7  A    between atoms: C_16  and  C_17
REMARK    8  A    between atoms: C_17  and  N_18
REMARK    9  A    between atoms: C_21  and  C_24
REMARK   10  A    between atoms: C_24  and  C_25
REMARK                            x       y       z     vdW  Elec       q    Type
REMARK                         _______ _______ _______ _____ _____    ______ ____
ROOT
ATOM      1  C   UNL     1       0.565  -0.087   0.358  0.00  0.00    +0.233 C 
ATOM      2  O   UNL     1       1.533  -0.798   0.530  0.00  0.00    -0.274 OA
ATOM      3  N   UNL     1       0.692   1.252   0.431  0.00  0.00    -0.316 N 
ATOM      4  H   UNL     1      -0.186   1.897   0.275  0.00  0.00    +0.149 HD
ENDROOT
BRANCH   1   5
ATOM      5  C   UNL     1      -0.778  -0.703   0.061  0.00  0.00    +0.217 C 
BRANCH   5  16
ATOM      6  C   UNL     1      -1.138  -2.517   2.517  0.00  0.00    +0.064 C 
ATOM      7  C   UNL     1      -0.810  -2.972   1.118  0.00  0.00    +0.026 A 
ATOM      8  C   UNL     1      -0.623  -4.256   0.726  0.00  0.00    +0.028 A 
ATOM      9  C   UNL     1      -0.649  -5.572   1.368  0.00  0.00    +0.143 A 
ATOM     10  N   UNL     1      -0.415  -6.637   0.664  0.00  0.00    -0.171 NA
ATOM     11  N   UNL     1      -0.133  -6.613  -0.700  0.00  0.00    -0.196 N 
ATOM     12  C   UNL     1      -0.080  -5.469  -1.412  0.00  0.00    +0.281 A 
ATOM     13  O   UNL     1       0.169  -5.490  -2.604  0.00  0.00    -0.265 OA
ATOM     14  C   UNL     1      -0.327  -4.200  -0.724  0.00  0.00    +0.071 A 
ATOM     15  C   UNL     1      -0.369  -2.888  -1.067  0.00  0.00    +0.029 A 
ATOM     16  N   UNL     1      -0.652  -2.162   0.035  0.00  0.00    -0.338 N 
ATOM     17  C   UNL     1      -0.135  -2.333  -2.449  0.00  0.00    +0.064 C 
BRANCH  11  18
ATOM     18  C   UNL     1       0.103  -7.825  -1.357  0.00  0.00    +0.069 A 
ATOM     19  C   UNL     1      -0.558  -8.113  -2.545  0.00  0.00    +0.028 A 
ATOM     20  C   UNL     1      -0.318  -9.307  -3.195  0.00  0.00    +0.002 A 
ATOM     21  C   UNL     1       0.570 -10.222  -2.658  0.00  0.00    +0.000 A 
ATOM     22  C   UNL     1       1.224  -9.941  -1.473  0.00  0.00    +0.002 A 
ATOM     23  C   UNL     1       0.994  -8.746  -0.821  0.00  0.00    +0.028 A 
ENDBRANCH  11  18
ENDBRANCH   5  16
ENDBRANCH   1   5
BRANCH   3  24
ATOM     24  C   UNL     1       1.997   1.850   0.720  0.00  0.00    +0.086 C 
BRANCH  24  25
ATOM     25  C   UNL     1       1.866   3.374   0.747  0.00  0.00    -0.060 C 
BRANCH  25  26
ATOM     26  N   UNL     1       3.175   3.974   1.037  0.00  0.00    +0.381 N 
ATOM     27  C   UNL     1       3.622   3.632   2.393  0.00  0.00    -0.078 C 
ATOM     28  C   UNL     1       5.047   4.149   2.607  0.00  0.00    -0.015 C 
ATOM     29  C   UNL     1       5.069   5.667   2.409  0.00  0.00    -0.010 C 
ATOM     30  C   UNL     1       4.553   5.999   1.006  0.00  0.00    -0.015 C 
ATOM     31  C   UNL     1       3.143   5.429   0.839  0.00  0.00    -0.078 C 
ATOM     32  H   UNL     1       3.905   3.555   0.328  0.00  0.00    -0.082 HD
BRANCH  29  33
ATOM     33  C   UNL     1       6.501   6.183   2.563  0.00  0.00    +0.038 C 
BRANCH  33  34
ATOM     34  C   UNL     1       6.964   5.966   3.980  0.00  0.00    -0.047 A 
ATOM     35  C   UNL     1       6.761   6.948   4.932  0.00  0.00    +0.003 A 
ATOM     36  C   UNL     1       7.182   6.747   6.233  0.00  0.00    +0.000 A 
ATOM     37  C   UNL     1       7.815   5.568   6.581  0.00  0.00    +0.000 A 
ATOM     38  C   UNL     1       8.023   4.588   5.628  0.00  0.00    +0.000 A 
ATOM     39  C   UNL     1       7.598   4.787   4.328  0.00  0.00    +0.003 A 
ENDBRANCH  33  34
ENDBRANCH  29  33
ENDBRANCH  25  26
ENDBRANCH  24  25
ENDBRANCH   3  24
TORSDOF 8
