REMARK  Name = ZINC27558386
REMARK  17 active torsions:
REMARK  status: ('A' for Active; 'I' for Inactive)
REMARK    1  A    between atoms: C_1  and  C_2
REMARK    2  A    between atoms: C_2  and  N_3
REMARK    3  A    between atoms: N_3  and  C_4
REMARK    4  A    between atoms: N_3  and  S_6
REMARK    5  A    between atoms: C_4  and  C_5
REMARK    6  A    between atoms: S_6  and  C_9
REMARK    7  A    between atoms: C_12  and  O_31
REMARK    8  A    between atoms: C_13  and  N_15
REMARK    9  A    between atoms: C_16  and  C_18
REMARK   10  A    between atoms: C_18  and  N_19
REMARK   11  A    between atoms: N_19  and  C_20
REMARK   12  A    between atoms: N_19  and  C_21
REMARK   13  A    between atoms: C_21  and  C_23
REMARK   14  A    between atoms: C_21  and  C_24
REMARK   15  A    between atoms: O_31  and  C_32
REMARK   16  A    between atoms: C_32  and  C_33
REMARK   17  A    between atoms: C_32  and  C_34
REMARK                            x       y       z     vdW  Elec       q    Type
REMARK                         _______ _______ _______ _____ _____    ______ ____
ROOT
ATOM      1  C   UNL     1      -1.385   3.338  -0.087  0.00  0.00    +0.107 A 
ATOM      2  C   UNL     1      -1.477   1.965   0.040  0.00  0.00    +0.032 A 
ATOM      3  C   UNL     1      -0.332   1.197   0.144  0.00  0.00    +0.049 A 
ATOM      4  C   UNL     1       0.913   1.803   0.110  0.00  0.00    +0.142 A 
ATOM      5  C   UNL     1       1.008   3.187  -0.024  0.00  0.00    +0.077 A 
ATOM      6  C   UNL     1      -0.146   3.950  -0.122  0.00  0.00    +0.055 A 
ENDROOT
BRANCH   5   7
ATOM      7  N   UNL     1       2.265   3.805  -0.059  0.00  0.00    -0.284 N 
ATOM      8  C   UNL     1       2.431   5.026   0.487  0.00  0.00    +0.201 C 
ATOM      9  O   UNL     1       1.478   5.621   0.943  0.00  0.00    -0.278 OA
ATOM     10  H   UNL     1       3.116   3.293  -0.533  0.00  0.00    +0.155 HD
BRANCH   8  11
ATOM     11  C   UNL     1       3.801   5.651   0.530  0.00  0.00    +0.019 C 
BRANCH  11  12
ATOM     12  N   UNL     1       3.717   6.971   1.169  0.00  0.00    +0.388 N 
ATOM     13  C   UNL     1       2.933   7.904   0.349  0.00  0.00    -0.095 C 
ATOM     14  H   UNL     1       3.197   6.849   2.131  0.00  0.00    -0.081 HD
BRANCH  12  15
ATOM     15  C   UNL     1       5.055   7.510   1.445  0.00  0.00    -0.041 C 
ATOM     16  C   UNL     1       5.805   6.559   2.380  0.00  0.00    -0.008 C 
BRANCH  15  17
ATOM     17  C   UNL     1       4.928   8.862   2.098  0.00  0.00    -0.061 A 
ATOM     18  C   UNL     1       3.945   9.082   3.045  0.00  0.00    +0.005 A 
ATOM     19  C   UNL     1       3.831  10.319   3.649  0.00  0.00    +0.038 A 
ATOM     20  C   UNL     1       4.695  11.342   3.298  0.00  0.00    +0.123 A 
ATOM     21  C   UNL     1       5.676  11.123   2.346  0.00  0.00    +0.038 A 
ATOM     22  C   UNL     1       5.792   9.883   1.747  0.00  0.00    +0.005 A 
ATOM     23  F   UNL     1       4.581  12.555   3.883  0.00  0.00    -0.205 F 
ENDBRANCH  15  17
ENDBRANCH  12  15
ENDBRANCH  11  12
ENDBRANCH   8  11
ENDBRANCH   5   7
BRANCH   1  24
ATOM     24  S   UNL     1      -2.849   4.310  -0.211  0.00  0.00    +0.061 S 
ATOM     25  O   UNL     1      -3.889   3.556   0.396  0.00  0.00    -0.153 OA
ATOM     26  O   UNL     1      -2.505   5.620   0.222  0.00  0.00    -0.153 OA
BRANCH  24  27
ATOM     27  N   UNL     1      -3.224   4.427  -1.819  0.00  0.00    -0.177 NA
BRANCH  27  29
ATOM     28  C   UNL     1      -5.538   3.938  -2.443  0.00  0.00    +0.022 C 
ATOM     29  C   UNL     1      -4.096   3.428  -2.442  0.00  0.00    +0.106 C 
ENDBRANCH  27  29
BRANCH  27  30
ATOM     30  C   UNL     1      -2.686   5.530  -2.619  0.00  0.00    +0.106 C 
ATOM     31  C   UNL     1      -1.408   5.071  -3.325  0.00  0.00    +0.022 C 
ENDBRANCH  27  30
ENDBRANCH  24  27
ENDBRANCH   1  24
BRANCH   4  32
ATOM     32  O   UNL     1       2.041   1.049   0.205  0.00  0.00    -0.488 OA
BRANCH  32  33
ATOM     33  C   UNL     1       1.868  -0.350   0.435  0.00  0.00    +0.167 C 
ATOM     34  C   UNL     1       3.101  -1.106  -0.064  0.00  0.00    +0.051 C 
ATOM     35  C   UNL     1       1.687  -0.603   1.934  0.00  0.00    +0.051 C 
ENDBRANCH  32  33
ENDBRANCH   4  32
TORSDOF 11
