REMARK  Name = ZINC36205587
REMARK  13 active torsions:
REMARK  status: ('A' for Active; 'I' for Inactive)
REMARK    1  A    between atoms: C_1  and  C_2
REMARK    2  A    between atoms: C_5  and  C_8
REMARK    3  A    between atoms: C_17  and  C_19
REMARK    4  A    between atoms: C_19  and  N_20
REMARK    5  A    between atoms: N_20  and  C_21
REMARK    6  A    between atoms: N_20  and  C_25
REMARK    7  A    between atoms: C_21  and  C_22
REMARK    8  A    between atoms: C_22  and  O_23
REMARK    9  A    between atoms: O_23  and  C_24
REMARK   10  A    between atoms: C_25  and  C_26
REMARK   11  A    between atoms: C_26  and  C_28
REMARK   12  A    between atoms: C_26  and  O_35
REMARK   13  A    between atoms: C_28  and  C_29
REMARK                            x       y       z     vdW  Elec       q    Type
REMARK                         _______ _______ _______ _____ _____    ______ ____
ROOT
ATOM      1  C   UNL     1       8.857  -6.760   0.906  0.00  0.00    +0.004 A 
ATOM      2  C   UNL     1       9.306  -7.791   0.150  0.00  0.00    +0.056 A 
ATOM      3  S   UNL     1       7.946  -8.942   0.173  0.00  0.00    -0.076 S 
ATOM      4  C   UNL     1       6.817  -8.022   1.186  0.00  0.00    +0.116 A 
ATOM      5  C   UNL     1       7.523  -6.846   1.488  0.00  0.00    +0.080 A 
ATOM      6  C   UNL     1       6.833  -5.904   2.316  0.00  0.00    +0.260 A 
ATOM      7  O   UNL     1       7.363  -4.851   2.629  0.00  0.00    -0.267 OA
ATOM      8  N   UNL     1       5.592  -6.198   2.744  0.00  0.00    -0.312 N 
ATOM      9  H   UNL     1       5.120  -5.563   3.305  0.00  0.00    +0.170 HD
ATOM     10  C   UNL     1       4.987  -7.365   2.405  0.00  0.00    +0.094 A 
ATOM     11  N   UNL     1       5.586  -8.240   1.642  0.00  0.00    -0.229 NA
ENDROOT
BRANCH   1  16
ATOM     12  C   UNL     1      12.163  -2.134   1.818  0.00  0.00    +0.044 C 
ATOM     13  C   UNL     1      11.298  -3.345   1.579  0.00  0.00    -0.050 A 
ATOM     14  C   UNL     1      11.813  -4.612   1.789  0.00  0.00    +0.004 A 
ATOM     15  C   UNL     1      11.025  -5.724   1.572  0.00  0.00    +0.009 A 
ATOM     16  C   UNL     1       9.708  -5.569   1.141  0.00  0.00    -0.017 A 
ATOM     17  C   UNL     1       9.195  -4.290   0.932  0.00  0.00    +0.009 A 
ATOM     18  C   UNL     1       9.991  -3.185   1.157  0.00  0.00    +0.004 A 
ENDBRANCH   1  16
BRANCH  10  19
ATOM     19  C   UNL     1       3.595  -7.651   2.907  0.00  0.00    -0.003 C 
BRANCH  19  20
ATOM     20  N   UNL     1       3.202  -9.011   2.513  0.00  0.00    +0.388 N 
ATOM     21  H   UNL     1       3.323  -9.120   1.517  0.00  0.00    -0.081 HD
BRANCH  20  22
ATOM     22  C   UNL     1       1.793  -9.234   2.863  0.00  0.00    -0.050 C 
BRANCH  22  23
ATOM     23  C   UNL     1       0.906  -8.319   2.015  0.00  0.00    +0.141 C 
BRANCH  23  24
ATOM     24  O   UNL     1       1.027  -8.680   0.638  0.00  0.00    -0.385 OA
ATOM     25  C   UNL     1       0.284  -7.843  -0.250  0.00  0.00    +0.193 C 
ENDBRANCH  23  24
ENDBRANCH  22  23
ENDBRANCH  20  22
BRANCH  20  26
ATOM     26  C   UNL     1       4.042  -9.987   3.219  0.00  0.00    -0.046 C 
BRANCH  26  27
ATOM     27  C   UNL     1       3.719 -11.396   2.717  0.00  0.00    +0.102 C 
BRANCH  27  28
ATOM     28  O   UNL     1       4.085 -11.507   1.340  0.00  0.00    -0.393 OA
ATOM     29  H   UNL     1       5.025 -11.351   1.169  0.00  0.00    +0.210 HD
ENDBRANCH  27  28
BRANCH  27  30
ATOM     30  C   UNL     1       4.502 -12.422   3.538  0.00  0.00    +0.064 C 
BRANCH  30  31
ATOM     31  C   UNL     1       4.092 -13.812   3.127  0.00  0.00    -0.045 A 
ATOM     32  C   UNL     1       3.039 -14.440   3.766  0.00  0.00    +0.004 A 
ATOM     33  C   UNL     1       2.663 -15.716   3.389  0.00  0.00    +0.000 A 
ATOM     34  C   UNL     1       3.339 -16.363   2.372  0.00  0.00    +0.000 A 
ATOM     35  C   UNL     1       4.391 -15.736   1.732  0.00  0.00    +0.000 A 
ATOM     36  C   UNL     1       4.765 -14.458   2.106  0.00  0.00    +0.004 A 
ENDBRANCH  30  31
ENDBRANCH  27  30
ENDBRANCH  26  27
ENDBRANCH  20  26
ENDBRANCH  19  20
ENDBRANCH  10  19
TORSDOF 11
