REMARK  Name = ZINC12864968
REMARK  7 active torsions:
REMARK  status: ('A' for Active; 'I' for Inactive)
REMARK    1  A    between atoms: C_1  and  C_2
REMARK    2  A    between atoms: C_9  and  C_11
REMARK    3  A    between atoms: C_14  and  S_16
REMARK    4  A    between atoms: S_16  and  C_17
REMARK    5  A    between atoms: C_17  and  C_18
REMARK    6  A    between atoms: N_20  and  C_21
REMARK    7  A    between atoms: C_22  and  C_29
REMARK                            x       y       z     vdW  Elec       q    Type
REMARK                         _______ _______ _______ _____ _____    ______ ____
ROOT
ATOM      1  C   UNL     1       0.654   2.766   9.630  0.00  0.00    +0.175 C 
ENDROOT
BRANCH   1   2
ATOM      2  C   UNL     1       0.485   3.113  11.087  0.00  0.00    +0.228 C 
ATOM      3  O   UNL     1      -0.572   3.553  11.487  0.00  0.00    -0.275 OA
ATOM      4  N   UNL     1       1.508   2.933  11.946  0.00  0.00    -0.279 N 
ATOM      5  H   UNL     1       2.353   2.580  11.626  0.00  0.00    +0.155 HD
BRANCH   4   6
ATOM      6  C   UNL     1       1.353   3.251  13.286  0.00  0.00    +0.084 A 
ATOM      7  C   UNL     1       2.276   3.132  14.311  0.00  0.00    +0.068 A 
ATOM      8  C   UNL     1       1.858   3.547  15.650  0.00  0.00    -0.023 A 
ATOM      9  C   UNL     1       0.594   3.997  15.740  0.00  0.00    -0.004 A 
ATOM     10  S   UNL     1      -0.044   3.887  14.086  0.00  0.00    -0.077 S 
ATOM     11  C   UNL     1       0.237   4.401  17.145  0.00  0.00    +0.043 C 
ATOM     12  C   UNL     1       1.596   4.549  17.864  0.00  0.00    +0.010 C 
ATOM     13  C   UNL     1       2.492   3.603  17.040  0.00  0.00    +0.037 C 
BRANCH   7  14
ATOM     14  C   UNL     1       3.625   2.614  14.063  0.00  0.00    +0.244 C 
ATOM     15  O   UNL     1       4.525   3.378  13.767  0.00  0.00    -0.270 OA
ATOM     16  N   UNL     1       3.867   1.292  14.162  0.00  0.00    -0.325 N 
ATOM     17  H   UNL     1       3.150   0.684  14.398  0.00  0.00    +0.145 HD
ATOM     18  H   UNL     1       4.760   0.949  13.998  0.00  0.00    +0.145 HD
ENDBRANCH   7  14
ENDBRANCH   4   6
ENDBRANCH   1   2
BRANCH   1  19
ATOM     19  S   UNL     1      -0.885   3.117   8.745  0.00  0.00    -0.056 S 
BRANCH  19  23
ATOM     20  C   UNL     1      -0.438   2.221   4.995  0.00  0.00    +0.256 A 
ATOM     21  N   UNL     1       0.739   1.911   5.490  0.00  0.00    -0.106 NA
ATOM     22  N   UNL     1       0.751   2.162   6.752  0.00  0.00    -0.101 NA
ATOM     23  C   UNL     1      -0.418   2.635   7.116  0.00  0.00    +0.278 A 
ATOM     24  O   UNL     1      -1.195   2.683   6.016  0.00  0.00    -0.410 OA
BRANCH  20  32
ATOM     25  C   UNL     1      -0.149   0.967  -2.482  0.00  0.00    +0.008 C 
ATOM     26  C   UNL     1      -0.758   1.595  -1.226  0.00  0.00    -0.009 C 
ATOM     27  C   UNL     1      -2.239   1.218  -1.137  0.00  0.00    +0.009 C 
ATOM     28  C   UNL     1      -2.897   2.062  -0.035  0.00  0.00    +0.043 C 
ATOM     29  C   UNL     1      -2.029   2.007   1.181  0.00  0.00    -0.006 A 
ATOM     30  C   UNL     1      -0.733   1.581   1.260  0.00  0.00    -0.036 A 
ATOM     31  C   UNL     1      -0.136   1.624   2.510  0.00  0.00    +0.024 A 
ATOM     32  C   UNL     1      -0.856   2.085   3.592  0.00  0.00    +0.076 A 
ATOM     33  S   UNL     1      -2.430   2.475   2.843  0.00  0.00    -0.088 S 
ATOM     34  C   UNL     1      -0.013   1.086   0.008  0.00  0.00    +0.039 C 
ENDBRANCH  20  32
ENDBRANCH  19  23
ENDBRANCH   1  19
TORSDOF 6
