REMARK  Name = ZINC36390287
REMARK  11 active torsions:
REMARK  status: ('A' for Active; 'I' for Inactive)
REMARK    1  A    between atoms: C_1  and  C_2
REMARK    2  A    between atoms: N_8  and  C_9
REMARK    3  A    between atoms: C_9  and  C_10
REMARK    4  A    between atoms: C_10  and  N_11
REMARK    5  A    between atoms: C_12  and  C_14
REMARK    6  A    between atoms: C_14  and  C_16
REMARK    7  A    between atoms: C_14  and  N_19
REMARK    8  A    between atoms: C_16  and  C_17
REMARK    9  A    between atoms: C_16  and  C_18
REMARK   10  A    between atoms: N_19  and  S_20
REMARK   11  A    between atoms: S_20  and  C_23
REMARK                            x       y       z     vdW  Elec       q    Type
REMARK                         _______ _______ _______ _____ _____    ______ ____
ROOT
ATOM      1  C   UNL     1       6.504   0.642   3.547  0.00  0.00    +0.165 C 
ENDROOT
BRANCH   1   3
ATOM      2  N   UNL     1       4.232   0.424   2.594  0.00  0.00    -0.316 N 
ATOM      3  C   UNL     1       5.038   0.314   3.668  0.00  0.00    +0.232 C 
ATOM      4  O   UNL     1       4.584  -0.050   4.732  0.00  0.00    -0.274 OA
ATOM      5  H   UNL     1       4.579   0.783   1.762  0.00  0.00    +0.149 HD
BRANCH   2   6
ATOM      6  C   UNL     1       2.832   0.002   2.682  0.00  0.00    +0.086 C 
BRANCH   6   7
ATOM      7  C   UNL     1       2.144   0.232   1.335  0.00  0.00    -0.059 C 
BRANCH   7  14
ATOM      8  C   UNL     1       0.186   1.638  -0.105  0.00  0.00    -0.013 C 
ATOM      9  C   UNL     1       0.051   0.140   0.171  0.00  0.00    -0.072 C 
ATOM     10  C   UNL     1      -1.431  -0.225   0.288  0.00  0.00    -0.016 C 
ATOM     11  C   UNL     1      -1.562  -1.726   0.564  0.00  0.00    -0.003 C 
ATOM     12  C   UNL     1      -0.776  -2.072   1.832  0.00  0.00    -0.019 C 
ATOM     13  C   UNL     1       0.681  -1.639   1.657  0.00  0.00    -0.078 C 
ATOM     14  N   UNL     1       0.740  -0.191   1.424  0.00  0.00    +0.382 N 
ATOM     15  H   UNL     1       0.293   0.291   2.189  0.00  0.00    -0.081 HD
ENDBRANCH   7  14
ENDBRANCH   6   7
ENDBRANCH   2   6
ENDBRANCH   1   3
BRANCH   1  16
ATOM     16  C   UNL     1       6.693   2.159   3.606  0.00  0.00    +0.010 C 
ATOM     17  C   UNL     1       6.172   2.687   4.944  0.00  0.00    +0.009 C 
ATOM     18  C   UNL     1       8.180   2.493   3.469  0.00  0.00    +0.009 C 
ENDBRANCH   1  16
BRANCH   1  19
ATOM     19  N   UNL     1       7.237   0.016   4.650  0.00  0.00    -0.178 NA
ATOM     20  H   UNL     1       7.296   0.463   5.509  0.00  0.00    +0.149 HD
BRANCH  19  21
ATOM     21  S   UNL     1       7.966  -1.455   4.430  0.00  0.00    +0.059 S 
ATOM     22  O   UNL     1       8.660  -1.749   5.635  0.00  0.00    -0.153 OA
ATOM     23  O   UNL     1       6.977  -2.321   3.890  0.00  0.00    -0.153 OA
BRANCH  21  24
ATOM     24  C   UNL     1       9.191  -1.248   3.181  0.00  0.00    +0.105 A 
ATOM     25  C   UNL     1       8.847  -1.378   1.848  0.00  0.00    +0.029 A 
ATOM     26  C   UNL     1       9.808  -1.216   0.868  0.00  0.00    +0.017 A 
ATOM     27  C   UNL     1      11.113  -0.922   1.220  0.00  0.00    +0.018 A 
ATOM     28  C   UNL     1      11.456  -0.792   2.554  0.00  0.00    +0.017 A 
ATOM     29  C   UNL     1      10.494  -0.950   3.533  0.00  0.00    +0.029 A 
ATOM     30 BR   UNL     1      12.428  -0.700  -0.121  0.00  0.00    -0.050 Br
ENDBRANCH  21  24
ENDBRANCH  19  21
ENDBRANCH   1  19
TORSDOF 8
