REMARK  Name = ZINC38581871
REMARK  3 active torsions:
REMARK  status: ('A' for Active; 'I' for Inactive)
REMARK    1  A    between atoms: C_1  and  C_2
REMARK    2  A    between atoms: C_4  and  C_25
REMARK    3  A    between atoms: C_30  and  C_31
REMARK                            x       y       z     vdW  Elec       q    Type
REMARK                         _______ _______ _______ _____ _____    ______ ____
ROOT
ATOM      1  C   UNL     1      -0.006   2.152   0.188  0.00  0.00    +0.062 C 
ATOM      2  C   UNL     1       0.344   0.687   0.189  0.00  0.00    +0.023 C 
ATOM      3  C   UNL     1      -0.536  -0.281   0.225  0.00  0.00    +0.005 C 
ATOM      4  C   UNL     1      -2.049  -0.162   0.330  0.00  0.00    +0.108 C 
ATOM      5  S   UNL     1      -2.765  -1.651  -0.442  0.00  0.00    -0.139 S 
ATOM      6  C   UNL     1      -2.536  -2.961   0.779  0.00  0.00    +0.165 C 
ATOM      7  C   UNL     1      -1.332  -2.887   1.605  0.00  0.00    +0.225 C 
ATOM      8  O   UNL     1      -1.438  -3.416   2.691  0.00  0.00    -0.275 OA
ATOM      9  N   UNL     1      -0.155  -2.347   1.378  0.00  0.00    -0.291 N 
ATOM     10  C   UNL     1       0.206  -1.594   0.184  0.00  0.00    +0.210 C 
ATOM     11  N   UNL     1       1.625  -1.209   0.215  0.00  0.00    -0.213 N 
ATOM     12  N   UNL     1       1.637   0.194   0.147  0.00  0.00    -0.265 N 
ATOM     13  C   UNL     1       2.692  -2.031   0.287  0.00  0.00    +0.150 C 
ATOM     14  N   UNL     1       2.544  -3.343   0.334  0.00  0.00    -0.221 NA
ATOM     15  C   UNL     1       3.554  -4.197   0.470  0.00  0.00    +0.225 C 
ATOM     16  N   UNL     1       4.756  -3.817   0.887  0.00  0.00    -0.218 NA
ATOM     17  C   UNL     1       4.916  -2.514   1.097  0.00  0.00    +0.164 C 
ATOM     18  N   UNL     1       5.630  -1.807   1.920  0.00  0.00    -0.219 NA
ATOM     19  C   UNL     1       5.183  -0.546   1.994  0.00  0.00    +0.218 C 
ATOM     20  N   UNL     1       4.258  -0.278   1.115  0.00  0.00    -0.253 NA
ATOM     21  C   UNL     1       4.096  -1.490   0.309  0.00  0.00    +0.239 C 
ATOM     22  H   UNL     1       0.526  -2.460   2.058  0.00  0.00    +0.151 HD
ATOM     23  H   UNL     1       2.437   0.739   0.084  0.00  0.00    +0.170 HD
ENDROOT
BRANCH   4  24
ATOM     24  C   UNL     1      -2.518   1.071  -0.399  0.00  0.00    -0.019 A 
ATOM     25  C   UNL     1      -2.429   1.135  -1.778  0.00  0.00    +0.005 A 
ATOM     26  C   UNL     1      -2.859   2.265  -2.446  0.00  0.00    +0.000 A 
ATOM     27  C   UNL     1      -3.379   3.332  -1.737  0.00  0.00    +0.001 A 
ATOM     28  C   UNL     1      -3.469   3.268  -0.359  0.00  0.00    +0.013 A 
ATOM     29  C   UNL     1      -3.043   2.135   0.309  0.00  0.00    +0.059 A 
BRANCH  29  30
ATOM     30  C   UNL     1      -3.146   2.063   1.811  0.00  0.00    +0.418 C 
ATOM     31  F   UNL     1      -3.573   3.298   2.309  0.00  0.00    -0.166 F 
ATOM     32  F   UNL     1      -4.066   1.072   2.168  0.00  0.00    -0.166 F 
ATOM     33  F   UNL     1      -1.893   1.751   2.350  0.00  0.00    -0.166 F 
ENDBRANCH  29  30
ENDBRANCH   4  24
TORSDOF 2
