REMARK  Name = ZINC11509784
REMARK  8 active torsions:
REMARK  status: ('A' for Active; 'I' for Inactive)
REMARK    1  A    between atoms: C_4  and  N_7
REMARK    2  A    between atoms: C_16  and  C_18
REMARK    3  A    between atoms: N_20  and  N_21
REMARK    4  A    between atoms: N_21  and  C_22
REMARK    5  A    between atoms: C_22  and  N_24
REMARK    6  A    between atoms: N_24  and  C_25
REMARK    7  A    between atoms: C_25  and  C_26
REMARK    8  A    between atoms: C_26  and  C_27
REMARK                            x       y       z     vdW  Elec       q    Type
REMARK                         _______ _______ _______ _____ _____    ______ ____
ROOT
ATOM      1  N   UNL     1       8.892  -0.997   2.085  0.00  0.00    -0.196 N 
ATOM      2  C   UNL     1      10.007  -1.744   2.216  0.00  0.00    +0.280 A 
ATOM      3  O   UNL     1      10.345  -2.173   3.305  0.00  0.00    -0.265 OA
ATOM      4  C   UNL     1      10.804  -2.030   1.016  0.00  0.00    +0.051 A 
ATOM      5  C   UNL     1      11.970  -2.789   1.046  0.00  0.00    +0.014 A 
ATOM      6  C   UNL     1      12.662  -3.011  -0.126  0.00  0.00    +0.001 A 
ATOM      7  C   UNL     1      12.208  -2.486  -1.328  0.00  0.00    +0.001 A 
ATOM      8  C   UNL     1      11.056  -1.730  -1.379  0.00  0.00    +0.011 A 
ATOM      9  C   UNL     1      10.342  -1.494  -0.209  0.00  0.00    +0.020 A 
ATOM     10  C   UNL     1       9.105  -0.699  -0.176  0.00  0.00    +0.155 A 
ATOM     11  N   UNL     1       8.492  -0.516   0.969  0.00  0.00    -0.158 NA
ENDROOT
BRANCH   1  15
ATOM     12  C   UNL     1       6.640  -0.198   5.497  0.00  0.00    +0.000 A 
ATOM     13  C   UNL     1       6.988   0.833   4.644  0.00  0.00    +0.002 A 
ATOM     14  C   UNL     1       7.735   0.571   3.512  0.00  0.00    +0.028 A 
ATOM     15  C   UNL     1       8.136  -0.729   3.231  0.00  0.00    +0.069 A 
ATOM     16  C   UNL     1       7.779  -1.763   4.087  0.00  0.00    +0.028 A 
ATOM     17  C   UNL     1       7.037  -1.494   5.221  0.00  0.00    +0.002 A 
ENDBRANCH   1  15
BRANCH  10  18
ATOM     18  C   UNL     1       8.563  -0.108  -1.416  0.00  0.00    +0.281 C 
ATOM     19  O   UNL     1       9.140  -0.278  -2.473  0.00  0.00    -0.267 OA
ATOM     20  N   UNL     1       7.429   0.619  -1.377  0.00  0.00    -0.230 N 
ATOM     21  H   UNL     1       6.968   0.754  -0.534  0.00  0.00    +0.173 HD
BRANCH  20  22
ATOM     22  N   UNL     1       6.915   1.179  -2.554  0.00  0.00    -0.246 N 
ATOM     23  H   UNL     1       7.375   1.043  -3.397  0.00  0.00    +0.172 HD
BRANCH  22  24
ATOM     24  C   UNL     1       5.780   1.906  -2.514  0.00  0.00    +0.147 C 
ATOM     25  S   UNL     1       5.152   2.590  -3.952  0.00  0.00    -0.017 S 
BRANCH  24  26
ATOM     26  N   UNL     1       5.141   2.094  -1.343  0.00  0.00    -0.325 N 
ATOM     27  H   UNL     1       5.497   1.706  -0.528  0.00  0.00    +0.148 HD
BRANCH  26  28
ATOM     28  C   UNL     1       3.908   2.884  -1.300  0.00  0.00    +0.108 C 
BRANCH  28  29
ATOM     29  C   UNL     1       3.389   2.943   0.138  0.00  0.00    +0.061 C 
BRANCH  29  30
ATOM     30  C   UNL     1       2.121   3.756   0.182  0.00  0.00    -0.009 A 
ATOM     31  C   UNL     1       0.838   3.344   0.038  0.00  0.00    +0.011 A 
ATOM     32  C   UNL     1      -0.178   4.278   0.111  0.00  0.00    +0.008 A 
ATOM     33  C   UNL     1       0.138   5.577   0.335  0.00  0.00    +0.045 A 
ATOM     34  S   UNL     1       1.919   5.511   0.437  0.00  0.00    -0.102 S 
ENDBRANCH  29  30
ENDBRANCH  28  29
ENDBRANCH  26  28
ENDBRANCH  24  26
ENDBRANCH  22  24
ENDBRANCH  20  22
ENDBRANCH  10  18
TORSDOF 8
