REMARK  Name = ZINC39638959
REMARK  5 active torsions:
REMARK  status: ('A' for Active; 'I' for Inactive)
REMARK    1  A    between atoms: C_5  and  C_7
REMARK    2  A    between atoms: C_7  and  C_8
REMARK    3  A    between atoms: C_8  and  N_9
REMARK    4  A    between atoms: C_10  and  C_12
REMARK    5  A    between atoms: C_23  and  C_25
REMARK                            x       y       z     vdW  Elec       q    Type
REMARK                         _______ _______ _______ _____ _____    ______ ____
ROOT
ATOM      1  C   UNL     1       1.536  -6.353   2.551  0.00  0.00    +0.100 C 
ATOM      2  C   UNL     1       0.155  -6.907   2.137  0.00  0.00    +0.121 C 
ATOM      3  N   UNL     1      -0.033  -8.113   2.978  0.00  0.00    -0.297 N 
ATOM      4  C   UNL     1       0.515  -7.729   4.301  0.00  0.00    +0.115 C 
ATOM      5  C   UNL     1       1.769  -6.894   3.972  0.00  0.00    -0.004 C 
ATOM      6  C   UNL     1       3.013  -7.776   4.004  0.00  0.00    -0.010 C 
ATOM      7  C   UNL     1       3.256  -8.256   5.438  0.00  0.00    -0.082 C 
ATOM      8  N   UNL     1       3.430  -7.096   6.321  0.00  0.00    +0.379 N 
ATOM      9  C   UNL     1       2.196  -6.303   6.356  0.00  0.00    -0.082 C 
ATOM     10  C   UNL     1       1.908  -5.741   4.961  0.00  0.00    -0.010 C 
ATOM     11  C   UNL     1      -0.578  -9.293   2.621  0.00  0.00    +0.260 C 
ATOM     12  O   UNL     1      -0.662 -10.192   3.431  0.00  0.00    -0.271 OA
ATOM     13  H   UNL     1       3.650  -7.414   7.253  0.00  0.00    -0.086 HD
ATOM     14  H   UNL     1       4.187  -6.524   5.977  0.00  0.00    -0.086 HD
ENDROOT
BRANCH  11  15
ATOM     15  C   UNL     1      -1.083  -9.495   1.216  0.00  0.00    +0.296 C 
ATOM     16  C   UNL     1      -2.279  -8.568   0.957  0.00  0.00    +0.283 C 
ATOM     17  O   UNL     1      -2.742  -8.796  -0.379  0.00  0.00    -0.484 OA
ATOM     18  C   UNL     1      -2.885 -10.093  -0.764  0.00  0.00    +0.162 A 
ATOM     19  C   UNL     1      -3.653 -10.391  -1.879  0.00  0.00    +0.049 A 
ATOM     20  C   UNL     1      -3.805 -11.704  -2.285  0.00  0.00    +0.004 A 
ATOM     21  C   UNL     1      -3.192 -12.723  -1.580  0.00  0.00    +0.004 A 
ATOM     22  C   UNL     1      -2.426 -12.433  -0.467  0.00  0.00    +0.049 A 
ATOM     23  C   UNL     1      -2.270 -11.118  -0.054  0.00  0.00    +0.163 A 
ATOM     24  O   UNL     1      -1.519 -10.848   1.049  0.00  0.00    -0.473 OA
ENDBRANCH  11  15
BRANCH   1  26
ATOM     25  N   UNL     1       2.649  -4.156   2.321  0.00  0.00    -0.315 N 
ATOM     26  C   UNL     1       1.516  -4.847   2.560  0.00  0.00    +0.218 C 
ATOM     27  O   UNL     1       0.481  -4.255   2.782  0.00  0.00    -0.275 OA
ATOM     28  H   UNL     1       3.477  -4.629   2.143  0.00  0.00    +0.149 HD
BRANCH  25  29
ATOM     29  C   UNL     1       2.629  -2.691   2.329  0.00  0.00    +0.109 C 
BRANCH  29  30
ATOM     30  C   UNL     1       4.033  -2.161   2.032  0.00  0.00    +0.056 C 
BRANCH  30  35
ATOM     31  C   UNL     1       3.840   1.425   0.864  0.00  0.00    +0.000 A 
ATOM     32  C   UNL     1       3.977   2.112   2.056  0.00  0.00    +0.003 A 
ATOM     33  C   UNL     1       4.132   1.418   3.241  0.00  0.00    +0.038 A 
ATOM     34  C   UNL     1       4.150   0.034   3.234  0.00  0.00    +0.127 A 
ATOM     35  C   UNL     1       4.013  -0.654   2.041  0.00  0.00    -0.011 A 
ATOM     36  C   UNL     1       3.858   0.042   0.857  0.00  0.00    +0.006 A 
ATOM     37  F   UNL     1       4.303  -0.646   4.392  0.00  0.00    -0.205 F 
ENDBRANCH  30  35
ENDBRANCH  29  30
ENDBRANCH  25  29
ENDBRANCH   1  26
TORSDOF 5
