REMARK  Name = ZINC08180610
REMARK  7 active torsions:
REMARK  status: ('A' for Active; 'I' for Inactive)
REMARK    1  A    between atoms: C_1  and  C_2
REMARK    2  A    between atoms: C_5  and  C_26
REMARK    3  A    between atoms: C_6  and  N_8
REMARK    4  A    between atoms: C_9  and  C_11
REMARK    5  A    between atoms: C_11  and  N_12
REMARK    6  A    between atoms: C_13  and  C_15
REMARK    7  A    between atoms: C_15  and  C_16
REMARK                            x       y       z     vdW  Elec       q    Type
REMARK                         _______ _______ _______ _____ _____    ______ ____
ROOT
ATOM      1  N   UNL     1       0.370  -1.959   5.972  0.00  0.00    -0.307 N 
ATOM      2  C   UNL     1       0.492  -2.420   7.233  0.00  0.00    +0.214 C 
ATOM      3  O   UNL     1       0.529  -3.614   7.441  0.00  0.00    -0.276 OA
ATOM      4  H   UNL     1       0.341  -1.004   5.806  0.00  0.00    +0.149 HD
ENDROOT
BRANCH   1   5
ATOM      5  C   UNL     1       0.280  -2.900   4.854  0.00  0.00    +0.200 C 
BRANCH   5   7
ATOM      6  N   UNL     1       0.052  -2.797   2.393  0.00  0.00    -0.284 N 
ATOM      7  C   UNL     1       0.150  -2.135   3.562  0.00  0.00    +0.234 C 
ATOM      8  O   UNL     1       0.134  -0.922   3.575  0.00  0.00    -0.274 OA
ATOM      9  H   UNL     1      -0.016  -3.765   2.388  0.00  0.00    +0.155 HD
BRANCH   6  15
ATOM     10  C   UNL     1       1.264   1.227  -0.158  0.00  0.00    +0.044 C 
ATOM     11  C   UNL     1       0.628  -0.137  -0.079  0.00  0.00    -0.049 A 
ATOM     12  C   UNL     1       0.039  -0.690  -1.201  0.00  0.00    +0.004 A 
ATOM     13  C   UNL     1      -0.546  -1.941  -1.133  0.00  0.00    +0.005 A 
ATOM     14  C   UNL     1      -0.543  -2.643   0.057  0.00  0.00    -0.029 A 
ATOM     15  C   UNL     1       0.048  -2.090   1.185  0.00  0.00    +0.037 A 
ATOM     16  C   UNL     1       0.639  -0.835   1.112  0.00  0.00    +0.027 A 
ATOM     17  C   UNL     1      -1.181  -4.006   0.131  0.00  0.00    +0.045 C 
ENDBRANCH   6  15
ENDBRANCH   5   7
ENDBRANCH   1   5
BRANCH   2  18
ATOM     18  C   UNL     1       0.585  -1.451   8.384  0.00  0.00    +0.102 C 
BRANCH  18  19
ATOM     19  C   UNL     1       0.717  -2.229   9.695  0.00  0.00    -0.020 C 
ATOM     20  C   UNL     1      -0.508  -3.127   9.881  0.00  0.00    +0.011 C 
ATOM     21  C   UNL     1      -0.376  -3.904  11.192  0.00  0.00    -0.010 C 
ATOM     22  C   UNL     1      -0.283  -2.921  12.361  0.00  0.00    +0.007 C 
ATOM     23  C   UNL     1       0.942  -2.023  12.175  0.00  0.00    -0.010 C 
ATOM     24  C   UNL     1       0.810  -1.246  10.864  0.00  0.00    +0.011 C 
ATOM     25  C   UNL     1       2.205  -2.885  12.132  0.00  0.00    +0.007 C 
ATOM     26  C   UNL     1       2.111  -3.868  10.963  0.00  0.00    -0.010 C 
ATOM     27  C   UNL     1       0.887  -4.766  11.149  0.00  0.00    +0.007 C 
ATOM     28  C   UNL     1       1.980  -3.091   9.652  0.00  0.00    +0.011 C 
ENDBRANCH  18  19
ENDBRANCH   2  18
TORSDOF 5
