REMARK  Name = ZINC17189447
REMARK  12 active torsions:
REMARK  status: ('A' for Active; 'I' for Inactive)
REMARK    1  A    between atoms: C_1  and  C_2
REMARK    2  A    between atoms: C_2  and  C_3
REMARK    3  A    between atoms: C_3  and  C_5
REMARK    4  A    between atoms: C_3  and  C_6
REMARK    5  A    between atoms: C_6  and  C_7
REMARK    6  A    between atoms: C_8  and  C_33
REMARK    7  A    between atoms: C_16  and  S_18
REMARK    8  A    between atoms: S_18  and  C_19
REMARK    9  A    between atoms: C_19  and  C_20
REMARK   10  A    between atoms: N_25  and  C_26
REMARK   11  A    between atoms: C_26  and  C_27
REMARK   12  A    between atoms: C_27  and  C_28
REMARK                            x       y       z     vdW  Elec       q    Type
REMARK                         _______ _______ _______ _____ _____    ______ ____
ROOT
ATOM      1  C   UNL     1      14.401  -2.957  -4.441  0.00  0.00    -0.023 A 
ATOM      2  C   UNL     1      14.662  -3.052  -3.128  0.00  0.00    -0.007 A 
ATOM      3  S   UNL     1      13.145  -2.510  -2.365  0.00  0.00    -0.073 S 
ATOM      4  C   UNL     1      12.204  -2.172  -3.831  0.00  0.00    +0.117 A 
ATOM      5  C   UNL     1      13.095  -2.489  -4.873  0.00  0.00    +0.075 A 
ATOM      6  C   UNL     1      12.592  -2.307  -6.199  0.00  0.00    +0.261 A 
ATOM      7  O   UNL     1      13.293  -2.557  -7.165  0.00  0.00    -0.267 OA
ATOM      8  N   UNL     1      11.333  -1.862  -6.367  0.00  0.00    -0.301 N 
ATOM      9  H   UNL     1      10.987  -1.741  -7.266  0.00  0.00    +0.171 HD
ATOM     10  C   UNL     1      10.536  -1.573  -5.298  0.00  0.00    +0.170 A 
ATOM     11  N   UNL     1      10.974  -1.731  -4.066  0.00  0.00    -0.216 NA
ATOM     12  C   UNL     1      15.933  -3.507  -2.459  0.00  0.00    +0.052 C 
ENDROOT
BRANCH   1  13
ATOM     13  C   UNL     1      15.451  -3.330  -5.455  0.00  0.00    +0.040 C 
BRANCH  13  14
ATOM     14  C   UNL     1      15.321  -4.815  -5.801  0.00  0.00    -0.010 C 
ATOM     15  C   UNL     1      15.637  -5.656  -4.563  0.00  0.00    +0.008 C 
BRANCH  14  17
ATOM     16  C   UNL     1      16.087  -6.618  -7.352  0.00  0.00    +0.004 C 
ATOM     17  C   UNL     1      16.303  -5.166  -6.920  0.00  0.00    +0.000 C 
ENDBRANCH  14  17
ENDBRANCH  13  14
ENDBRANCH   1  13
BRANCH  10  18
ATOM     18  S   UNL     1       8.897  -0.985  -5.570  0.00  0.00    -0.078 S 
BRANCH  18  19
ATOM     19  C   UNL     1       8.345  -0.791  -3.857  0.00  0.00    +0.173 C 
BRANCH  19  20
ATOM     20  C   UNL     1       6.926  -0.283  -3.841  0.00  0.00    +0.231 C 
ATOM     21  O   UNL     1       6.346  -0.073  -4.885  0.00  0.00    -0.274 OA
ATOM     22  N   UNL     1       6.303  -0.062  -2.667  0.00  0.00    -0.240 N 
ATOM     23  C   UNL     1       5.034   0.392  -2.653  0.00  0.00    +0.306 C 
ATOM     24  O   UNL     1       4.452   0.603  -3.699  0.00  0.00    -0.252 OA
ATOM     25  N   UNL     1       4.410   0.614  -1.478  0.00  0.00    -0.299 N 
ATOM     26  H   UNL     1       6.767  -0.230  -1.832  0.00  0.00    +0.159 HD
ATOM     27  H   UNL     1       4.875   0.446  -0.644  0.00  0.00    +0.150 HD
BRANCH  25  28
ATOM     28  C   UNL     1       3.031   1.107  -1.463  0.00  0.00    +0.111 C 
BRANCH  28  29
ATOM     29  C   UNL     1       2.565   1.272  -0.015  0.00  0.00    +0.061 C 
BRANCH  29  30
ATOM     30  C   UNL     1       1.146   1.780   0.001  0.00  0.00    -0.009 A 
ATOM     31  C   UNL     1      -0.013   1.076   0.008  0.00  0.00    +0.011 A 
ATOM     32  C   UNL     1      -1.213   1.761   0.017  0.00  0.00    +0.008 A 
ATOM     33  C   UNL     1      -1.196   3.116   0.030  0.00  0.00    +0.045 A 
ATOM     34  S   UNL     1       0.555   3.464   0.015  0.00  0.00    -0.102 S 
ENDBRANCH  29  30
ENDBRANCH  28  29
ENDBRANCH  25  28
ENDBRANCH  19  20
ENDBRANCH  18  19
ENDBRANCH  10  18
TORSDOF 9
