REMARK  Name = ZINC59060802
REMARK  10 active torsions:
REMARK  status: ('A' for Active; 'I' for Inactive)
REMARK    1  A    between atoms: C_1  and  C_2
REMARK    2  A    between atoms: C_5  and  C_32
REMARK    3  A    between atoms: N_8  and  C_10
REMARK    4  A    between atoms: C_10  and  C_11
REMARK    5  A    between atoms: C_16  and  C_17
REMARK    6  A    between atoms: C_17  and  N_18
REMARK    7  A    between atoms: C_19  and  C_21
REMARK    8  A    between atoms: C_23  and  S_30
REMARK    9  A    between atoms: C_26  and  N_27
REMARK   10  A    between atoms: S_30  and  C_31
REMARK                            x       y       z     vdW  Elec       q    Type
REMARK                         _______ _______ _______ _____ _____    ______ ____
ROOT
ATOM      1  C   UNL     1       1.395  -1.865   2.065  0.00  0.00    -0.059 A 
ATOM      2  C   UNL     1       1.966  -2.880   1.320  0.00  0.00    +0.002 A 
ATOM      3  C   UNL     1       3.233  -2.722   0.793  0.00  0.00    +0.000 A 
ATOM      4  C   UNL     1       3.930  -1.547   1.009  0.00  0.00    +0.000 A 
ATOM      5  C   UNL     1       3.359  -0.532   1.753  0.00  0.00    +0.005 A 
ATOM      6  C   UNL     1       2.090  -0.689   2.277  0.00  0.00    -0.029 A 
ENDROOT
BRANCH   1   7
ATOM      7  C   UNL     1       0.013  -2.038   2.640  0.00  0.00    -0.043 C 
BRANCH   7  13
ATOM      8  C   UNL     1      -1.601  -4.353  -1.360  0.00  0.00    +0.005 C 
ATOM      9  C   UNL     1      -1.351  -4.485   0.143  0.00  0.00    -0.031 C 
ATOM     10  C   UNL     1      -2.665  -4.829   0.851  0.00  0.00    +0.003 C 
ATOM     11  C   UNL     1      -2.420  -4.882   2.362  0.00  0.00    -0.031 C 
ATOM     12  C   UNL     1      -1.843  -3.543   2.828  0.00  0.00    -0.075 C 
ATOM     13  N   UNL     1      -0.576  -3.285   2.134  0.00  0.00    +0.383 N 
ATOM     14  C   UNL     1      -0.813  -3.162   0.691  0.00  0.00    -0.075 C 
ATOM     15  C   UNL     1      -1.430  -6.004   2.680  0.00  0.00    +0.005 C 
ATOM     16  H   UNL     1       0.061  -4.049   2.304  0.00  0.00    -0.081 HD
ENDBRANCH   7  13
ENDBRANCH   1   7
BRANCH   6  17
ATOM     17  C   UNL     1       1.465   0.420   3.084  0.00  0.00    +0.140 C 
BRANCH  17  18
ATOM     18  N   UNL     1       1.454   0.047   4.501  0.00  0.00    -0.307 N 
ATOM     19  C   UNL     1       0.939   0.892   5.416  0.00  0.00    +0.247 C 
ATOM     20  O   UNL     1       0.483   1.963   5.066  0.00  0.00    -0.270 OA
ATOM     21  H   UNL     1       1.818  -0.807   4.780  0.00  0.00    +0.149 HD
BRANCH  19  22
ATOM     22  C   UNL     1       0.929   0.516   6.846  0.00  0.00    +0.068 A 
ATOM     23  C   UNL     1       0.315  -0.668   7.253  0.00  0.00    +0.030 A 
ATOM     24  C   UNL     1       0.309  -1.014   8.597  0.00  0.00    +0.008 A 
ATOM     25  C   UNL     1       0.915  -0.182   9.531  0.00  0.00    +0.017 A 
ATOM     26  C   UNL     1       1.524   0.991   9.127  0.00  0.00    +0.034 A 
ATOM     27  C   UNL     1       1.539   1.342   7.792  0.00  0.00    +0.138 A 
BRANCH  27  28
ATOM     28  N   UNL     1       2.197   2.596   7.363  0.00  0.00    +0.057 N 
ATOM     29  O   UNL     1       2.622   3.369   8.191  0.00  0.00    -0.126 OA
ATOM     30  O   UNL     1       2.310   2.849   6.186  0.00  0.00    -0.126 OA
ENDBRANCH  27  28
BRANCH  24  31
ATOM     31  S   UNL     1      -0.466  -2.508   9.118  0.00  0.00    -0.129 S 
ATOM     32  C   UNL     1      -0.219  -2.526  10.916  0.00  0.00    +0.090 C 
ENDBRANCH  24  31
ENDBRANCH  19  22
ENDBRANCH  17  18
ENDBRANCH   6  17
TORSDOF 7
