REMARK  Name = ZINC30868245
REMARK  9 active torsions:
REMARK  status: ('A' for Active; 'I' for Inactive)
REMARK    1  A    between atoms: C_1  and  C_2
REMARK    2  A    between atoms: C_5  and  S_8
REMARK    3  A    between atoms: S_8  and  N_11
REMARK    4  A    between atoms: N_11  and  C_12
REMARK    5  A    between atoms: C_15  and  C_18
REMARK    6  A    between atoms: N_20  and  C_21
REMARK    7  A    between atoms: C_21  and  C_22
REMARK    8  A    between atoms: C_25  and  N_28
REMARK    9  A    between atoms: C_32  and  C_33
REMARK                            x       y       z     vdW  Elec       q    Type
REMARK                         _______ _______ _______ _____ _____    ______ ____
ROOT
ATOM      1  C   UNL     1       5.148   5.624  -5.658  0.00  0.00    +0.048 A 
ATOM      2  C   UNL     1       5.884   6.134  -4.592  0.00  0.00    +0.025 A 
ATOM      3  C   UNL     1       5.474   5.904  -3.299  0.00  0.00    +0.015 A 
ATOM      4  C   UNL     1       4.318   5.157  -3.056  0.00  0.00    +0.037 A 
ATOM      5  C   UNL     1       3.584   4.641  -4.128  0.00  0.00    +0.015 A 
ATOM      6  C   UNL     1       3.995   4.880  -5.419  0.00  0.00    +0.025 A 
ENDROOT
BRANCH   4   7
ATOM      7  C   UNL     1       3.876   4.908  -1.670  0.00  0.00    +0.244 C 
ATOM      8  O   UNL     1       4.518   5.353  -0.738  0.00  0.00    -0.270 OA
ATOM      9  N   UNL     1       2.761   4.188  -1.438  0.00  0.00    -0.307 N 
ATOM     10  H   UNL     1       2.180   3.786  -2.281  0.00  0.00    +0.149 HD
BRANCH   9  11
ATOM     11  C   UNL     1       2.322   3.941  -0.062  0.00  0.00    +0.139 C 
BRANCH  11  12
ATOM     12  C   UNL     1       1.060   3.118  -0.077  0.00  0.00    -0.030 A 
ATOM     13  C   UNL     1       1.136   1.738  -0.056  0.00  0.00    +0.007 A 
ATOM     14  C   UNL     1      -0.019   0.981  -0.070  0.00  0.00    +0.026 A 
ATOM     15  C   UNL     1      -1.258   1.607  -0.111  0.00  0.00    +0.048 A 
ATOM     16  C   UNL     1      -1.331   2.993  -0.127  0.00  0.00    +0.026 A 
ATOM     17  C   UNL     1      -0.172   3.745  -0.113  0.00  0.00    +0.007 A 
BRANCH  15  18
ATOM     18  N   UNL     1      -2.432   0.841  -0.132  0.00  0.00    -0.305 N 
ATOM     19  C   UNL     1      -2.705  -0.209  -0.969  0.00  0.00    +0.110 A 
ATOM     20  C   UNL     1      -3.936  -0.654  -0.649  0.00  0.00    +0.102 A 
ATOM     21  N   UNL     1      -4.405   0.101   0.356  0.00  0.00    -0.350 N 
ATOM     22  C   UNL     1      -3.511   0.996   0.678  0.00  0.00    +0.088 A 
ATOM     23  C   UNL     1      -3.655   2.031   1.764  0.00  0.00    +0.084 C 
ATOM     24  H   UNL     1      -5.406  -0.094   0.768  0.00  0.00    +0.166 HD
ENDBRANCH  15  18
ENDBRANCH  11  12
ENDBRANCH   9  11
ENDBRANCH   4   7
BRANCH   1  25
ATOM     25  N   UNL     1       5.564   5.858  -6.964  0.00  0.00    -0.216 N 
ATOM     26  H   UNL     1       5.870   6.869  -7.271  0.00  0.00    +0.174 HD
BRANCH  25  27
ATOM     27  S   UNL     1       5.601   4.614  -8.057  0.00  0.00    +0.072 S 
ATOM     28  O   UNL     1       4.317   4.005  -8.022  0.00  0.00    -0.150 OA
ATOM     29  O   UNL     1       6.163   5.139  -9.251  0.00  0.00    -0.150 OA
BRANCH  27  34
ATOM     30  C   UNL     1       9.509   0.518  -5.968  0.00  0.00    +0.044 C 
ATOM     31  C   UNL     1       8.533   1.541  -6.490  0.00  0.00    -0.050 A 
ATOM     32  C   UNL     1       7.183   1.406  -6.226  0.00  0.00    +0.005 A 
ATOM     33  C   UNL     1       6.287   2.344  -6.705  0.00  0.00    +0.029 A 
ATOM     34  C   UNL     1       6.742   3.418  -7.447  0.00  0.00    +0.109 A 
ATOM     35  C   UNL     1       8.092   3.551  -7.715  0.00  0.00    +0.029 A 
ATOM     36  C   UNL     1       8.988   2.615  -7.232  0.00  0.00    +0.005 A 
ENDBRANCH  27  34
ENDBRANCH  25  27
ENDBRANCH   1  25
TORSDOF 7
