REMARK  Name = ZINC46551245
REMARK  13 active torsions:
REMARK  status: ('A' for Active; 'I' for Inactive)
REMARK    1  A    between atoms: C_1  and  C_2
REMARK    2  A    between atoms: C_2  and  C_3
REMARK    3  A    between atoms: C_2  and  C_4
REMARK    4  A    between atoms: C_2  and  C_5
REMARK    5  A    between atoms: C_8  and  O_11
REMARK    6  A    between atoms: O_11  and  C_12
REMARK    7  A    between atoms: C_12  and  C_13
REMARK    8  A    between atoms: C_13  and  C_15
REMARK    9  A    between atoms: C_13  and  O_31
REMARK   10  A    between atoms: C_15  and  N_16
REMARK   11  A    between atoms: C_19  and  N_22
REMARK   12  A    between atoms: N_22  and  S_23
REMARK   13  A    between atoms: S_23  and  C_26
REMARK                            x       y       z     vdW  Elec       q    Type
REMARK                         _______ _______ _______ _____ _____    ______ ____
ROOT
ATOM      1  N   UNL     1       6.436  -1.948  -7.660  0.00  0.00    +0.382 N 
ATOM      2  C   UNL     1       5.605  -1.361  -8.719  0.00  0.00    -0.077 C 
ATOM      3  C   UNL     1       6.045  -1.906 -10.079  0.00  0.00    +0.002 C 
ATOM      4  C   UNL     1       7.513  -1.541 -10.318  0.00  0.00    +0.073 C 
ATOM      5  C   UNL     1       8.361  -2.095  -9.169  0.00  0.00    +0.002 C 
ATOM      6  C   UNL     1       7.835  -1.543  -7.843  0.00  0.00    -0.077 C 
ATOM      7  H   UNL     1       6.370  -2.954  -7.702  0.00  0.00    -0.082 HD
ENDROOT
BRANCH   4   8
ATOM      8  N   UNL     1       7.963  -2.125 -11.584  0.00  0.00    -0.187 NA
ATOM      9  H   UNL     1       7.624  -2.988 -11.868  0.00  0.00    +0.148 HD
BRANCH   8  10
ATOM     10  S   UNL     1       9.050  -1.310 -12.532  0.00  0.00    +0.065 S 
ATOM     11  O   UNL     1       9.304  -2.136 -13.660  0.00  0.00    -0.153 OA
ATOM     12  O   UNL     1       8.565   0.020 -12.655  0.00  0.00    -0.153 OA
BRANCH  10  13
ATOM     13  C   UNL     1      10.560  -1.215 -11.628  0.00  0.00    +0.142 A 
ATOM     14  C   UNL     1      11.606  -2.077 -11.620  0.00  0.00    +0.036 A 
ATOM     15  C   UNL     1      12.700  -1.795 -10.824  0.00  0.00    +0.010 A 
ATOM     16  C   UNL     1      12.696  -0.665 -10.076  0.00  0.00    +0.047 A 
ATOM     17  S   UNL     1      11.112   0.047 -10.492  0.00  0.00    -0.077 S 
ENDBRANCH  10  13
ENDBRANCH   8  10
ENDBRANCH   4   8
BRANCH   1  18
ATOM     18  C   UNL     1       5.960  -1.482  -6.351  0.00  0.00    -0.044 C 
BRANCH  18  19
ATOM     19  C   UNL     1       4.544  -2.009  -6.106  0.00  0.00    +0.135 C 
BRANCH  19  20
ATOM     20  O   UNL     1       4.577  -3.434  -6.011  0.00  0.00    -0.390 OA
ATOM     21  H   UNL     1       5.133  -3.768  -5.295  0.00  0.00    +0.210 HD
ENDBRANCH  19  20
BRANCH  19  22
ATOM     22  C   UNL     1       4.000  -1.423  -4.801  0.00  0.00    +0.258 C 
BRANCH  22  23
ATOM     23  O   UNL     1       2.639  -1.822  -4.631  0.00  0.00    -0.489 OA
BRANCH  23  27
ATOM     24  C   UNL     1       0.707  -0.490  -1.238  0.00  0.00    -0.042 A 
ATOM     25  C   UNL     1       0.035  -1.284  -2.148  0.00  0.00    +0.008 A 
ATOM     26  C   UNL     1       0.679  -1.732  -3.285  0.00  0.00    +0.046 A 
ATOM     27  C   UNL     1       2.002  -1.383  -3.514  0.00  0.00    +0.121 A 
ATOM     28  C   UNL     1       2.675  -0.585  -2.599  0.00  0.00    +0.046 A 
ATOM     29  C   UNL     1       2.024  -0.136  -1.466  0.00  0.00    +0.008 A 
BRANCH  24  31
ATOM     30  C   UNL     1      -0.019   1.526   0.010  0.00  0.00    +0.015 C 
ATOM     31  C   UNL     1       0.002  -0.004   0.002  0.00  0.00    -0.013 C 
ATOM     32  C   UNL     1       0.742  -0.511   1.242  0.00  0.00    +0.015 C 
ATOM     33  C   UNL     1      -1.433  -0.534   0.013  0.00  0.00    +0.015 C 
ENDBRANCH  24  31
ENDBRANCH  23  27
ENDBRANCH  22  23
ENDBRANCH  19  22
ENDBRANCH  18  19
ENDBRANCH   1  18
TORSDOF 10
