REMARK  Name = ZINC04191176
REMARK  9 active torsions:
REMARK  status: ('A' for Active; 'I' for Inactive)
REMARK    1  A    between atoms: C_1  and  N_2
REMARK    2  A    between atoms: N_2  and  C_3
REMARK    3  A    between atoms: N_2  and  C_4
REMARK    4  A    between atoms: C_7  and  C_10
REMARK    5  A    between atoms: C_10  and  N_12
REMARK    6  A    between atoms: N_14  and  C_26
REMARK    7  A    between atoms: C_18  and  S_22
REMARK    8  A    between atoms: S_22  and  N_25
REMARK    9  A    between atoms: C_26  and  C_27
REMARK                            x       y       z     vdW  Elec       q    Type
REMARK                         _______ _______ _______ _____ _____    ______ ____
ROOT
ATOM      1  N   UNL     1      -4.053   3.734   0.149  0.00  0.00    -0.152 NA
ATOM      2  C   UNL     1      -3.316   3.914  -0.941  0.00  0.00    +0.167 A 
ATOM      3  N   UNL     1      -1.980   3.706  -1.100  0.00  0.00    -0.317 N 
ATOM      4  C   UNL     1      -1.381   3.956  -2.320  0.00  0.00    +0.058 A 
ATOM      5  C   UNL     1      -0.032   3.798  -2.676  0.00  0.00    +0.029 A 
ATOM      6  C   UNL     1       0.398   4.090  -3.949  0.00  0.00    +0.030 A 
ATOM      7  C   UNL     1      -0.482   4.543  -4.918  0.00  0.00    +0.106 A 
ATOM      8  C   UNL     1      -1.818   4.703  -4.596  0.00  0.00    +0.045 A 
ATOM      9  C   UNL     1      -2.249   4.411  -3.323  0.00  0.00    +0.041 A 
ATOM     10  S   UNL     1      -3.823   4.470  -2.503  0.00  0.00    -0.052 S 
ENDROOT
BRANCH   7  11
ATOM     11  S   UNL     1       0.093   4.910  -6.543  0.00  0.00    +0.056 S 
ATOM     12  O   UNL     1       1.282   4.155  -6.733  0.00  0.00    -0.153 OA
ATOM     13  O   UNL     1      -1.030   4.794  -7.406  0.00  0.00    -0.153 OA
BRANCH  11  14
ATOM     14  N   UNL     1       0.537   6.505  -6.556  0.00  0.00    -0.204 NA
ATOM     15  H   UNL     1       1.245   6.806  -7.146  0.00  0.00    +0.144 HD
ATOM     16  H   UNL     1       0.089   7.138  -5.973  0.00  0.00    +0.144 HD
ENDBRANCH  11  14
ENDBRANCH   7  11
BRANCH   1  17
ATOM     17  C   UNL     1      -5.365   3.993   0.118  0.00  0.00    +0.269 C 
ATOM     18  O   UNL     1      -5.884   4.395  -0.909  0.00  0.00    -0.268 OA
BRANCH  17  22
ATOM     19  C   UNL     1      -7.726   3.416   3.604  0.00  0.00    +0.029 A 
ATOM     20  C   UNL     1      -8.319   3.875   2.432  0.00  0.00    +0.024 A 
ATOM     21  C   UNL     1      -7.557   4.063   1.301  0.00  0.00    +0.015 A 
ATOM     22  C   UNL     1      -6.187   3.793   1.331  0.00  0.00    +0.039 A 
ATOM     23  C   UNL     1      -5.595   3.327   2.508  0.00  0.00    +0.015 A 
ATOM     24  C   UNL     1      -6.361   3.147   3.637  0.00  0.00    +0.024 A 
BRANCH  19  26
ATOM     25  C   UNL     1      -9.936   3.511   4.713  0.00  0.00    +0.129 C 
ATOM     26  N   UNL     1      -8.499   3.227   4.746  0.00  0.00    -0.336 N 
ATOM     27  C   UNL     1      -7.877   2.744   5.981  0.00  0.00    +0.129 C 
ENDBRANCH  19  26
ENDBRANCH  17  22
ENDBRANCH   1  17
BRANCH   3  28
ATOM     28  C   UNL     1      -1.176   3.222   0.025  0.00  0.00    +0.151 C 
BRANCH  28  29
ATOM     29  C   UNL     1      -1.156   1.715   0.017  0.00  0.00    -0.013 C 
ATOM     30  C   UNL     1      -0.013   1.076   0.008  0.00  0.00    +0.005 C 
ENDBRANCH  28  29
ENDBRANCH   3  28
TORSDOF 7
