REMARK  Name = ZINC22829701
REMARK  14 active torsions:
REMARK  status: ('A' for Active; 'I' for Inactive)
REMARK    1  A    between atoms: C_1  and  C_2
REMARK    2  A    between atoms: C_2  and  C_3
REMARK    3  A    between atoms: C_3  and  C_5
REMARK    4  A    between atoms: C_3  and  C_6
REMARK    5  A    between atoms: C_13  and  C_15
REMARK    6  A    between atoms: C_18  and  N_22
REMARK    7  A    between atoms: C_20  and  O_21
REMARK    8  A    between atoms: N_22  and  C_23
REMARK    9  A    between atoms: C_23  and  N_25
REMARK   10  A    between atoms: C_26  and  C_28
REMARK   11  A    between atoms: C_29  and  O_36
REMARK   12  A    between atoms: C_33  and  O_34
REMARK   13  A    between atoms: O_34  and  C_35
REMARK   14  A    between atoms: O_36  and  C_37
REMARK                            x       y       z     vdW  Elec       q    Type
REMARK                         _______ _______ _______ _____ _____    ______ ____
ROOT
ATOM      1  C   UNL     1      -1.248   3.129   0.051  0.00  0.00    +0.078 A 
ATOM      2  C   UNL     1      -0.058   3.816   0.304  0.00  0.00    +0.018 A 
ATOM      3  C   UNL     1       1.143   3.143   0.281  0.00  0.00    +0.024 A 
ATOM      4  C   UNL     1       1.176   1.778   0.007  0.00  0.00    +0.036 A 
ATOM      5  C   UNL     1      -0.002   1.087  -0.245  0.00  0.00    +0.069 A 
ATOM      6  C   UNL     1      -1.213   1.755  -0.230  0.00  0.00    +0.131 A 
ENDROOT
BRANCH   1  14
ATOM      7  C   UNL     1      -6.090   6.613   0.294  0.00  0.00    -0.042 A 
ATOM      8  C   UNL     1      -6.758   5.436  -0.009  0.00  0.00    +0.007 A 
ATOM      9  C   UNL     1      -6.060   4.259  -0.181  0.00  0.00    +0.049 A 
ATOM     10  C   UNL     1      -4.680   4.248  -0.050  0.00  0.00    +0.156 A 
ATOM     11  C   UNL     1      -3.999   5.438   0.257  0.00  0.00    +0.110 A 
ATOM     12  C   UNL     1      -4.720   6.622   0.428  0.00  0.00    +0.035 A 
ATOM     13  N   UNL     1      -2.679   5.126   0.320  0.00  0.00    -0.209 NA
ATOM     14  C   UNL     1      -2.536   3.847   0.074  0.00  0.00    +0.232 A 
ATOM     15  O   UNL     1      -3.738   3.286  -0.160  0.00  0.00    -0.435 OA
BRANCH   7  16
ATOM     16  C   UNL     1      -6.869   7.891   0.478  0.00  0.00    +0.016 C 
ATOM     17  C   UNL     1      -7.629   8.214  -0.809  0.00  0.00    +0.012 C 
BRANCH  16  19
ATOM     18  C   UNL     1      -8.565   9.053   1.897  0.00  0.00    +0.004 C 
ATOM     19  C   UNL     1      -7.863   7.720   1.629  0.00  0.00    +0.004 C 
ENDBRANCH  16  19
ENDBRANCH   7  16
ENDBRANCH   1  14
BRANCH   6  20
ATOM     20  O   UNL     1      -2.365   1.082  -0.480  0.00  0.00    -0.506 OA
ATOM     21  H   UNL     1      -2.336   0.005  -0.701  0.00  0.00    +0.292 HD
ENDBRANCH   6  20
BRANCH   4  22
ATOM     22  N   UNL     1       2.397   1.102  -0.014  0.00  0.00    -0.296 N 
ATOM     23  H   UNL     1       3.155   1.312   0.755  0.00  0.00    +0.154 HD
BRANCH  22  24
ATOM     24  C   UNL     1       2.647   0.193  -0.978  0.00  0.00    +0.141 C 
ATOM     25  S   UNL     1       1.530  -0.031  -2.255  0.00  0.00    -0.018 S 
BRANCH  24  26
ATOM     26  N   UNL     1       3.778  -0.539  -0.935  0.00  0.00    -0.263 N 
ATOM     27  C   UNL     1       4.029  -1.448  -1.898  0.00  0.00    +0.257 C 
ATOM     28  O   UNL     1       3.234  -1.607  -2.805  0.00  0.00    -0.270 OA
ATOM     29  H   UNL     1       4.497  -0.395  -0.115  0.00  0.00    +0.157 HD
BRANCH  27  30
ATOM     30  C   UNL     1       5.263  -2.248  -1.852  0.00  0.00    +0.120 A 
ATOM     31  C   UNL     1       5.284  -3.476  -1.175  0.00  0.00    +0.136 A 
ATOM     32  C   UNL     1       6.450  -4.223  -1.142  0.00  0.00    +0.046 A 
ATOM     33  C   UNL     1       7.593  -3.757  -1.764  0.00  0.00    +0.007 A 
ATOM     34  C   UNL     1       7.585  -2.546  -2.430  0.00  0.00    +0.046 A 
ATOM     35  C   UNL     1       6.429  -1.785  -2.481  0.00  0.00    +0.136 A 
BRANCH  35  36
ATOM     36  O   UNL     1       6.423  -0.597  -3.135  0.00  0.00    -0.494 OA
ATOM     37  C   UNL     1       7.647  -0.190  -3.751  0.00  0.00    +0.277 C 
ENDBRANCH  35  36
BRANCH  31  38
ATOM     38  O   UNL     1       4.165  -3.933  -0.559  0.00  0.00    -0.494 OA
ATOM     39  C   UNL     1       4.261  -5.192   0.111  0.00  0.00    +0.277 C 
ENDBRANCH  31  38
ENDBRANCH  27  30
ENDBRANCH  24  26
ENDBRANCH  22  24
ENDBRANCH   4  22
TORSDOF 10
