REMARK  Name = ZINC00720645
REMARK  4 active torsions:
REMARK  status: ('A' for Active; 'I' for Inactive)
REMARK    1  A    between atoms: C_3  and  C_7
REMARK    2  A    between atoms: C_14  and  N_30
REMARK    3  A    between atoms: C_15  and  C_28
REMARK    4  A    between atoms: C_16  and  C_18
REMARK                            x       y       z     vdW  Elec       q    Type
REMARK                         _______ _______ _______ _____ _____    ______ ____
ROOT
ATOM      1  C   UNL     1       3.684   2.033  -0.023  0.00  0.00    +0.102 A 
ATOM      2  C   UNL     1       4.851   1.592   0.608  0.00  0.00    +0.054 A 
ATOM      3  C   UNL     1       5.835   2.506   0.361  0.00  0.00    +0.223 A 
ATOM      4  N   UNL     1       5.303   3.487  -0.396  0.00  0.00    -0.246 N 
ATOM      5  H   UNL     1       5.771   4.271  -0.724  0.00  0.00    +0.192 HD
ATOM      6  N   UNL     1       3.956   3.171  -0.632  0.00  0.00    -0.171 NA
ATOM      7  O   UNL     1       7.098   2.367   0.835  0.00  0.00    -0.423 OA
ATOM      8  C   UNL     1       7.450   1.164   1.334  0.00  0.00    +0.200 C 
ATOM      9  C   UNL     1       6.566   0.185   1.630  0.00  0.00    +0.098 C 
ATOM     10  C   UNL     1       5.080   0.351   1.431  0.00  0.00    +0.103 C 
ENDROOT
BRANCH  10  11
ATOM     11  C   UNL     1       4.401   0.495   2.768  0.00  0.00    -0.017 A 
ATOM     12  C   UNL     1       4.755   1.530   3.614  0.00  0.00    +0.055 A 
ATOM     13  C   UNL     1       4.133   1.664   4.844  0.00  0.00    +0.167 A 
ATOM     14  C   UNL     1       3.148   0.755   5.226  0.00  0.00    +0.167 A 
ATOM     15  C   UNL     1       2.797  -0.279   4.374  0.00  0.00    +0.065 A 
ATOM     16  C   UNL     1       3.419  -0.404   3.144  0.00  0.00    +0.026 A 
ATOM     17 BR   UNL     1       2.933  -1.812   1.980  0.00  0.00    -0.050 Br
ATOM     18  O   UNL     1       2.694   1.100   6.466  0.00  0.00    -0.453 OA
ATOM     19  C   UNL     1       3.694   1.982   7.010  0.00  0.00    +0.466 C 
ATOM     20  O   UNL     1       4.295   2.578   5.846  0.00  0.00    -0.453 OA
ENDBRANCH  10  11
BRANCH   1  23
ATOM     21  C   UNL     1      -0.017   1.379   0.010  0.00  0.00    +0.020 A 
ATOM     22  C   UNL     1       1.182   2.072   0.002  0.00  0.00    +0.013 A 
ATOM     23  C   UNL     1       2.371   1.340  -0.013  0.00  0.00    +0.021 A 
ATOM     24  C   UNL     1       2.306  -0.052  -0.020  0.00  0.00    +0.120 A 
ATOM     25  N   UNL     1       1.142  -0.668  -0.013  0.00  0.00    -0.263 NA
ATOM     26  C   UNL     1       0.002  -0.004   0.002  0.00  0.00    +0.111 A 
ENDBRANCH   1  23
BRANCH   8  27
ATOM     27  N   UNL     1       8.783   0.920   1.554  0.00  0.00    -0.328 N 
ATOM     28  H   UNL     1       9.441   1.603   1.351  0.00  0.00    +0.145 HD
ATOM     29  H   UNL     1       9.066   0.064   1.912  0.00  0.00    +0.145 HD
ENDBRANCH   8  27
BRANCH   9  30
ATOM     30  C   UNL     1       7.058  -1.054   2.151  0.00  0.00    +0.101 C 
ATOM     31  N   UNL     1       7.449  -2.038   2.564  0.00  0.00    -0.191 NA
ENDBRANCH   9  30
TORSDOF 4
