REMARK  Name = ZINC51549930
REMARK  4 active torsions:
REMARK  status: ('A' for Active; 'I' for Inactive)
REMARK    1  A    between atoms: C_3  and  O_12
REMARK    2  A    between atoms: O_12  and  C_13
REMARK    3  A    between atoms: C_16  and  C_19
REMARK    4  A    between atoms: C_19  and  N_20
REMARK                            x       y       z     vdW  Elec       q    Type
REMARK                         _______ _______ _______ _____ _____    ______ ____
ROOT
ATOM      1  O   UNL     1       3.537   2.141  -0.021  0.00  0.00    -0.437 OA
ENDROOT
BRANCH   1   4
ATOM      2  C   UNL     1      -0.007   1.386  -0.248  0.00  0.00    +0.012 A 
ATOM      3  C   UNL     1       1.166   2.075  -0.248  0.00  0.00    +0.047 A 
ATOM      4  C   UNL     1       2.382   1.426  -0.014  0.00  0.00    +0.131 A 
ATOM      5  C   UNL     1       2.423   0.080   0.220  0.00  0.00    +0.054 A 
ATOM      6  C   UNL     1       1.230  -0.660   0.227  0.00  0.00    -0.014 A 
ATOM      7  C   UNL     1      -0.001   0.001  -0.010  0.00  0.00    -0.017 A 
ATOM      8  C   UNL     1      -1.194  -0.742  -0.004  0.00  0.00    +0.023 A 
ATOM      9  C   UNL     1      -1.151  -2.083   0.230  0.00  0.00    +0.018 A 
ATOM     10  C   UNL     1       0.060  -2.733   0.463  0.00  0.00    +0.016 A 
ATOM     11  C   UNL     1       1.234  -2.046   0.464  0.00  0.00    +0.010 A 
ATOM     12 BR   UNL     1      -2.760  -3.078   0.238  0.00  0.00    -0.050 Br
ENDBRANCH   1   4
BRANCH   1  13
ATOM     13  C   UNL     1       4.334   2.053  -1.115  0.00  0.00    +0.240 A 
ATOM     14  C   UNL     1       5.578   2.681  -1.126  0.00  0.00    +0.071 A 
ATOM     15  C   UNL     1       6.355   2.561  -2.268  0.00  0.00    +0.028 A 
ATOM     16  C   UNL     1       5.847   1.824  -3.328  0.00  0.00    +0.046 A 
ATOM     17  N   UNL     1       4.658   1.262  -3.230  0.00  0.00    -0.153 NA
ATOM     18  N   UNL     1       3.937   1.366  -2.174  0.00  0.00    -0.111 NA
BRANCH  16  19
ATOM     19  C   UNL     1       6.654   1.665  -4.591  0.00  0.00    -0.028 C 
BRANCH  19  20
ATOM     20  N   UNL     1       7.409   0.406  -4.534  0.00  0.00    +0.382 N 
ATOM     21  H   UNL     1       8.029   0.421  -3.738  0.00  0.00    -0.090 HD
ATOM     22  H   UNL     1       6.767  -0.368  -4.445  0.00  0.00    -0.090 HD
ATOM     23  H   UNL     1       7.949   0.299  -5.380  0.00  0.00    -0.090 HD
ENDBRANCH  19  20
ENDBRANCH  16  19
ENDBRANCH   1  13
TORSDOF 4
