REMARK  Name = ZINC22011817
REMARK  5 active torsions:
REMARK  status: ('A' for Active; 'I' for Inactive)
REMARK    1  A    between atoms: C_3  and  C_8
REMARK    2  A    between atoms: C_8  and  C_10
REMARK    3  A    between atoms: C_8  and  N_20
REMARK    4  A    between atoms: C_13  and  N_19
REMARK    5  A    between atoms: C_14  and  N_16
REMARK                            x       y       z     vdW  Elec       q    Type
REMARK                         _______ _______ _______ _____ _____    ______ ____
ROOT
ATOM      1  C   UNL     1      -0.181   2.093   0.409  0.00  0.00    +0.148 C 
ENDROOT
BRANCH   1   4
ATOM      2  C   UNL     1       0.046  -1.667   0.160  0.00  0.00    +0.002 A 
ATOM      3  C   UNL     1       0.391  -0.343   0.352  0.00  0.00    +0.006 A 
ATOM      4  C   UNL     1      -0.559   0.649   0.199  0.00  0.00    -0.019 A 
ATOM      5  C   UNL     1      -1.857   0.317  -0.142  0.00  0.00    +0.026 A 
ATOM      6  C   UNL     1      -2.202  -1.008  -0.340  0.00  0.00    +0.041 A 
ATOM      7  C   UNL     1      -1.250  -2.001  -0.186  0.00  0.00    +0.020 A 
ATOM      8 CL   UNL     1      -3.830  -1.426  -0.775  0.00  0.00    -0.084 Cl
ENDBRANCH   1   4
BRANCH   1   9
ATOM      9  C   UNL     1       1.177   2.350  -0.191  0.00  0.00    -0.018 A 
ATOM     10  C   UNL     1       1.421   2.019  -1.512  0.00  0.00    +0.008 A 
ATOM     11  C   UNL     1       2.664   2.253  -2.066  0.00  0.00    +0.025 A 
ATOM     12  C   UNL     1       3.670   2.823  -1.295  0.00  0.00    +0.055 A 
ATOM     13  C   UNL     1       3.421   3.154   0.031  0.00  0.00    +0.147 A 
ATOM     14  C   UNL     1       2.174   2.922   0.577  0.00  0.00    +0.040 A 
BRANCH  13  15
ATOM     15  N   UNL     1       4.489   3.761   0.856  0.00  0.00    +0.058 N 
ATOM     16  O   UNL     1       4.307   3.951   2.045  0.00  0.00    -0.126 OA
ATOM     17  O   UNL     1       5.551   4.071   0.345  0.00  0.00    -0.126 OA
ENDBRANCH  13  15
BRANCH  12  18
ATOM     18  N   UNL     1       4.928   3.062  -1.852  0.00  0.00    -0.356 N 
ATOM     19  H   UNL     1       5.723   3.513  -1.240  0.00  0.00    +0.142 HD
ATOM     20  H   UNL     1       5.123   2.799  -2.902  0.00  0.00    +0.142 HD
ENDBRANCH  12  18
ENDBRANCH   1   9
BRANCH   1  21
ATOM     21  N   UNL     1      -1.173   2.956  -0.237  0.00  0.00    -0.325 N 
ATOM     22  C   UNL     1      -1.956   3.896   0.377  0.00  0.00    +0.107 A 
ATOM     23  C   UNL     1      -2.719   4.455  -0.581  0.00  0.00    +0.130 A 
ATOM     24  N   UNL     1      -2.410   3.872  -1.749  0.00  0.00    -0.244 NA
ATOM     25  C   UNL     1      -1.481   2.977  -1.552  0.00  0.00    +0.200 A 
ENDBRANCH   1  21
TORSDOF 5
