REMARK  Name = ZINC39686718
REMARK  12 active torsions:
REMARK  status: ('A' for Active; 'I' for Inactive)
REMARK    1  A    between atoms: C_1  and  C_2
REMARK    2  A    between atoms: C_2  and  C_3
REMARK    3  A    between atoms: C_3  and  C_5
REMARK    4  A    between atoms: C_3  and  C_6
REMARK    5  A    between atoms: C_6  and  C_7
REMARK    6  A    between atoms: C_11  and  C_20
REMARK    7  A    between atoms: N_22  and  C_23
REMARK    8  A    between atoms: C_23  and  C_25
REMARK    9  A    between atoms: C_23  and  C_26
REMARK   10  A    between atoms: C_26  and  C_27
REMARK   11  A    between atoms: C_32  and  O_33
REMARK   12  A    between atoms: O_33  and  C_34
REMARK                            x       y       z     vdW  Elec       q    Type
REMARK                         _______ _______ _______ _____ _____    ______ ____
ROOT
ATOM      1  C   UNL     1      -2.905  -2.582   0.252  0.00  0.00    +0.216 C 
ATOM      2  O   UNL     1      -3.843  -1.814   0.282  0.00  0.00    -0.276 OA
ATOM      3  N   UNL     1      -3.114  -3.907   0.387  0.00  0.00    -0.300 N 
ATOM      4  C   UNL     1      -2.104  -4.991   0.383  0.00  0.00    +0.121 C 
ATOM      5  C   UNL     1      -2.586  -5.978   1.470  0.00  0.00    +0.100 C 
ATOM      6  C   UNL     1      -4.098  -5.723   1.589  0.00  0.00    -0.004 C 
ATOM      7  C   UNL     1      -4.407  -4.607   0.579  0.00  0.00    +0.115 C 
ATOM      8  C   UNL     1      -4.447  -5.260   3.000  0.00  0.00    -0.010 C 
ATOM      9  C   UNL     1      -5.962  -5.067   3.109  0.00  0.00    -0.082 C 
ATOM     10  N   UNL     1      -6.641  -6.333   2.806  0.00  0.00    +0.379 N 
ATOM     11  C   UNL     1      -6.375  -6.724   1.417  0.00  0.00    -0.082 C 
ATOM     12  C   UNL     1      -4.877  -6.986   1.236  0.00  0.00    -0.010 C 
ATOM     13  H   UNL     1      -6.301  -7.053   3.427  0.00  0.00    -0.086 HD
ATOM     14  H   UNL     1      -7.635  -6.221   2.938  0.00  0.00    -0.086 HD
ENDROOT
BRANCH   5  15
ATOM     15  C   UNL     1      -2.323  -7.399   1.043  0.00  0.00    +0.218 C 
ATOM     16  O   UNL     1      -2.379  -7.699  -0.131  0.00  0.00    -0.275 OA
ATOM     17  N   UNL     1      -2.026  -8.335   1.965  0.00  0.00    -0.312 N 
ATOM     18  H   UNL     1      -1.982  -8.095   2.904  0.00  0.00    +0.149 HD
BRANCH  17  19
ATOM     19  C   UNL     1      -1.770  -9.717   1.550  0.00  0.00    +0.074 C 
ATOM     20  C   UNL     1      -0.303  -9.864   1.141  0.00  0.00    +0.028 C 
BRANCH  19  21
ATOM     21  C   UNL     1      -2.073 -10.664   2.713  0.00  0.00    +0.060 C 
BRANCH  21  22
ATOM     22  C   UNL     1      -3.545 -10.610   3.035  0.00  0.00    -0.004 A 
ATOM     23  C   UNL     1      -4.005  -9.766   4.027  0.00  0.00    +0.007 A 
ATOM     24  C   UNL     1      -5.354  -9.716   4.323  0.00  0.00    +0.000 A 
ATOM     25  C   UNL     1      -6.247 -10.510   3.627  0.00  0.00    +0.004 A 
ATOM     26  C   UNL     1      -5.792 -11.355   2.633  0.00  0.00    +0.046 A 
ATOM     27  C   UNL     1      -4.438 -11.403   2.331  0.00  0.00    +0.123 A 
BRANCH  27  28
ATOM     28  O   UNL     1      -3.989 -12.230   1.350  0.00  0.00    -0.495 OA
ATOM     29  C   UNL     1      -4.966 -13.018   0.667  0.00  0.00    +0.277 C 
ENDBRANCH  27  28
ENDBRANCH  21  22
ENDBRANCH  19  21
ENDBRANCH  17  19
ENDBRANCH   5  15
BRANCH   1  30
ATOM     30  C   UNL     1      -1.505  -2.056   0.063  0.00  0.00    +0.099 C 
BRANCH  30  31
ATOM     31  C   UNL     1      -1.546  -0.532  -0.063  0.00  0.00    -0.006 C 
ATOM     32  C   UNL     1      -2.299  -0.146  -1.338  0.00  0.00    +0.008 C 
BRANCH  31  34
ATOM     33  C   UNL     1      -0.155   1.543  -0.130  0.00  0.00    +0.004 C 
ATOM     34  C   UNL     1      -0.118   0.013  -0.129  0.00  0.00    +0.000 C 
ENDBRANCH  31  34
ENDBRANCH  30  31
ENDBRANCH   1  30
TORSDOF 8
