REMARK  Name = ZINC04285235
REMARK  5 active torsions:
REMARK  status: ('A' for Active; 'I' for Inactive)
REMARK    1  A    between atoms: C_1  and  C_2
REMARK    2  A    between atoms: N_4  and  C_5
REMARK    3  A    between atoms: C_8  and  N_11
REMARK    4  A    between atoms: C_12  and  C_14
REMARK    5  A    between atoms: C_14  and  N_15
REMARK                            x       y       z     vdW  Elec       q    Type
REMARK                         _______ _______ _______ _____ _____    ______ ____
ROOT
ATOM      1  N   UNL     1       0.289   1.695   3.217  0.00  0.00    -0.215 N 
ATOM      2  C   UNL     1      -0.091   0.567   2.583  0.00  0.00    +0.251 C 
ATOM      3  O   UNL     1       0.074  -0.575   2.957  0.00  0.00    -0.272 OA
ATOM      4  C   UNL     1      -0.766   1.024   1.310  0.00  0.00    +0.138 C 
ATOM      5  C   UNL     1      -0.010   0.502   0.095  0.00  0.00    +0.040 C 
ATOM      6  C   UNL     1      -0.823   0.828  -1.165  0.00  0.00    +0.008 C 
ATOM      7  C   UNL     1      -2.084  -0.033  -1.162  0.00  0.00    +0.035 C 
ATOM      8  C   UNL     1      -2.814   0.096   0.150  0.00  0.00    -0.042 A 
ATOM      9  C   UNL     1      -2.206   0.580   1.289  0.00  0.00    -0.012 A 
ATOM     10  C   UNL     1      -2.932   0.669   2.469  0.00  0.00    +0.006 A 
ATOM     11  C   UNL     1      -4.256   0.281   2.509  0.00  0.00    +0.000 A 
ATOM     12  C   UNL     1      -4.865  -0.202   1.367  0.00  0.00    +0.000 A 
ATOM     13  C   UNL     1      -4.146  -0.293   0.193  0.00  0.00    +0.004 A 
ATOM     14  N   UNL     1      -0.685   2.490   1.373  0.00  0.00    -0.281 N 
ATOM     15  C   UNL     1      -0.051   2.788   2.523  0.00  0.00    +0.310 C 
ATOM     16  O   UNL     1       0.185   3.923   2.890  0.00  0.00    -0.252 OA
ATOM     17  H   UNL     1      -1.022   3.119   0.716  0.00  0.00    +0.152 HD
ENDROOT
BRANCH   1  18
ATOM     18  C   UNL     1       0.987   1.722   4.504  0.00  0.00    +0.214 C 
BRANCH  18  20
ATOM     19  N   UNL     1       0.393   1.803   6.904  0.00  0.00    -0.284 N 
ATOM     20  C   UNL     1      -0.022   1.772   5.622  0.00  0.00    +0.235 C 
ATOM     21  O   UNL     1      -1.208   1.784   5.368  0.00  0.00    -0.274 OA
ATOM     22  H   UNL     1       1.337   1.719   7.110  0.00  0.00    +0.155 HD
BRANCH  19  26
ATOM     23  C   UNL     1      -2.381   2.261   9.983  0.00  0.00    +0.033 A 
ATOM     24  C   UNL     1      -1.243   1.491  10.183  0.00  0.00    +0.025 A 
ATOM     25  C   UNL     1      -0.325   1.339   9.164  0.00  0.00    +0.025 A 
ATOM     26  C   UNL     1      -0.539   1.957   7.938  0.00  0.00    +0.034 A 
ATOM     27  C   UNL     1      -1.674   2.732   7.740  0.00  0.00    +0.025 A 
ATOM     28  C   UNL     1      -2.596   2.878   8.758  0.00  0.00    +0.025 A 
BRANCH  23  32
ATOM     29  C   UNL     1      -5.639   2.549  11.851  0.00  0.00    +0.109 C 
ATOM     30  C   UNL     1      -4.629   2.488  10.734  0.00  0.00    +0.214 C 
ATOM     31  O   UNL     1      -5.000   2.505   9.579  0.00  0.00    -0.276 OA
ATOM     32  N   UNL     1      -3.313   2.414  11.017  0.00  0.00    -0.286 N 
ATOM     33  H   UNL     1      -3.012   2.467  11.938  0.00  0.00    +0.155 HD
ENDBRANCH  23  32
ENDBRANCH  19  26
ENDBRANCH  18  20
ENDBRANCH   1  18
TORSDOF 4
