REMARK  Name = ZINC45529498
REMARK  11 active torsions:
REMARK  status: ('A' for Active; 'I' for Inactive)
REMARK    1  A    between atoms: C_1  and  N_2
REMARK    2  A    between atoms: N_2  and  C_3
REMARK    3  A    between atoms: N_2  and  C_4
REMARK    4  A    between atoms: C_7  and  C_10
REMARK    5  A    between atoms: C_10  and  C_12
REMARK    6  A    between atoms: C_10  and  C_30
REMARK    7  A    between atoms: C_12  and  N_13
REMARK    8  A    between atoms: C_14  and  C_16
REMARK    9  A    between atoms: C_16  and  O_17
REMARK   10  A    between atoms: O_17  and  C_18
REMARK   11  A    between atoms: C_21  and  N_24
REMARK                            x       y       z     vdW  Elec       q    Type
REMARK                         _______ _______ _______ _____ _____    ______ ____
ROOT
ATOM      1  C   UNL     1      -4.849  -2.934   0.054  0.00  0.00    +0.068 C 
ENDROOT
BRANCH   1   2
ATOM      2  C   UNL     1      -5.646  -2.594  -1.179  0.00  0.00    -0.013 A 
ATOM      3  C   UNL     1      -6.088  -1.376  -1.533  0.00  0.00    +0.088 A 
ATOM      4  N   UNL     1      -6.774  -1.455  -2.714  0.00  0.00    -0.360 N 
ATOM      5  H   UNL     1      -7.187  -0.704  -3.169  0.00  0.00    +0.165 HD
ATOM      6  C   UNL     1      -6.790  -2.757  -3.160  0.00  0.00    +0.047 A 
ATOM      7  C   UNL     1      -6.079  -3.527  -2.221  0.00  0.00    +0.003 A 
ATOM      8  C   UNL     1      -5.926  -4.900  -2.419  0.00  0.00    +0.010 A 
ATOM      9  C   UNL     1      -6.466  -5.490  -3.527  0.00  0.00    +0.001 A 
ATOM     10  C   UNL     1      -7.165  -4.735  -4.458  0.00  0.00    +0.002 A 
ATOM     11  C   UNL     1      -7.336  -3.379  -4.278  0.00  0.00    +0.026 A 
ENDBRANCH   1   2
BRANCH   1  15
ATOM     12  C   UNL     1      -1.181  -0.740   0.031  0.00  0.00    +0.029 A 
ATOM     13  C   UNL     1      -1.161  -2.129   0.044  0.00  0.00    +0.023 A 
ATOM     14  C   UNL     1      -2.348  -2.835   0.052  0.00  0.00    +0.006 A 
ATOM     15  C   UNL     1      -3.556  -2.160   0.047  0.00  0.00    -0.038 A 
ATOM     16  C   UNL     1      -3.579  -0.778   0.034  0.00  0.00    +0.006 A 
ATOM     17  C   UNL     1      -2.396  -0.066   0.032  0.00  0.00    +0.023 A 
BRANCH  12  19
ATOM     18  C   UNL     1      -0.005   1.442   0.016  0.00  0.00    +0.129 C 
ATOM     19  N   UNL     1       0.017  -0.023   0.024  0.00  0.00    -0.336 N 
ATOM     20  C   UNL     1       1.297  -0.736   0.023  0.00  0.00    +0.129 C 
ENDBRANCH  12  19
ENDBRANCH   1  15
BRANCH   1  21
ATOM     21  C   UNL     1      -5.656  -2.566   1.301  0.00  0.00    +0.117 C 
BRANCH  21  22
ATOM     22  N   UNL     1      -6.856  -3.404   1.371  0.00  0.00    -0.312 N 
ATOM     23  C   UNL     1      -7.723  -3.255   2.392  0.00  0.00    +0.251 C 
ATOM     24  O   UNL     1      -7.510  -2.428   3.253  0.00  0.00    -0.272 OA
ATOM     25  H   UNL     1      -7.026  -4.065   0.682  0.00  0.00    +0.149 HD
BRANCH  23  26
ATOM     26  C   UNL     1      -8.957  -4.117   2.464  0.00  0.00    +0.324 C 
BRANCH  26  27
ATOM     27  O   UNL     1      -9.711  -3.773   3.628  0.00  0.00    -0.483 OA
BRANCH  27  28
ATOM     28  C   UNL     1     -10.863  -4.462   3.844  0.00  0.00    +0.121 A 
ATOM     29  C   UNL     1     -11.255  -5.452   2.955  0.00  0.00    +0.047 A 
ATOM     30  C   UNL     1     -12.425  -6.153   3.173  0.00  0.00    +0.027 A 
ATOM     31  C   UNL     1     -13.209  -5.865   4.282  0.00  0.00    +0.036 A 
ATOM     32  C   UNL     1     -12.816  -4.874   5.171  0.00  0.00    +0.027 A 
ATOM     33  C   UNL     1     -11.643  -4.178   4.955  0.00  0.00    +0.047 A 
BRANCH  31  34
ATOM     34  N   UNL     1     -14.397  -6.575   4.503  0.00  0.00    -0.271 N 
ATOM     35  C   UNL     1     -15.237  -6.431   5.698  0.00  0.00    +0.114 C 
ATOM     36  C   UNL     1     -16.603  -7.044   5.317  0.00  0.00    +0.029 C 
ATOM     37  C   UNL     1     -16.203  -8.039   4.203  0.00  0.00    +0.098 C 
ATOM     38  C   UNL     1     -14.915  -7.472   3.647  0.00  0.00    +0.220 C 
ATOM     39  O   UNL     1     -14.422  -7.783   2.583  0.00  0.00    -0.275 OA
ENDBRANCH  31  34
ENDBRANCH  27  28
ENDBRANCH  26  27
ENDBRANCH  23  26
ENDBRANCH  21  22
ENDBRANCH   1  21
TORSDOF 9
