REMARK  Name = ZINC18058166
REMARK  5 active torsions:
REMARK  status: ('A' for Active; 'I' for Inactive)
REMARK    1  A    between atoms: C_4  and  C_7
REMARK    2  A    between atoms: C_8  and  C_17
REMARK    3  A    between atoms: C_12  and  C_13
REMARK    4  A    between atoms: C_20  and  O_24
REMARK    5  A    between atoms: C_22  and  O_23
REMARK                            x       y       z     vdW  Elec       q    Type
REMARK                         _______ _______ _______ _____ _____    ______ ____
ROOT
ATOM      1  C   UNL     1       3.723  -0.646  -0.067  0.00  0.00    +0.039 A 
ATOM      2  C   UNL     1       4.145  -1.586  -1.041  0.00  0.00    +0.104 A 
ATOM      3  N   UNL     1       5.317  -2.054  -0.667  0.00  0.00    -0.173 NA
ATOM      4  N   UNL     1       5.676  -1.438   0.537  0.00  0.00    -0.272 N 
ATOM      5  H   UNL     1       6.492  -1.598   1.035  0.00  0.00    +0.189 HD
ATOM      6  C   UNL     1       4.695  -0.579   0.886  0.00  0.00    +0.147 A 
ENDROOT
BRANCH   1  10
ATOM      7  C   UNL     1       0.095   1.571  -0.120  0.00  0.00    +0.000 A 
ATOM      8  C   UNL     1       1.304   2.223  -0.286  0.00  0.00    +0.001 A 
ATOM      9  C   UNL     1       2.484   1.508  -0.269  0.00  0.00    +0.008 A 
ATOM     10  C   UNL     1       2.457   0.127  -0.085  0.00  0.00    -0.014 A 
ATOM     11  C   UNL     1       1.237  -0.524   0.082  0.00  0.00    +0.008 A 
ATOM     12  C   UNL     1       0.062   0.200   0.064  0.00  0.00    +0.001 A 
ENDBRANCH   1  10
BRANCH   2  13
ATOM     13  C   UNL     1       3.399  -1.974  -2.262  0.00  0.00    +0.044 A 
ATOM     14  C   UNL     1       2.851  -0.993  -3.086  0.00  0.00    +0.017 A 
ATOM     15  C   UNL     1       2.157  -1.356  -4.221  0.00  0.00    +0.046 A 
ATOM     16  C   UNL     1       2.003  -2.698  -4.547  0.00  0.00    +0.120 A 
ATOM     17  C   UNL     1       2.546  -3.680  -3.732  0.00  0.00    +0.091 A 
ATOM     18  C   UNL     1       3.249  -3.324  -2.593  0.00  0.00    +0.130 A 
BRANCH  18  19
ATOM     19  O   UNL     1       3.786  -4.285  -1.796  0.00  0.00    -0.506 OA
ATOM     20  H   UNL     1       3.193  -4.594  -1.098  0.00  0.00    +0.292 HD
ENDBRANCH  18  19
BRANCH  16  21
ATOM     21  O   UNL     1       1.319  -3.049  -5.666  0.00  0.00    -0.507 OA
ATOM     22  H   UNL     1       1.870  -3.124  -6.457  0.00  0.00    +0.292 HD
ENDBRANCH  16  21
ENDBRANCH   2  13
BRANCH   6  23
ATOM     23  C   UNL     1       4.677   0.297   2.112  0.00  0.00    +0.434 C 
ATOM     24  F   UNL     1       5.848   0.090   2.850  0.00  0.00    -0.164 F 
ATOM     25  F   UNL     1       4.601   1.639   1.726  0.00  0.00    -0.164 F 
ATOM     26  F   UNL     1       3.566  -0.026   2.899  0.00  0.00    -0.164 F 
ENDBRANCH   6  23
TORSDOF 5
