REMARK  Name = ZINC20865087
REMARK  7 active torsions:
REMARK  status: ('A' for Active; 'I' for Inactive)
REMARK    1  A    between atoms: C_4  and  C_7
REMARK    2  A    between atoms: C_8  and  C_26
REMARK    3  A    between atoms: C_10  and  S_13
REMARK    4  A    between atoms: S_13  and  C_14
REMARK    5  A    between atoms: C_14  and  C_15
REMARK    6  A    between atoms: N_17  and  C_18
REMARK    7  A    between atoms: C_19  and  C_23
REMARK                            x       y       z     vdW  Elec       q    Type
REMARK                         _______ _______ _______ _____ _____    ______ ____
ROOT
ATOM      1  C   UNL     1       2.099   0.671  -0.014  0.00  0.00    +0.075 A 
ATOM      2  C   UNL     1       1.278  -0.439  -0.013  0.00  0.00    +0.098 A 
ATOM      3  N   UNL     1       0.002  -0.004   0.002  0.00  0.00    -0.221 NA
ATOM      4  C   UNL     1      -0.016   1.308   0.009  0.00  0.00    +0.168 A 
ATOM      5  N   UNL     1       1.264   1.773  -0.001  0.00  0.00    -0.332 N 
ATOM      6  H   UNL     1       1.691   2.787   0.001  0.00  0.00    +0.168 HD
ENDROOT
BRANCH   1  10
ATOM      7  C   UNL     1       6.344   0.696  -0.053  0.00  0.00    +0.000 A 
ATOM      8  C   UNL     1       5.643   1.545  -0.891  0.00  0.00    +0.001 A 
ATOM      9  C   UNL     1       4.264   1.542  -0.884  0.00  0.00    +0.010 A 
ATOM     10  C   UNL     1       3.575   0.680  -0.028  0.00  0.00    +0.000 A 
ATOM     11  C   UNL     1       4.289  -0.171   0.819  0.00  0.00    +0.010 A 
ATOM     12  C   UNL     1       5.668  -0.161   0.798  0.00  0.00    +0.001 A 
ENDBRANCH   1  10
BRANCH   2  13
ATOM     13  C   UNL     1       1.719  -1.852  -0.024  0.00  0.00    +0.002 A 
ATOM     14  C   UNL     1       2.861  -2.224  -0.733  0.00  0.00    +0.010 A 
ATOM     15  C   UNL     1       3.270  -3.542  -0.736  0.00  0.00    +0.001 A 
ATOM     16  C   UNL     1       2.543  -4.496  -0.046  0.00  0.00    +0.000 A 
ATOM     17  C   UNL     1       1.407  -4.134   0.655  0.00  0.00    +0.001 A 
ATOM     18  C   UNL     1       0.991  -2.819   0.670  0.00  0.00    +0.010 A 
ENDBRANCH   2  13
BRANCH   4  19
ATOM     19  S   UNL     1      -1.466   2.309   0.022  0.00  0.00    -0.079 S 
BRANCH  19  20
ATOM     20  C   UNL     1      -2.737   1.020   0.022  0.00  0.00    +0.173 C 
BRANCH  20  21
ATOM     21  C   UNL     1      -4.101   1.661   0.032  0.00  0.00    +0.228 C 
ATOM     22  O   UNL     1      -4.204   2.869   0.039  0.00  0.00    -0.275 OA
ATOM     23  N   UNL     1      -5.207   0.890   0.034  0.00  0.00    -0.279 N 
ATOM     24  H   UNL     1      -5.114  -0.205   0.028  0.00  0.00    +0.155 HD
BRANCH  23  25
ATOM     25  C   UNL     1      -6.462   1.480   0.043  0.00  0.00    +0.084 A 
ATOM     26  C   UNL     1      -7.707   0.861   0.041  0.00  0.00    +0.065 A 
ATOM     27  C   UNL     1      -8.862   1.726   0.057  0.00  0.00    +0.022 A 
ATOM     28  C   UNL     1      -8.637   3.052   0.062  0.00  0.00    +0.048 A 
ATOM     29  S   UNL     1      -6.859   3.165   0.053  0.00  0.00    -0.081 S 
BRANCH  26  30
ATOM     30  C   UNL     1      -7.839  -0.600   0.027  0.00  0.00    +0.244 C 
ATOM     31  O   UNL     1      -6.845  -1.301   0.017  0.00  0.00    -0.270 OA
ATOM     32  N   UNL     1      -9.063  -1.165   0.025  0.00  0.00    -0.325 N 
ATOM     33  H   UNL     1      -9.162  -2.261   0.015  0.00  0.00    +0.145 HD
ATOM     34  H   UNL     1      -9.962  -0.531   0.034  0.00  0.00    +0.145 HD
ENDBRANCH  26  30
ENDBRANCH  23  25
ENDBRANCH  20  21
ENDBRANCH  19  20
ENDBRANCH   4  19
TORSDOF 7
