REMARK  Name = ZINC02096388
REMARK  5 active torsions:
REMARK  status: ('A' for Active; 'I' for Inactive)
REMARK    1  A    between atoms: C_4  and  C_7
REMARK    2  A    between atoms: C_7  and  C_8
REMARK    3  A    between atoms: C_8  and  C_10
REMARK    4  A    between atoms: C_8  and  N_21
REMARK    5  A    between atoms: N_12  and  C_13
REMARK                            x       y       z     vdW  Elec       q    Type
REMARK                         _______ _______ _______ _____ _____    ______ ____
ROOT
ATOM      1  C   UNL     1       2.407   1.126   0.231  0.00  0.00    +0.165 C 
ENDROOT
BRANCH   1   2
ATOM      2  N   UNL     1       1.088   1.764   0.203  0.00  0.00    -0.288 N 
ATOM      3  C   UNL     1      -0.006   1.066   0.568  0.00  0.00    +0.303 C 
ATOM      4  O   UNL     1       0.087  -0.118   0.829  0.00  0.00    -0.253 OA
ATOM      5  N   UNL     1      -1.204   1.679   0.639  0.00  0.00    -0.285 N 
ATOM      6  C   UNL     1      -1.354   3.081   0.230  0.00  0.00    +0.114 C 
ATOM      7  C   UNL     1      -2.067   3.875   1.310  0.00  0.00    +0.027 C 
ATOM      8  C   UNL     1      -3.348   3.170   1.757  0.00  0.00    +0.018 C 
ATOM      9  C   UNL     1      -2.976   1.785   2.292  0.00  0.00    +0.054 C 
ATOM     10  C   UNL     1      -2.389   0.961   1.134  0.00  0.00    +0.119 C 
ATOM     11  C   UNL     1      -1.906   1.919   3.350  0.00  0.00    +0.027 A 
ATOM     12  C   UNL     1      -1.850   0.958   4.310  0.00  0.00    +0.022 A 
ATOM     13  C   UNL     1      -0.844   0.981   5.282  0.00  0.00    +0.007 A 
ATOM     14  C   UNL     1       0.097   1.967   5.234  0.00  0.00    +0.070 A 
ATOM     15  C   UNL     1       0.013   2.941   4.229  0.00  0.00    +0.251 A 
ATOM     16  O   UNL     1       0.885   3.789   4.135  0.00  0.00    -0.268 OA
ATOM     17  N   UNL     1      -1.028   2.948   3.360  0.00  0.00    -0.312 N 
ATOM     18  C   UNL     1      -1.172   4.130   2.508  0.00  0.00    +0.130 C 
ATOM     19  H   UNL     1       1.002   2.688  -0.077  0.00  0.00    +0.151 HD
ENDBRANCH   1   2
BRANCH   1  20
ATOM     20  C   UNL     1       3.402   2.058   0.872  0.00  0.00    +0.238 C 
ATOM     21  O   UNL     1       3.046   3.148   1.267  0.00  0.00    -0.273 OA
ATOM     22  N   UNL     1       4.689   1.680   1.007  0.00  0.00    -0.284 N 
ATOM     23  H   UNL     1       4.992   0.844   0.620  0.00  0.00    +0.155 HD
BRANCH  22  24
ATOM     24  C   UNL     1       5.588   2.495   1.705  0.00  0.00    +0.036 A 
ATOM     25  C   UNL     1       6.926   2.530   1.335  0.00  0.00    +0.026 A 
ATOM     26  C   UNL     1       7.812   3.338   2.021  0.00  0.00    +0.043 A 
ATOM     27  C   UNL     1       7.369   4.106   3.085  0.00  0.00    +0.159 A 
ATOM     28  C   UNL     1       6.035   4.069   3.460  0.00  0.00    +0.160 A 
ATOM     29  C   UNL     1       5.145   3.265   2.772  0.00  0.00    +0.064 A 
ATOM     30  F   UNL     1       5.604   4.819   4.498  0.00  0.00    -0.202 F 
ATOM     31  F   UNL     1       8.238   4.892   3.758  0.00  0.00    -0.202 F 
ENDBRANCH  22  24
ENDBRANCH   1  20
BRANCH   1  32
ATOM     32  C   UNL     1       2.851   0.810  -1.198  0.00  0.00    +0.067 C 
BRANCH  32  36
ATOM     33  C   UNL     1       0.250  -2.131  -2.881  0.00  0.00    +0.000 A 
ATOM     34  C   UNL     1       0.012  -0.788  -3.107  0.00  0.00    +0.000 A 
ATOM     35  C   UNL     1       0.854   0.164  -2.562  0.00  0.00    +0.004 A 
ATOM     36  C   UNL     1       1.933  -0.227  -1.792  0.00  0.00    -0.045 A 
ATOM     37  C   UNL     1       2.174  -1.571  -1.571  0.00  0.00    +0.004 A 
ATOM     38  C   UNL     1       1.330  -2.522  -2.112  0.00  0.00    +0.000 A 
ENDBRANCH  32  36
ENDBRANCH   1  32
TORSDOF 5
