REMARK  Name = ZINC00083731
REMARK  5 active torsions:
REMARK  status: ('A' for Active; 'I' for Inactive)
REMARK    1  A    between atoms: C_1  and  C_2
REMARK    2  A    between atoms: C_2  and  N_15
REMARK    3  A    between atoms: C_7  and  C_9
REMARK    4  A    between atoms: N_15  and  C_16
REMARK    5  A    between atoms: N_15  and  C_17
REMARK                            x       y       z     vdW  Elec       q    Type
REMARK                         _______ _______ _______ _____ _____    ______ ____
ROOT
ATOM      1  C   UNL     1       3.104   3.571   0.057  0.00  0.00    +0.063 C 
ATOM      2  C   UNL     1       1.682   3.075   0.001  0.00  0.00    +0.036 C 
ATOM      3  C   UNL     1       1.423   1.720   0.011  0.00  0.00    +0.168 C 
ATOM      4  C   UNL     1       2.379   0.668  -0.051  0.00  0.00    +0.366 C 
ATOM      5  O   UNL     1       3.590   0.781  -0.126  0.00  0.00    -0.243 OA
ATOM      6  O   UNL     1       1.673  -0.480  -0.013  0.00  0.00    -0.402 OA
ATOM      7  C   UNL     1       0.362  -0.174   0.069  0.00  0.00    +0.232 C 
ATOM      8  N   UNL     1       0.198   1.120   0.084  0.00  0.00    -0.204 NA
ENDROOT
BRANCH   7   9
ATOM      9  C   UNL     1      -0.733  -1.163   0.131  0.00  0.00    +0.037 A 
ATOM     10  C   UNL     1      -2.060  -0.737   0.220  0.00  0.00    +0.013 A 
ATOM     11  C   UNL     1      -3.078  -1.666   0.273  0.00  0.00    +0.001 A 
ATOM     12  C   UNL     1      -2.786  -3.018   0.249  0.00  0.00    +0.000 A 
ATOM     13  C   UNL     1      -1.474  -3.448   0.167  0.00  0.00    +0.001 A 
ATOM     14  C   UNL     1      -0.446  -2.529   0.108  0.00  0.00    +0.013 A 
ENDBRANCH   7   9
BRANCH   2  15
ATOM     15  N   UNL     1       0.654   3.963  -0.061  0.00  0.00    -0.338 N 
ATOM     16  C   UNL     1      -0.315   4.039   1.036  0.00  0.00    +0.128 C 
ATOM     17  C   UNL     1       0.515   4.844  -1.223  0.00  0.00    +0.128 C 
ENDBRANCH   2  15
TORSDOF 2
