REMARK  Name = ZINC09065340
REMARK  10 active torsions:
REMARK  status: ('A' for Active; 'I' for Inactive)
REMARK    1  A    between atoms: C_1  and  C_2
REMARK    2  A    between atoms: C_2  and  C_3
REMARK    3  A    between atoms: C_3  and  C_30
REMARK    4  A    between atoms: N_4  and  N_5
REMARK    5  A    between atoms: C_6  and  C_8
REMARK    6  A    between atoms: C_8  and  C_10
REMARK    7  A    between atoms: C_8  and  N_21
REMARK    8  A    between atoms: C_17  and  O_20
REMARK    9  A    between atoms: C_22  and  C_24
REMARK   10  A    between atoms: C_30  and  C_31
REMARK                            x       y       z     vdW  Elec       q    Type
REMARK                         _______ _______ _______ _____ _____    ______ ____
ROOT
ATOM      1  C   UNL     1      -1.361   6.037   0.048  0.00  0.00    +0.212 C 
ENDROOT
BRANCH   1   2
ATOM      2  C   UNL     1      -0.076   5.251   0.032  0.00  0.00    +0.101 A 
ATOM      3  C   UNL     1      -0.100   3.844   0.024  0.00  0.00    +0.013 A 
ATOM      4  C   UNL     1      -1.291   3.106   0.031  0.00  0.00    +0.010 A 
ATOM      5  C   UNL     1      -1.235   1.745   0.018  0.00  0.00    +0.001 A 
ATOM      6  C   UNL     1      -0.013   1.076   0.008  0.00  0.00    +0.001 A 
ATOM      7  C   UNL     1       1.165   1.763   0.000  0.00  0.00    +0.014 A 
ATOM      8  C   UNL     1       1.145   3.162   0.008  0.00  0.00    +0.047 A 
ATOM      9  C   UNL     1       2.320   3.943   0.002  0.00  0.00    +0.240 A 
ATOM     10  N   UNL     1       2.209   5.258   0.010  0.00  0.00    -0.111 NA
ATOM     11  N   UNL     1       1.083   5.868   0.024  0.00  0.00    -0.148 NA
BRANCH   9  12
ATOM     12  O   UNL     1       3.541   3.354  -0.013  0.00  0.00    -0.491 OA
ATOM     13  H   UNL     1       3.887   3.188  -0.900  0.00  0.00    +0.294 HD
ENDBRANCH   9  12
ENDBRANCH   1   2
BRANCH   1  15
ATOM     14  N   UNL     1      -1.696   5.780   2.485  0.00  0.00    -0.205 N 
ATOM     15  C   UNL     1      -1.585   6.605   1.425  0.00  0.00    +0.259 C 
ATOM     16  O   UNL     1      -1.666   7.806   1.581  0.00  0.00    -0.272 OA
ATOM     17  H   UNL     1      -1.631   4.820   2.361  0.00  0.00    +0.177 HD
BRANCH  14  19
ATOM     18  C   UNL     1      -2.009   5.524   4.772  0.00  0.00    +0.041 C 
ATOM     19  N   UNL     1      -1.904   6.308   3.766  0.00  0.00    -0.189 NA
BRANCH  18  21
ATOM     20  C   UNL     1      -0.447   3.598   4.717  0.00  0.00    +0.010 C 
ATOM     21  C   UNL     1      -1.908   4.032   4.579  0.00  0.00    +0.049 C 
ENDBRANCH  18  21
BRANCH  18  22
ATOM     22  C   UNL     1      -2.233   6.091   6.150  0.00  0.00    +0.087 C 
BRANCH  22  23
ATOM     23  C   UNL     1      -3.586   5.663   6.656  0.00  0.00    -0.042 A 
ATOM     24  C   UNL     1      -4.697   6.448   6.409  0.00  0.00    +0.004 A 
ATOM     25  C   UNL     1      -5.939   6.052   6.869  0.00  0.00    +0.000 A 
ATOM     26  C   UNL     1      -6.069   4.876   7.584  0.00  0.00    +0.000 A 
ATOM     27  C   UNL     1      -4.957   4.094   7.836  0.00  0.00    +0.000 A 
ATOM     28  C   UNL     1      -3.716   4.487   7.371  0.00  0.00    +0.004 A 
ENDBRANCH  22  23
ENDBRANCH  18  22
ENDBRANCH  14  19
ENDBRANCH   1  15
BRANCH   1  29
ATOM     29  N   UNL     1      -1.276   7.131  -0.924  0.00  0.00    -0.295 N 
ATOM     30  C   UNL     1      -1.580   6.908  -2.218  0.00  0.00    +0.245 C 
ATOM     31  O   UNL     1      -1.924   5.799  -2.579  0.00  0.00    -0.270 OA
ATOM     32  H   UNL     1      -1.002   8.015  -0.635  0.00  0.00    +0.150 HD
BRANCH  30  33
ATOM     33  C   UNL     1      -1.495   8.011  -3.198  0.00  0.00    +0.037 A 
ATOM     34  C   UNL     1      -1.106   9.287  -2.785  0.00  0.00    +0.013 A 
ATOM     35  C   UNL     1      -1.023  10.311  -3.706  0.00  0.00    +0.001 A 
ATOM     36  C   UNL     1      -1.335  10.078  -5.034  0.00  0.00    +0.000 A 
ATOM     37  C   UNL     1      -1.727   8.818  -5.448  0.00  0.00    +0.001 A 
ATOM     38  C   UNL     1      -1.808   7.784  -4.539  0.00  0.00    +0.013 A 
ENDBRANCH  30  33
ENDBRANCH   1  29
TORSDOF 9
