REMARK  Name = ZINC08721981
REMARK  4 active torsions:
REMARK  status: ('A' for Active; 'I' for Inactive)
REMARK    1  A    between atoms: C_4  and  C_7
REMARK    2  A    between atoms: C_7  and  N_50
REMARK    3  A    between atoms: C_18  and  C_21
REMARK    4  A    between atoms: C_26  and  N_27
REMARK                            x       y       z     vdW  Elec       q    Type
REMARK                         _______ _______ _______ _____ _____    ______ ____
ROOT
ATOM      1  C   UNL     1       6.052   4.912  -1.922  0.00  0.00    -0.073 C 
ATOM      2  C   UNL     1       6.239   4.746  -3.433  0.00  0.00    +0.018 C 
ATOM      3  C   UNL     1       5.058   5.406  -4.135  0.00  0.00    -0.027 A 
ATOM      4  C   UNL     1       3.928   5.680  -3.443  0.00  0.00    -0.021 A 
ATOM      5  S   UNL     1       2.842   6.435  -4.622  0.00  0.00    -0.080 S 
ATOM      6  C   UNL     1       3.864   6.387  -5.996  0.00  0.00    +0.080 A 
ATOM      7  C   UNL     1       5.045   5.782  -5.537  0.00  0.00    +0.068 A 
ATOM      8  C   UNL     1       6.140   5.592  -6.516  0.00  0.00    +0.248 C 
ATOM      9  O   UNL     1       7.233   5.179  -6.171  0.00  0.00    -0.270 OA
ATOM     10  N   UNL     1       5.878   5.894  -7.804  0.00  0.00    -0.289 N 
ATOM     11  C   UNL     1       4.536   6.159  -8.312  0.00  0.00    +0.192 C 
ATOM     12  N   UNL     1       3.695   6.808  -7.289  0.00  0.00    -0.316 N 
ATOM     13  C   UNL     1       3.679   5.394  -1.995  0.00  0.00    -0.035 C 
ATOM     14  H   UNL     1       6.621   5.938  -8.426  0.00  0.00    +0.151 HD
ATOM     15  H   UNL     1       3.054   7.498  -7.520  0.00  0.00    +0.149 HD
ATOM     16  N   UNL     1       4.710   4.429  -1.539  0.00  0.00    +0.386 N 
ATOM     17  H   UNL     1       4.540   3.522  -1.988  0.00  0.00    -0.081 HD
ENDROOT
BRANCH  11  18
ATOM     18  C   UNL     1       3.897   4.857  -8.723  0.00  0.00    +0.021 A 
ATOM     19  C   UNL     1       4.327   3.670  -8.160  0.00  0.00    +0.009 A 
ATOM     20  C   UNL     1       3.741   2.475  -8.537  0.00  0.00    +0.001 A 
ATOM     21  C   UNL     1       2.726   2.469  -9.476  0.00  0.00    +0.002 A 
ATOM     22  C   UNL     1       2.297   3.656 -10.038  0.00  0.00    +0.033 A 
ATOM     23  C   UNL     1       2.879   4.851  -9.657  0.00  0.00    +0.133 A 
BRANCH  23  24
ATOM     24  N   UNL     1       2.416   6.124 -10.255  0.00  0.00    +0.057 N 
ATOM     25  O   UNL     1       1.605   6.110 -11.164  0.00  0.00    -0.126 OA
ATOM     26  O   UNL     1       2.846   7.185  -9.838  0.00  0.00    -0.126 OA
ENDBRANCH  23  24
ENDBRANCH  11  18
BRANCH  16  27
ATOM     27  C   UNL     1       4.631   4.262  -0.072  0.00  0.00    -0.043 C 
BRANCH  27  31
ATOM     28  C   UNL     1       0.959   2.307   0.897  0.00  0.00    +0.000 A 
ATOM     29  C   UNL     1       2.092   1.559   0.636  0.00  0.00    +0.000 A 
ATOM     30  C   UNL     1       3.280   2.192   0.321  0.00  0.00    +0.002 A 
ATOM     31  C   UNL     1       3.336   3.572   0.272  0.00  0.00    -0.064 A 
ATOM     32  C   UNL     1       2.204   4.320   0.538  0.00  0.00    +0.002 A 
ATOM     33  C   UNL     1       1.017   3.687   0.854  0.00  0.00    +0.000 A 
ENDBRANCH  27  31
ENDBRANCH  16  27
TORSDOF 4
