REMARK  Name = ZINC21250804
REMARK  12 active torsions:
REMARK  status: ('A' for Active; 'I' for Inactive)
REMARK    1  A    between atoms: C_1  and  C_2
REMARK    2  A    between atoms: C_2  and  C_3
REMARK    3  A    between atoms: C_2  and  O_4
REMARK    4  A    between atoms: O_4  and  C_5
REMARK    5  A    between atoms: C_8  and  C_13
REMARK    6  A    between atoms: C_10  and  O_11
REMARK    7  A    between atoms: O_11  and  C_12
REMARK    8  A    between atoms: C_18  and  C_23
REMARK    9  A    between atoms: C_26  and  O_31
REMARK   10  A    between atoms: C_27  and  O_29
REMARK   11  A    between atoms: O_29  and  C_30
REMARK   12  A    between atoms: O_31  and  C_32
REMARK                            x       y       z     vdW  Elec       q    Type
REMARK                         _______ _______ _______ _____ _____    ______ ____
ROOT
ATOM      1  C   UNL     1      -5.718  -1.899   0.109  0.00  0.00    +0.136 C 
ATOM      2  C   UNL     1      -4.391  -1.183   0.170  0.00  0.00    +0.036 C 
ATOM      3  C   UNL     1      -3.696  -0.721  -0.884  0.00  0.00    +0.017 C 
ATOM      4  C   UNL     1      -2.363  -0.020  -0.679  0.00  0.00    +0.059 C 
ATOM      5  C   UNL     1      -2.374   0.742   0.645  0.00  0.00    +0.032 C 
ATOM      6  C   UNL     1      -2.616  -0.276   1.766  0.00  0.00    +0.088 C 
ATOM      7  C   UNL     1      -3.897  -1.003   1.483  0.00  0.00    +0.163 C 
ATOM      8  O   UNL     1      -4.533  -1.453   2.416  0.00  0.00    -0.292 OA
ATOM      9  N   UNL     1      -4.084  -0.839  -2.179  0.00  0.00    -0.316 N 
ATOM     10  C   UNL     1      -5.360  -0.561  -2.654  0.00  0.00    +0.052 A 
ATOM     11  C   UNL     1      -5.611   0.471  -3.541  0.00  0.00    +0.025 A 
ATOM     12  C   UNL     1      -6.899   0.664  -4.012  0.00  0.00    +0.002 A 
ATOM     13  C   UNL     1      -7.923  -0.170  -3.602  0.00  0.00    +0.002 A 
ATOM     14  C   UNL     1      -7.677  -1.192  -2.701  0.00  0.00    +0.025 A 
ATOM     15  C   UNL     1      -6.394  -1.372  -2.211  0.00  0.00    +0.049 A 
ATOM     16  N   UNL     1      -6.119  -2.313  -1.219  0.00  0.00    -0.331 N 
ATOM     17  H   UNL     1      -3.365  -1.178  -2.940  0.00  0.00    +0.152 HD
ATOM     18  H   UNL     1      -6.212  -3.382  -1.458  0.00  0.00    +0.147 HD
ENDROOT
BRANCH   1  22
ATOM     19  C   UNL     1      -8.730   0.698   1.682  0.00  0.00    +0.162 A 
ATOM     20  C   UNL     1      -8.042   1.047   0.531  0.00  0.00    +0.050 A 
ATOM     21  C   UNL     1      -7.065   0.208   0.028  0.00  0.00    +0.009 A 
ATOM     22  C   UNL     1      -6.780  -0.986   0.665  0.00  0.00    -0.019 A 
ATOM     23  C   UNL     1      -7.462  -1.340   1.814  0.00  0.00    +0.055 A 
ATOM     24  C   UNL     1      -8.438  -0.501   2.327  0.00  0.00    +0.162 A 
BRANCH  24  25
ATOM     25  O   UNL     1      -9.110  -0.847   3.457  0.00  0.00    -0.491 OA
ATOM     26  C   UNL     1      -8.758  -2.092   4.065  0.00  0.00    +0.277 C 
ENDBRANCH  24  25
BRANCH  19  27
ATOM     27  O   UNL     1      -9.687   1.525   2.182  0.00  0.00    -0.486 OA
BRANCH  27  29
ATOM     28  C   UNL     1     -11.446   3.121   1.734  0.00  0.00    +0.051 C 
ATOM     29  C   UNL     1     -10.019   2.677   1.404  0.00  0.00    +0.167 C 
ATOM     30  C   UNL     1      -9.044   3.810   1.728  0.00  0.00    +0.051 C 
ENDBRANCH  27  29
ENDBRANCH  19  27
ENDBRANCH   1  22
BRANCH   5  31
ATOM     31  C   UNL     1      -1.046   1.424   0.853  0.00  0.00    -0.040 A 
ATOM     32  C   UNL     1       0.117   0.677   0.877  0.00  0.00    +0.008 A 
ATOM     33  C   UNL     1       1.338   1.299   1.062  0.00  0.00    +0.049 A 
ATOM     34  C   UNL     1       1.397   2.673   1.229  0.00  0.00    +0.161 A 
ATOM     35  C   UNL     1       0.226   3.425   1.210  0.00  0.00    +0.162 A 
ATOM     36  C   UNL     1      -0.995   2.795   1.024  0.00  0.00    +0.053 A 
BRANCH  35  37
ATOM     37  O   UNL     1       0.279   4.774   1.374  0.00  0.00    -0.491 OA
ATOM     38  C   UNL     1      -0.963   5.480   1.343  0.00  0.00    +0.277 C 
ENDBRANCH  35  37
BRANCH  34  39
ATOM     39  O   UNL     1       2.597   3.287   1.410  0.00  0.00    -0.491 OA
ATOM     40  C   UNL     1       3.757   2.452   1.418  0.00  0.00    +0.277 C 
ENDBRANCH  34  39
ENDBRANCH   5  31
TORSDOF 7
