REMARK  Name = ZINC49545639
REMARK  4 active torsions:
REMARK  status: ('A' for Active; 'I' for Inactive)
REMARK    1  A    between atoms: C_3  and  C_6
REMARK    2  A    between atoms: N_11  and  C_13
REMARK    3  A    between atoms: C_13  and  C_14
REMARK    4  A    between atoms: N_16  and  C_17
REMARK                            x       y       z     vdW  Elec       q    Type
REMARK                         _______ _______ _______ _____ _____    ______ ____
ROOT
ATOM      1  C   UNL     1       5.394   5.564  -1.427  0.00  0.00    +0.239 C 
ATOM      2  O   UNL     1       5.295   4.790  -2.356  0.00  0.00    -0.273 OA
ATOM      3  N   UNL     1       5.554   6.882  -1.663  0.00  0.00    -0.284 N 
ATOM      4  H   UNL     1       5.566   7.508  -0.923  0.00  0.00    +0.155 HD
ENDROOT
BRANCH   3   5
ATOM      5  C   UNL     1       5.703   7.346  -2.977  0.00  0.00    +0.034 A 
ATOM      6  C   UNL     1       5.008   6.727  -4.015  0.00  0.00    +0.025 A 
ATOM      7  C   UNL     1       5.142   7.171  -5.310  0.00  0.00    +0.028 A 
ATOM      8  C   UNL     1       5.978   8.246  -5.595  0.00  0.00    +0.047 A 
ATOM      9  C   UNL     1       6.680   8.874  -4.550  0.00  0.00    +0.001 A 
ATOM     10  C   UNL     1       6.533   8.419  -3.238  0.00  0.00    +0.033 A 
ATOM     11  C   UNL     1       7.457   9.949  -5.172  0.00  0.00    +0.027 A 
ATOM     12  C   UNL     1       7.193   9.913  -6.488  0.00  0.00    +0.083 A 
ATOM     13  N   UNL     1       6.312   8.903  -6.760  0.00  0.00    -0.361 N 
ATOM     14  H   UNL     1       5.973   8.681  -7.641  0.00  0.00    +0.165 HD
ENDBRANCH   3   5
BRANCH   1  15
ATOM     15  C   UNL     1       5.339   5.053  -0.011  0.00  0.00    +0.243 C 
BRANCH  15  21
ATOM     16  C   UNL     1       3.741   1.822  -0.032  0.00  0.00    +0.098 A 
ATOM     17  C   UNL     1       4.821   0.905  -0.045  0.00  0.00    +0.036 A 
ATOM     18  C   UNL     1       6.089   1.403  -0.046  0.00  0.00    +0.074 A 
ATOM     19  C   UNL     1       6.250   2.807  -0.035  0.00  0.00    +0.268 A 
ATOM     20  O   UNL     1       7.367   3.297  -0.035  0.00  0.00    -0.266 OA
ATOM     21  N   UNL     1       5.162   3.599  -0.023  0.00  0.00    -0.220 N 
ATOM     22  N   UNL     1       3.972   3.115  -0.028  0.00  0.00    -0.167 NA
BRANCH  16  25
ATOM     23  C   UNL     1      -0.013   1.340  -0.025  0.00  0.00    +0.008 A 
ATOM     24  C   UNL     1       1.179   2.031  -0.024  0.00  0.00    +0.018 A 
ATOM     25  C   UNL     1       2.350   1.322  -0.030  0.00  0.00    +0.039 A 
ATOM     26  S   UNL     1       1.760  -0.363  -0.036  0.00  0.00    -0.095 S 
ATOM     27  C   UNL     1       0.009  -0.018  -0.030  0.00  0.00    +0.046 A 
ENDBRANCH  16  25
ENDBRANCH  15  21
ENDBRANCH   1  15
TORSDOF 4
