REMARK  Name = ZINC16450867
REMARK  3 active torsions:
REMARK  status: ('A' for Active; 'I' for Inactive)
REMARK    1  A    between atoms: C_4  and  C_7
REMARK    2  A    between atoms: C_8  and  C_9
REMARK    3  A    between atoms: N_16  and  C_19
REMARK                            x       y       z     vdW  Elec       q    Type
REMARK                         _______ _______ _______ _____ _____    ______ ____
ROOT
ATOM      1  C   UNL     1       1.280   1.431   1.314  0.00  0.00    +0.018 C 
ATOM      2  C   UNL     1       2.447   0.939   0.741  0.00  0.00    +0.100 C 
ATOM      3  C   UNL     1       2.459  -0.331  -0.008  0.00  0.00    +0.257 C 
ATOM      4  O   UNL     1       1.443  -0.985  -0.145  0.00  0.00    -0.270 OA
ATOM      5  N   UNL     1       3.627  -0.745  -0.541  0.00  0.00    -0.235 N 
ATOM      6  C   UNL     1       4.756  -0.037  -0.393  0.00  0.00    +0.320 C 
ATOM      7  O   UNL     1       5.776  -0.468  -0.894  0.00  0.00    -0.251 OA
ATOM      8  N   UNL     1       4.818   1.122   0.278  0.00  0.00    -0.190 N 
ATOM      9  C   UNL     1       3.727   1.660   0.860  0.00  0.00    +0.263 C 
ATOM     10  O   UNL     1       3.797   2.712   1.468  0.00  0.00    -0.269 OA
ATOM     11  H   UNL     1       3.652  -1.577  -1.039  0.00  0.00    +0.159 HD
ENDROOT
BRANCH   8  12
ATOM     12  C   UNL     1       6.046   1.789   0.378  0.00  0.00    +0.047 A 
ATOM     13  C   UNL     1       6.907   1.508   1.431  0.00  0.00    +0.024 A 
ATOM     14  C   UNL     1       8.117   2.167   1.528  0.00  0.00    +0.003 A 
ATOM     15  C   UNL     1       8.473   3.106   0.577  0.00  0.00    +0.020 A 
ATOM     16  C   UNL     1       7.618   3.388  -0.474  0.00  0.00    +0.043 A 
ATOM     17  C   UNL     1       6.407   2.728  -0.578  0.00  0.00    +0.044 A 
ATOM     18 CL   UNL     1       8.068   4.567  -1.666  0.00  0.00    -0.083 Cl
ENDBRANCH   8  12
BRANCH   1  20
ATOM     19  C   UNL     1      -1.053   1.175   1.767  0.00  0.00    +0.008 C 
ATOM     20  C   UNL     1       0.118   0.650   1.318  0.00  0.00    +0.001 C 
BRANCH  19  24
ATOM     21  C   UNL     1      -4.575  -1.183   1.762  0.00  0.00    +0.000 A 
ATOM     22  C   UNL     1      -4.621   0.122   2.222  0.00  0.00    +0.001 A 
ATOM     23  C   UNL     1      -3.481   0.896   2.227  0.00  0.00    +0.008 A 
ATOM     24  C   UNL     1      -2.273   0.358   1.766  0.00  0.00    -0.025 A 
ATOM     25  C   UNL     1      -2.236  -0.961   1.298  0.00  0.00    +0.008 A 
ATOM     26  C   UNL     1      -3.385  -1.723   1.305  0.00  0.00    +0.001 A 
ENDBRANCH  19  24
ENDBRANCH   1  20
TORSDOF 3
