REMARK  Name = ZINC09508988
REMARK  9 active torsions:
REMARK  status: ('A' for Active; 'I' for Inactive)
REMARK    1  A    between atoms: C_1  and  C_2
REMARK    2  A    between atoms: C_5  and  S_24
REMARK    3  A    between atoms: C_7  and  N_8
REMARK    4  A    between atoms: C_9  and  C_11
REMARK    5  A    between atoms: C_11  and  N_12
REMARK    6  A    between atoms: N_12  and  C_13
REMARK    7  A    between atoms: C_13  and  C_15
REMARK    8  A    between atoms: C_13  and  C_16
REMARK    9  A    between atoms: S_24  and  N_27
REMARK                            x       y       z     vdW  Elec       q    Type
REMARK                         _______ _______ _______ _____ _____    ______ ____
ROOT
ATOM      1  N   UNL     1       0.025  -0.015   2.417  0.00  0.00    -0.287 N 
ATOM      2  C   UNL     1      -0.631  -0.520   3.480  0.00  0.00    +0.200 C 
ATOM      3  O   UNL     1      -1.147  -1.616   3.409  0.00  0.00    -0.278 OA
ATOM      4  H   UNL     1       0.493   0.832   2.493  0.00  0.00    +0.155 HD
ENDROOT
BRANCH   1  11
ATOM      5  C   UNL     1      -0.008   1.492   0.004  0.00  0.00    +0.045 C 
ATOM      6  C   UNL     1       0.016  -0.014   0.002  0.00  0.00    -0.029 A 
ATOM      7  C   UNL     1       0.029  -0.704  -1.195  0.00  0.00    +0.007 A 
ATOM      8  C   UNL     1       0.051  -2.087  -1.197  0.00  0.00    +0.029 A 
ATOM      9  C   UNL     1       0.061  -2.783  -0.002  0.00  0.00    +0.107 A 
ATOM     10  C   UNL     1       0.049  -2.099   1.197  0.00  0.00    +0.052 A 
ATOM     11  C   UNL     1       0.032  -0.711   1.203  0.00  0.00    +0.038 A 
BRANCH   9  12
ATOM     12  S   UNL     1       0.089  -4.545  -0.011  0.00  0.00    +0.061 S 
ATOM     13  O   UNL     1      -0.456  -4.966   1.232  0.00  0.00    -0.153 OA
ATOM     14  O   UNL     1      -0.455  -4.954  -1.258  0.00  0.00    -0.153 OA
BRANCH  12  15
ATOM     15  N   UNL     1       1.679  -5.010  -0.012  0.00  0.00    -0.177 NA
ATOM     16  C   UNL     1       2.399  -5.208  -1.277  0.00  0.00    +0.109 C 
ATOM     17  C   UNL     1       3.679  -4.365  -1.253  0.00  0.00    +0.017 C 
ATOM     18  C   UNL     1       4.492  -4.716  -0.004  0.00  0.00    +0.003 C 
ATOM     19  C   UNL     1       3.674  -4.389   1.247  0.00  0.00    +0.017 C 
ATOM     20  C   UNL     1       2.397  -5.226   1.251  0.00  0.00    +0.109 C 
ENDBRANCH  12  15
ENDBRANCH   9  12
ENDBRANCH   1  11
BRANCH   2  21
ATOM     21  C   UNL     1      -0.725   0.276   4.756  0.00  0.00    +0.016 C 
BRANCH  21  22
ATOM     22  N   UNL     1      -1.484  -0.488   5.755  0.00  0.00    +0.389 N 
ATOM     23  H   UNL     1      -2.413  -0.670   5.404  0.00  0.00    -0.084 HD
ATOM     24  H   UNL     1      -1.016  -1.363   5.938  0.00  0.00    -0.084 HD
BRANCH  22  25
ATOM     25  C   UNL     1      -1.575   0.288   6.999  0.00  0.00    -0.043 C 
ATOM     26  C   UNL     1      -2.394   1.556   6.751  0.00  0.00    -0.009 C 
BRANCH  25  27
ATOM     27  C   UNL     1      -2.247  -0.543   8.062  0.00  0.00    -0.060 A 
ATOM     28  C   UNL     1      -3.321  -1.349   7.732  0.00  0.00    +0.003 A 
ATOM     29  C   UNL     1      -3.938  -2.111   8.706  0.00  0.00    +0.021 A 
ATOM     30  C   UNL     1      -3.481  -2.069  10.011  0.00  0.00    +0.059 A 
ATOM     31  C   UNL     1      -2.405  -1.263  10.341  0.00  0.00    +0.059 A 
ATOM     32  C   UNL     1      -1.785  -0.504   9.364  0.00  0.00    +0.023 A 
ATOM     33 CL   UNL     1      -1.830  -1.208  11.978  0.00  0.00    -0.082 Cl
ATOM     34 CL   UNL     1      -4.256  -3.026  11.234  0.00  0.00    -0.082 Cl
ENDBRANCH  25  27
ENDBRANCH  22  25
ENDBRANCH  21  22
ENDBRANCH   2  21
TORSDOF 7
