REMARK  Name = ZINC39541628
REMARK  4 active torsions:
REMARK  status: ('A' for Active; 'I' for Inactive)
REMARK    1  A    between atoms: C_1  and  S_2
REMARK    2  A    between atoms: S_2  and  C_3
REMARK    3  A    between atoms: C_8  and  O_9
REMARK    4  A    between atoms: N_23  and  C_24
REMARK                            x       y       z     vdW  Elec       q    Type
REMARK                         _______ _______ _______ _____ _____    ______ ____
ROOT
ATOM      1  C   UNL     1       0.877  -0.427   1.472  0.00  0.00    +0.051 A 
ATOM      2  C   UNL     1       1.344   0.576   2.304  0.00  0.00    +0.047 A 
ATOM      3  C   UNL     1       2.034   0.241   3.470  0.00  0.00    +0.080 A 
ATOM      4  C   UNL     1       2.243  -1.122   3.789  0.00  0.00    +0.068 A 
ATOM      5  C   UNL     1       1.770  -2.122   2.938  0.00  0.00    +0.062 A 
ATOM      6  C   UNL     1       1.088  -1.775   1.791  0.00  0.00    +0.131 A 
ATOM      7  C   UNL     1       2.956  -1.442   5.031  0.00  0.00    +0.262 A 
ATOM      8  O   UNL     1       3.178  -2.597   5.348  0.00  0.00    -0.267 OA
ATOM      9  N   UNL     1       3.359  -0.414   5.812  0.00  0.00    -0.291 N 
ATOM     10  C   UNL     1       3.154   0.888   5.399  0.00  0.00    +0.161 A 
ATOM     11  N   UNL     1       2.511   1.190   4.300  0.00  0.00    -0.227 NA
ATOM     12  C   UNL     1       3.725   1.952   6.244  0.00  0.00    +0.094 A 
ATOM     13  C   UNL     1       4.706   1.653   7.165  0.00  0.00    -0.009 A 
ATOM     14  C   UNL     1       5.057   2.834   7.810  0.00  0.00    +0.004 A 
ATOM     15  C   UNL     1       5.987   3.123   8.822  0.00  0.00    +0.010 A 
ATOM     16  C   UNL     1       6.078   4.427   9.233  0.00  0.00    +0.001 A 
ATOM     17  C   UNL     1       5.295   5.431   8.687  0.00  0.00    +0.002 A 
ATOM     18  C   UNL     1       4.368   5.181   7.689  0.00  0.00    +0.027 A 
ATOM     19  C   UNL     1       4.252   3.865   7.249  0.00  0.00    +0.055 A 
ATOM     20  N   UNL     1       3.449   3.294   6.296  0.00  0.00    -0.306 N 
ATOM     21  C   UNL     1       5.200   0.234   7.323  0.00  0.00    +0.059 C 
ATOM     22  C   UNL     1       3.995  -0.695   7.103  0.00  0.00    +0.131 C 
ENDROOT
BRANCH  20  23
ATOM     23  C   UNL     1       2.507   3.967   5.510  0.00  0.00    +0.047 A 
ATOM     24  C   UNL     1       2.679   4.047   4.134  0.00  0.00    +0.026 A 
ATOM     25  C   UNL     1       1.748   4.712   3.361  0.00  0.00    +0.002 A 
ATOM     26  C   UNL     1       0.645   5.298   3.955  0.00  0.00    +0.000 A 
ATOM     27  C   UNL     1       0.471   5.221   5.324  0.00  0.00    +0.002 A 
ATOM     28  C   UNL     1       1.396   4.552   6.103  0.00  0.00    +0.026 A 
ENDBRANCH  20  23
BRANCH   1  30
ATOM     29  C   UNL     1      -0.022   1.810   0.012  0.00  0.00    +0.090 C 
ATOM     30  S   UNL     1       0.002  -0.004   0.002  0.00  0.00    -0.125 S 
ENDBRANCH   1  30
BRANCH   6  31
ATOM     31  O   UNL     1       0.621  -2.747   0.962  0.00  0.00    -0.506 OA
ATOM     32  H   UNL     1       1.249  -3.014   0.277  0.00  0.00    +0.292 HD
ENDBRANCH   6  31
TORSDOF 3
