REMARK  Name = ZINC09219694
REMARK  8 active torsions:
REMARK  status: ('A' for Active; 'I' for Inactive)
REMARK    1  A    between atoms: C_1  and  C_2
REMARK    2  A    between atoms: C_2  and  C_4
REMARK    3  A    between atoms: C_2  and  O_16
REMARK    4  A    between atoms: N_6  and  C_7
REMARK    5  A    between atoms: C_12  and  N_13
REMARK    6  A    between atoms: O_16  and  C_17
REMARK    7  A    between atoms: C_17  and  C_19
REMARK    8  A    between atoms: C_21  and  C_25
REMARK                            x       y       z     vdW  Elec       q    Type
REMARK                         _______ _______ _______ _____ _____    ______ ____
ROOT
ATOM      1  O   UNL     1      -3.047   3.885   0.094  0.00  0.00    -0.448 OA
ENDROOT
BRANCH   1   3
ATOM      2  C   UNL     1      -4.237   5.431   1.551  0.00  0.00    +0.062 C 
ATOM      3  C   UNL     1      -3.923   5.042   0.105  0.00  0.00    +0.259 C 
BRANCH   3   4
ATOM      4  C   UNL     1      -5.205   4.709  -0.615  0.00  0.00    +0.258 C 
ATOM      5  O   UNL     1      -5.402   3.580  -1.010  0.00  0.00    -0.271 OA
ATOM      6  N   UNL     1      -6.131   5.666  -0.819  0.00  0.00    -0.281 N 
ATOM      7  H   UNL     1      -6.003   6.553  -0.447  0.00  0.00    +0.155 HD
BRANCH   6   8
ATOM      8  C   UNL     1      -7.279   5.381  -1.567  0.00  0.00    +0.064 A 
ATOM      9  C   UNL     1      -7.864   4.123  -1.491  0.00  0.00    +0.025 A 
ATOM     10  C   UNL     1      -8.999   3.846  -2.227  0.00  0.00    +0.002 A 
ATOM     11  C   UNL     1      -9.547   4.816  -3.047  0.00  0.00    +0.002 A 
ATOM     12  C   UNL     1      -8.964   6.067  -3.128  0.00  0.00    +0.034 A 
ATOM     13  C   UNL     1      -7.832   6.352  -2.391  0.00  0.00    +0.147 A 
BRANCH  13  14
ATOM     14  N   UNL     1      -7.208   7.691  -2.479  0.00  0.00    +0.058 N 
ATOM     15  O   UNL     1      -7.747   8.573  -3.123  0.00  0.00    -0.126 OA
ATOM     16  O   UNL     1      -6.155   7.912  -1.908  0.00  0.00    -0.126 OA
ENDBRANCH  13  14
ENDBRANCH   6   8
ENDBRANCH   3   4
ENDBRANCH   1   3
BRANCH   1  17
ATOM     17  C   UNL     1      -1.721   4.121   0.103  0.00  0.00    +0.360 C 
ATOM     18  O   UNL     1      -1.307   5.264   0.118  0.00  0.00    -0.243 OA
BRANCH  17  19
ATOM     19  C   UNL     1      -0.769   2.993   0.093  0.00  0.00    +0.170 A 
ATOM     20  C   UNL     1       0.640   3.086   0.099  0.00  0.00    +0.064 A 
ATOM     21  C   UNL     1       1.090   1.795   0.085  0.00  0.00    +0.067 A 
ATOM     22  N   UNL     1      -0.013   0.993   0.070  0.00  0.00    -0.276 N 
ATOM     23  H   UNL     1       0.005  -0.007   0.061  0.00  0.00    +0.189 HD
ATOM     24  N   UNL     1      -1.078   1.710   0.069  0.00  0.00    -0.167 NA
BRANCH  21  25
ATOM     25  C   UNL     1       2.502   1.353   0.085  0.00  0.00    -0.000 A 
ATOM     26  C   UNL     1       3.531   2.296   0.096  0.00  0.00    +0.011 A 
ATOM     27  C   UNL     1       4.846   1.878   0.100  0.00  0.00    +0.016 A 
ATOM     28  C   UNL     1       5.145   0.527   0.084  0.00  0.00    +0.018 A 
ATOM     29  C   UNL     1       4.129  -0.413   0.069  0.00  0.00    +0.016 A 
ATOM     30  C   UNL     1       2.811  -0.007   0.069  0.00  0.00    +0.011 A 
ATOM     31 BR   UNL     1       6.950  -0.038   0.083  0.00  0.00    -0.050 Br
ENDBRANCH  21  25
ENDBRANCH  17  19
ENDBRANCH   1  17
TORSDOF 7
