REMARK  Name = ZINC20042101
REMARK  6 active torsions:
REMARK  status: ('A' for Active; 'I' for Inactive)
REMARK    1  A    between atoms: C_1  and  C_2
REMARK    2  A    between atoms: C_5  and  C_7
REMARK    3  A    between atoms: C_16  and  C_18
REMARK    4  A    between atoms: C_18  and  S_19
REMARK    5  A    between atoms: S_19  and  C_20
REMARK    6  A    between atoms: N_24  and  C_25
REMARK                            x       y       z     vdW  Elec       q    Type
REMARK                         _______ _______ _______ _____ _____    ______ ____
ROOT
ATOM      1  C   UNL     1       1.040  -4.033  -0.026  0.00  0.00    +0.010 A 
ATOM      2  C   UNL     1       0.587  -4.954   0.861  0.00  0.00    +0.057 A 
ATOM      3  S   UNL     1       1.512  -6.420   0.444  0.00  0.00    -0.076 S 
ATOM      4  C   UNL     1       2.475  -5.771  -0.897  0.00  0.00    +0.116 A 
ATOM      5  C   UNL     1       2.055  -4.435  -0.995  0.00  0.00    +0.080 A 
ATOM      6  C   UNL     1       2.682  -3.661  -2.022  0.00  0.00    +0.260 A 
ATOM      7  O   UNL     1       2.385  -2.489  -2.182  0.00  0.00    -0.267 OA
ATOM      8  N   UNL     1       3.603  -4.246  -2.809  0.00  0.00    -0.310 N 
ATOM      9  H   UNL     1       4.032  -3.727  -3.507  0.00  0.00    +0.170 HD
ATOM     10  C   UNL     1       3.946  -5.550  -2.644  0.00  0.00    +0.121 A 
ATOM     11  N   UNL     1       3.398  -6.279  -1.710  0.00  0.00    -0.226 NA
ENDROOT
BRANCH   1  16
ATOM     12  C   UNL     1      -0.018   1.503   0.010  0.00  0.00    +0.051 C 
ATOM     13  C   UNL     1       0.002  -0.004   0.002  0.00  0.00    -0.013 A 
ATOM     14  C   UNL     1      -1.042  -0.871   0.002  0.00  0.00    +0.011 A 
ATOM     15  C   UNL     1      -0.789  -2.227  -0.007  0.00  0.00    +0.016 A 
ATOM     16  C   UNL     1       0.512  -2.653  -0.016  0.00  0.00    +0.021 A 
ATOM     17  S   UNL     1       1.406  -1.107  -0.018  0.00  0.00    -0.093 S 
ENDBRANCH   1  16
BRANCH  10  18
ATOM     18  C   UNL     1       4.984  -6.163  -3.549  0.00  0.00    +0.151 C 
BRANCH  18  19
ATOM     19  S   UNL     1       5.232  -7.901  -3.094  0.00  0.00    -0.076 S 
BRANCH  19  20
ATOM     20  C   UNL     1       6.456  -8.468  -4.227  0.00  0.00    +0.214 A 
ATOM     21  N   UNL     1       7.039  -7.758  -5.169  0.00  0.00    -0.101 NA
ATOM     22  N   UNL     1       7.885  -8.476  -5.816  0.00  0.00    -0.022 NA
ATOM     23  N   UNL     1       7.907  -9.676  -5.347  0.00  0.00    -0.038 NA
ATOM     24  N   UNL     1       6.981  -9.717  -4.289  0.00  0.00    -0.187 N 
BRANCH  24  25
ATOM     25  C   UNL     1       6.666 -10.815  -3.475  0.00  0.00    +0.070 A 
ATOM     26  C   UNL     1       6.351 -10.621  -2.138  0.00  0.00    +0.029 A 
ATOM     27  C   UNL     1       6.040 -11.704  -1.338  0.00  0.00    +0.022 A 
ATOM     28  C   UNL     1       6.044 -12.981  -1.870  0.00  0.00    +0.041 A 
ATOM     29  C   UNL     1       6.358 -13.178  -3.203  0.00  0.00    +0.022 A 
ATOM     30  C   UNL     1       6.664 -12.097  -4.008  0.00  0.00    +0.029 A 
ATOM     31 CL   UNL     1       5.654 -14.340  -0.863  0.00  0.00    -0.084 Cl
ENDBRANCH  24  25
ENDBRANCH  19  20
ENDBRANCH  18  19
ENDBRANCH  10  18
TORSDOF 5
