REMARK  Name = ZINC63980447
REMARK  7 active torsions:
REMARK  status: ('A' for Active; 'I' for Inactive)
REMARK    1  A    between atoms: C_2  and  C_3
REMARK    2  A    between atoms: C_3  and  N_4
REMARK    3  A    between atoms: C_7  and  C_9
REMARK    4  A    between atoms: C_18  and  N_22
REMARK    5  A    between atoms: N_22  and  C_23
REMARK    6  A    between atoms: C_23  and  C_24
REMARK    7  A    between atoms: C_24  and  C_25
REMARK                            x       y       z     vdW  Elec       q    Type
REMARK                         _______ _______ _______ _____ _____    ______ ____
ROOT
ATOM      1  N   UNL     1      -1.118  -1.627  -1.211  0.00  0.00    -0.264 N 
ATOM      2  C   UNL     1      -1.837  -1.422  -2.327  0.00  0.00    +0.043 A 
ATOM      3  C   UNL     1      -1.797  -2.571  -3.046  0.00  0.00    +0.004 A 
ATOM      4  C   UNL     1      -1.019  -3.469  -2.296  0.00  0.00    +0.151 A 
ATOM      5  N   UNL     1      -0.641  -2.824  -1.206  0.00  0.00    -0.166 NA
ATOM      6  C   UNL     1      -2.472  -2.771  -4.375  0.00  0.00    +0.023 C 
ATOM      7  C   UNL     1      -2.837  -1.392  -4.942  0.00  0.00    -0.067 C 
ATOM      8  C   UNL     1      -3.563  -0.574  -3.870  0.00  0.00    -0.009 C 
ATOM      9  C   UNL     1      -2.575  -0.183  -2.763  0.00  0.00    +0.054 C 
ENDROOT
BRANCH   4  10
ATOM     10  C   UNL     1      -0.683  -4.861  -2.659  0.00  0.00    +0.267 C 
ATOM     11  O   UNL     1      -0.996  -5.298  -3.749  0.00  0.00    -0.268 OA
ATOM     12  N   UNL     1      -0.030  -5.647  -1.780  0.00  0.00    -0.292 N 
ATOM     13  C   UNL     1       0.227  -5.194  -0.404  0.00  0.00    +0.136 C 
ATOM     14  C   UNL     1      -0.240  -6.290   0.561  0.00  0.00    +0.179 C 
ATOM     15  O   UNL     1       0.350  -7.535   0.182  0.00  0.00    -0.377 OA
ATOM     16  C   UNL     1      -0.032  -7.992  -1.118  0.00  0.00    +0.179 C 
ATOM     17  C   UNL     1       0.441  -6.986  -2.167  0.00  0.00    +0.136 C 
ENDBRANCH   4  10
BRANCH   7  18
ATOM     18  N   UNL     1      -3.716  -1.559  -6.107  0.00  0.00    +0.381 N 
ATOM     19  H   UNL     1      -3.270  -2.166  -6.780  0.00  0.00    -0.086 HD
ATOM     20  H   UNL     1      -4.590  -1.968  -5.814  0.00  0.00    -0.086 HD
BRANCH  18  21
ATOM     21  C   UNL     1      -3.969  -0.249  -6.722  0.00  0.00    -0.078 C 
BRANCH  21  22
ATOM     22  C   UNL     1      -4.883  -0.423  -7.936  0.00  0.00    +0.014 C 
BRANCH  22  23
ATOM     23  C   UNL     1      -5.143   0.921  -8.566  0.00  0.00    -0.043 C 
ATOM     24  C   UNL     1      -4.478   1.473  -9.606  0.00  0.00    -0.001 A 
ATOM     25  C   UNL     1      -3.356   1.007 -10.430  0.00  0.00    +0.010 A 
ATOM     26  C   UNL     1      -2.896   1.802 -11.423  0.00  0.00    +0.001 A 
ATOM     27  C   UNL     1      -3.462   3.057 -11.684  0.00  0.00    +0.002 A 
ATOM     28  C   UNL     1      -4.495   3.554 -10.970  0.00  0.00    +0.026 A 
ATOM     29  C   UNL     1      -5.058   2.803  -9.903  0.00  0.00    +0.043 A 
ATOM     30  N   UNL     1      -6.044   3.062  -9.078  0.00  0.00    -0.380 N 
ATOM     31  C   UNL     1      -6.204   1.922  -8.168  0.00  0.00    +0.144 C 
ATOM     32  H   UNL     1      -6.580   3.870  -9.073  0.00  0.00    +0.160 HD
ENDBRANCH  22  23
ENDBRANCH  21  22
ENDBRANCH  18  21
ENDBRANCH   7  18
BRANCH   1  33
ATOM     33  C   UNL     1      -0.903  -0.633  -0.156  0.00  0.00    +0.170 C 
BRANCH  33  35
ATOM     34  C   UNL     1       0.271   1.475  -0.530  0.00  0.00    +0.006 C 
ATOM     35  C   UNL     1       0.335   0.169  -0.467  0.00  0.00    -0.012 C 
ENDBRANCH  33  35
ENDBRANCH   1  33
TORSDOF 7
