REMARK  Name = ZINC44916431
REMARK  11 active torsions:
REMARK  status: ('A' for Active; 'I' for Inactive)
REMARK    1  A    between atoms: C_1  and  C_2
REMARK    2  A    between atoms: C_2  and  C_3
REMARK    3  A    between atoms: C_2  and  O_4
REMARK    4  A    between atoms: O_4  and  C_5
REMARK    5  A    between atoms: C_8  and  C_11
REMARK    6  A    between atoms: C_11  and  C_12
REMARK    7  A    between atoms: C_12  and  C_13
REMARK    8  A    between atoms: C_13  and  N_14
REMARK    9  A    between atoms: C_15  and  C_17
REMARK   10  A    between atoms: N_22  and  C_24
REMARK   11  A    between atoms: C_24  and  C_25
REMARK                            x       y       z     vdW  Elec       q    Type
REMARK                         _______ _______ _______ _____ _____    ______ ____
ROOT
ATOM      1  N   UNL     1      -2.137  -9.080  -0.539  0.00  0.00    -0.315 N 
ATOM      2  C   UNL     1      -2.297 -10.388  -0.820  0.00  0.00    +0.214 C 
ATOM      3  O   UNL     1      -2.544 -10.738  -1.955  0.00  0.00    -0.276 OA
ATOM      4  H   UNL     1      -1.939  -8.800   0.369  0.00  0.00    +0.149 HD
ENDROOT
BRANCH   2   5
ATOM      5  C   UNL     1      -2.168 -11.415   0.275  0.00  0.00    +0.058 C 
ATOM      6  C   UNL     1      -0.766 -11.339   0.885  0.00  0.00    +0.009 C 
ATOM      7  C   UNL     1      -0.620 -12.438   1.942  0.00  0.00    -0.018 C 
ATOM      8  C   UNL     1      -0.899 -13.798   1.298  0.00  0.00    -0.078 C 
ATOM      9  N   UNL     1      -2.263 -13.816   0.756  0.00  0.00    +0.383 N 
ATOM     10  C   UNL     1      -2.391 -12.813  -0.308  0.00  0.00    -0.066 C 
ATOM     11  H   UNL     1      -2.920 -13.608   1.494  0.00  0.00    -0.081 HD
BRANCH   9  12
ATOM     12  C   UNL     1      -2.553 -15.148   0.208  0.00  0.00    -0.043 C 
BRANCH  12  13
ATOM     13  C   UNL     1      -2.553 -16.161   1.324  0.00  0.00    -0.064 A 
ATOM     14  C   UNL     1      -1.381 -16.807   1.671  0.00  0.00    +0.003 A 
ATOM     15  C   UNL     1      -1.381 -17.736   2.695  0.00  0.00    +0.015 A 
ATOM     16  C   UNL     1      -2.553 -18.019   3.372  0.00  0.00    +0.018 A 
ATOM     17  C   UNL     1      -3.725 -17.372   3.025  0.00  0.00    +0.015 A 
ATOM     18  C   UNL     1      -3.724 -16.440   2.005  0.00  0.00    +0.003 A 
ATOM     19 BR   UNL     1      -2.553 -19.290   4.772  0.00  0.00    -0.050 Br
ENDBRANCH  12  13
ENDBRANCH   9  12
ENDBRANCH   2   5
BRANCH   1  20
ATOM     20  C   UNL     1      -2.262  -8.081  -1.603  0.00  0.00    +0.104 C 
BRANCH  20  21
ATOM     21  C   UNL     1      -2.037  -6.684  -1.020  0.00  0.00    +0.023 C 
BRANCH  21  22
ATOM     22  C   UNL     1      -2.167  -5.641  -2.132  0.00  0.00    +0.036 C 
BRANCH  22  26
ATOM     23  C   UNL     1      -1.538  -1.739  -0.505  0.00  0.00    +0.121 A 
ATOM     24  C   UNL     1      -0.465  -2.468  -0.997  0.00  0.00    +0.046 A 
ATOM     25  C   UNL     1      -0.671  -3.729  -1.522  0.00  0.00    +0.007 A 
ATOM     26  C   UNL     1      -1.945  -4.265  -1.558  0.00  0.00    -0.047 A 
ATOM     27  C   UNL     1      -3.017  -3.540  -1.070  0.00  0.00    +0.007 A 
ATOM     28  C   UNL     1      -2.815  -2.281  -0.538  0.00  0.00    +0.046 A 
BRANCH  23  29
ATOM     29  O   UNL     1      -1.339  -0.499   0.012  0.00  0.00    -0.489 OA
BRANCH  29  31
ATOM     30  C   UNL     1      -1.982   1.168   1.640  0.00  0.00    +0.051 C 
ATOM     31  C   UNL     1      -2.466   0.143   0.612  0.00  0.00    +0.167 C 
ATOM     32  C   UNL     1      -3.283   0.853  -0.469  0.00  0.00    +0.051 C 
ENDBRANCH  29  31
ENDBRANCH  23  29
ENDBRANCH  22  26
ENDBRANCH  21  22
ENDBRANCH  20  21
ENDBRANCH   1  20
TORSDOF 9
