REMARK  Name = ZINC11025500
REMARK  5 active torsions:
REMARK  status: ('A' for Active; 'I' for Inactive)
REMARK    1  A    between atoms: C_1  and  C_2
REMARK    2  A    between atoms: C_2  and  O_3
REMARK    3  A    between atoms: O_3  and  C_4
REMARK    4  A    between atoms: C_6  and  C_11
REMARK    5  A    between atoms: C_9  and  O_10
REMARK                            x       y       z     vdW  Elec       q    Type
REMARK                         _______ _______ _______ _____ _____    ______ ____
ROOT
ATOM      1  C   UNL     1      -4.156   0.588  -0.013  0.00  0.00    +0.063 C 
ATOM      2  C   UNL     1      -4.317  -0.838   0.450  0.00  0.00    +0.032 A 
ATOM      3  C   UNL     1      -3.454  -1.628   1.125  0.00  0.00    +0.087 A 
ATOM      4  N   UNL     1      -3.891  -2.904   1.392  0.00  0.00    -0.311 N 
ATOM      5  H   UNL     1      -3.312  -3.523   1.863  0.00  0.00    +0.170 HD
ATOM      6  C   UNL     1      -5.120  -3.299   1.002  0.00  0.00    +0.289 A 
ATOM      7  O   UNL     1      -5.662  -4.379   1.163  0.00  0.00    -0.260 OA
ATOM      8  S   UNL     1      -5.734  -1.880   0.215  0.00  0.00    -0.030 S 
ATOM      9  S   UNL     1      -1.849  -1.025   1.642  0.00  0.00    -0.103 S 
ATOM     10  C   UNL     1      -2.090   0.754   1.412  0.00  0.00    +0.060 C 
ATOM     11  C   UNL     1      -2.707   0.917   0.004  0.00  0.00    +0.018 C 
ATOM     12  C   UNL     1      -2.109   2.191  -0.584  0.00  0.00    -0.006 C 
ATOM     13  C   UNL     1      -0.789   1.612  -1.224  0.00  0.00    +0.004 C 
ATOM     14  C   UNL     1      -0.013   1.086   0.008  0.00  0.00    +0.005 C 
ATOM     15  C   UNL     1      -0.767   1.601   1.263  0.00  0.00    +0.003 C 
ATOM     16  C   UNL     1      -1.441   2.901   0.657  0.00  0.00    +0.008 C 
ENDROOT
BRANCH   1  19
ATOM     17  C   UNL     1      -6.207   1.766  -2.959  0.00  0.00    +0.162 A 
ATOM     18  C   UNL     1      -5.712   1.631  -1.672  0.00  0.00    +0.053 A 
ATOM     19  C   UNL     1      -4.694   0.733  -1.414  0.00  0.00    -0.035 A 
ATOM     20  C   UNL     1      -4.164  -0.030  -2.438  0.00  0.00    +0.008 A 
ATOM     21  C   UNL     1      -4.658   0.095  -3.723  0.00  0.00    +0.049 A 
ATOM     22  C   UNL     1      -5.678   0.994  -3.989  0.00  0.00    +0.158 A 
BRANCH  22  23
ATOM     23  O   UNL     1      -6.162   1.122  -5.254  0.00  0.00    -0.503 OA
ATOM     24  H   UNL     1      -5.703   1.789  -5.784  0.00  0.00    +0.292 HD
ENDBRANCH  22  23
BRANCH  17  25
ATOM     25  O   UNL     1      -7.209   2.649  -3.215  0.00  0.00    -0.489 OA
BRANCH  25  27
ATOM     26  C   UNL     1      -8.819   4.339  -2.587  0.00  0.00    +0.048 C 
ATOM     27  C   UNL     1      -7.704   3.407  -2.109  0.00  0.00    +0.226 C 
ENDBRANCH  25  27
ENDBRANCH  17  25
ENDBRANCH   1  19
TORSDOF 4
