REMARK  Name = ZINC04164725
REMARK  9 active torsions:
REMARK  status: ('A' for Active; 'I' for Inactive)
REMARK    1  A    between atoms: C_1  and  C_2
REMARK    2  A    between atoms: N_7  and  C_8
REMARK    3  A    between atoms: C_8  and  C_10
REMARK    4  A    between atoms: C_8  and  C_19
REMARK    5  A    between atoms: C_13  and  N_16
REMARK    6  A    between atoms: N_16  and  C_17
REMARK    7  A    between atoms: N_16  and  C_18
REMARK    8  A    between atoms: C_25  and  C_30
REMARK    9  A    between atoms: C_28  and  O_29
REMARK                            x       y       z     vdW  Elec       q    Type
REMARK                         _______ _______ _______ _____ _____    ______ ____
ROOT
ATOM      1  C   UNL     1       4.791   4.125   0.025  0.00  0.00    +0.136 C 
ENDROOT
BRANCH   1   2
ATOM      2  C   UNL     1       3.575   3.243   0.145  0.00  0.00    +0.021 A 
ATOM      3  C   UNL     1       3.702   1.870  -0.048  0.00  0.00    +0.010 A 
ATOM      4  C   UNL     1       2.623   1.046   0.054  0.00  0.00    +0.010 A 
ATOM      5  C   UNL     1       1.362   1.584   0.359  0.00  0.00    +0.004 A 
ATOM      6  C   UNL     1       0.223   0.764   0.472  0.00  0.00    +0.012 A 
ATOM      7  C   UNL     1      -0.971   1.357   0.765  0.00  0.00    +0.023 A 
ATOM      8  C   UNL     1      -1.036   2.736   0.952  0.00  0.00    +0.039 A 
ATOM      9  N   UNL     1       0.027   3.496   0.846  0.00  0.00    -0.248 NA
ATOM     10  C   UNL     1       1.225   2.980   0.557  0.00  0.00    +0.113 A 
ATOM     11  C   UNL     1       2.365   3.803   0.443  0.00  0.00    +0.148 A 
ATOM     12  C   UNL     1      -2.362   3.371   1.279  0.00  0.00    +0.065 C 
BRANCH  11  13
ATOM     13  O   UNL     1       2.260   5.144   0.628  0.00  0.00    -0.504 OA
ATOM     14  H   UNL     1       2.067   5.639  -0.180  0.00  0.00    +0.292 HD
ENDBRANCH  11  13
ENDBRANCH   1   2
BRANCH   1  21
ATOM     15  C   UNL     1       9.202   1.505   3.354  0.00  0.00    +0.063 C 
ATOM     16  C   UNL     1       7.896   2.219   3.118  0.00  0.00    +0.014 A 
ATOM     17  C   UNL     1       7.123   2.600   4.197  0.00  0.00    +0.021 A 
ATOM     18  C   UNL     1       5.921   3.257   3.973  0.00  0.00    +0.005 A 
ATOM     19  C   UNL     1       5.538   3.508   2.667  0.00  0.00    +0.041 A 
ATOM     20  C   UNL     1       6.366   3.096   1.629  0.00  0.00    +0.097 A 
ATOM     21  N   UNL     1       5.994   3.341   0.312  0.00  0.00    -0.320 N 
ATOM     22  H   UNL     1       6.531   2.992  -0.417  0.00  0.00    +0.148 HD
ATOM     23  N   UNL     1       7.549   2.444   1.823  0.00  0.00    -0.347 N 
ATOM     24  H   UNL     1       8.140   2.141   1.039  0.00  0.00    +0.167 HD
ENDBRANCH   1  21
BRANCH   1  25
ATOM     25  C   UNL     1       4.873   4.678  -1.375  0.00  0.00    -0.023 A 
ATOM     26  C   UNL     1       5.279   3.863  -2.415  0.00  0.00    +0.007 A 
ATOM     27  C   UNL     1       5.351   4.365  -3.700  0.00  0.00    +0.023 A 
ATOM     28  C   UNL     1       5.026   5.693  -3.944  0.00  0.00    +0.029 A 
ATOM     29  C   UNL     1       4.624   6.511  -2.895  0.00  0.00    +0.023 A 
ATOM     30  C   UNL     1       4.549   6.001  -1.614  0.00  0.00    +0.007 A 
BRANCH  28  31
ATOM     31  N   UNL     1       5.103   6.206  -5.241  0.00  0.00    -0.336 N 
ATOM     32  C   UNL     1       4.635   7.566  -5.521  0.00  0.00    +0.129 C 
ATOM     33  C   UNL     1       5.652   5.383  -6.322  0.00  0.00    +0.129 C 
ENDBRANCH  28  31
ENDBRANCH   1  25
TORSDOF 5
