REMARK  Name = ZINC16692955
REMARK  13 active torsions:
REMARK  status: ('A' for Active; 'I' for Inactive)
REMARK    1  A    between atoms: C_1  and  C_2
REMARK    2  A    between atoms: C_2  and  O_3
REMARK    3  A    between atoms: O_3  and  C_4
REMARK    4  A    between atoms: C_7  and  C_13
REMARK    5  A    between atoms: C_9  and  O_10
REMARK    6  A    between atoms: O_10  and  C_11
REMARK    7  A    between atoms: C_11  and  C_12
REMARK    8  A    between atoms: C_15  and  C_33
REMARK    9  A    between atoms: C_16  and  C_32
REMARK   10  A    between atoms: C_23  and  C_24
REMARK   11  A    between atoms: C_33  and  O_35
REMARK   12  A    between atoms: O_35  and  C_36
REMARK   13  A    between atoms: C_36  and  C_37
REMARK                            x       y       z     vdW  Elec       q    Type
REMARK                         _______ _______ _______ _____ _____    ______ ____
ROOT
ATOM      1  C   UNL     1       4.390  -5.984  -0.845  0.00  0.00    +0.162 C 
ATOM      2  C   UNL     1       5.880  -5.961  -0.596  0.00  0.00    +0.085 C 
ATOM      3  C   UNL     1       6.445  -4.786  -0.186  0.00  0.00    +0.053 C 
ATOM      4  N   UNL     1       5.699  -3.702  -0.015  0.00  0.00    -0.228 NA
ATOM      5  C   UNL     1       4.406  -3.646  -0.210  0.00  0.00    +0.178 A 
ATOM      6  N   UNL     1       3.643  -4.714  -0.623  0.00  0.00    -0.275 N 
ATOM      7  C   UNL     1       2.326  -4.537  -0.790  0.00  0.00    +0.268 A 
ATOM      8  O   UNL     1       1.611  -5.452  -1.153  0.00  0.00    -0.266 OA
ATOM      9  C   UNL     1       1.770  -3.203  -0.519  0.00  0.00    +0.081 A 
ATOM     10  C   UNL     1       0.487  -2.768  -0.610  0.00  0.00    +0.030 C 
ATOM     11  S   UNL     1       3.241  -2.307  -0.046  0.00  0.00    -0.046 S 
ATOM     12  C   UNL     1       7.928  -4.721   0.074  0.00  0.00    +0.066 C 
ENDROOT
BRANCH  10  13
ATOM     13  C   UNL     1       0.127  -1.433  -0.111  0.00  0.00    -0.005 A 
ATOM     14  C   UNL     1       0.871  -0.842   0.916  0.00  0.00    +0.009 A 
ATOM     15  C   UNL     1       0.526   0.410   1.379  0.00  0.00    +0.001 A 
ATOM     16  C   UNL     1      -0.553   1.082   0.831  0.00  0.00    +0.001 A 
ATOM     17  C   UNL     1      -1.295   0.506  -0.185  0.00  0.00    +0.020 A 
ATOM     18  C   UNL     1      -0.963  -0.747  -0.661  0.00  0.00    +0.048 A 
ATOM     19 CL   UNL     1      -1.895  -1.469  -1.935  0.00  0.00    -0.083 Cl
ENDBRANCH  10  13
BRANCH   1  23
ATOM     20  C   UNL     1       2.680  -8.979   1.685  0.00  0.00    +0.162 A 
ATOM     21  C   UNL     1       2.905  -9.247   0.344  0.00  0.00    +0.050 A 
ATOM     22  C   UNL     1       3.458  -8.276  -0.471  0.00  0.00    +0.010 A 
ATOM     23  C   UNL     1       3.787  -7.038   0.048  0.00  0.00    -0.016 A 
ATOM     24  C   UNL     1       3.570  -6.766   1.386  0.00  0.00    +0.055 A 
ATOM     25  C   UNL     1       3.011  -7.732   2.207  0.00  0.00    +0.162 A 
BRANCH  20  26
ATOM     26  O   UNL     1       2.138  -9.932   2.488  0.00  0.00    -0.489 OA
BRANCH  26  28
ATOM     27  C   UNL     1       1.227 -12.126   2.935  0.00  0.00    +0.048 C 
ATOM     28  C   UNL     1       1.823 -11.188   1.883  0.00  0.00    +0.226 C 
ENDBRANCH  26  28
ENDBRANCH  20  26
BRANCH  25  29
ATOM     29  O   UNL     1       2.792  -7.465   3.523  0.00  0.00    -0.489 OA
BRANCH  29  30
ATOM     30  C   UNL     1       3.269  -6.212   4.018  0.00  0.00    +0.226 C 
ATOM     31  C   UNL     1       3.035  -6.138   5.528  0.00  0.00    +0.048 C 
ENDBRANCH  29  30
ENDBRANCH  25  29
ENDBRANCH   1  23
BRANCH   2  32
ATOM     32  C   UNL     1       6.662  -7.113  -0.779  0.00  0.00    +0.339 C 
ATOM     33  O   UNL     1       7.868  -7.064  -0.615  0.00  0.00    -0.245 OA
BRANCH  32  34
ATOM     34  O   UNL     1       6.076  -8.277  -1.138  0.00  0.00    -0.462 OA
BRANCH  34  35
ATOM     35  C   UNL     1       6.914  -9.432  -1.200  0.00  0.00    +0.229 C 
ATOM     36  C   UNL     1       6.108 -10.618  -1.734  0.00  0.00    +0.048 C 
ENDBRANCH  34  35
ENDBRANCH  32  34
ENDBRANCH   2  32
TORSDOF 9
