REMARK  Name = ZINC08896514
REMARK  12 active torsions:
REMARK  status: ('A' for Active; 'I' for Inactive)
REMARK    1  A    between atoms: C_1  and  C_2
REMARK    2  A    between atoms: C_2  and  C_3
REMARK    3  A    between atoms: C_2  and  C_4
REMARK    4  A    between atoms: C_2  and  C_5
REMARK    5  A    between atoms: C_12  and  N_17
REMARK    6  A    between atoms: C_13  and  C_14
REMARK    7  A    between atoms: N_17  and  C_18
REMARK    8  A    between atoms: C_18  and  N_20
REMARK    9  A    between atoms: C_21  and  C_23
REMARK   10  A    between atoms: C_26  and  O_32
REMARK   11  A    between atoms: C_27  and  N_29
REMARK   12  A    between atoms: O_32  and  C_33
REMARK                            x       y       z     vdW  Elec       q    Type
REMARK                         _______ _______ _______ _____ _____    ______ ____
ROOT
ATOM      1  N   UNL     1      -0.016   1.344   0.009  0.00  0.00    -0.291 N 
ATOM      2  H   UNL     1      -0.863   1.817   0.016  0.00  0.00    +0.154 HD
ENDROOT
BRANCH   1   9
ATOM      3  C   UNL     1       5.444   4.640  -0.404  0.00  0.00    -0.000 C 
ATOM      4  C   UNL     1       4.549   5.546   0.446  0.00  0.00    +0.009 C 
ATOM      5  C   UNL     1       3.092   5.401   0.002  0.00  0.00    +0.037 C 
ATOM      6  C   UNL     1       2.725   3.922  -0.003  0.00  0.00    -0.023 A 
ATOM      7  C   UNL     1       3.682   2.969  -0.017  0.00  0.00    -0.004 A 
ATOM      8  S   UNL     1       2.794   1.437  -0.009  0.00  0.00    -0.077 S 
ATOM      9  C   UNL     1       1.174   2.053   0.002  0.00  0.00    +0.084 A 
ATOM     10  C   UNL     1       1.359   3.428   0.007  0.00  0.00    +0.068 A 
ATOM     11  C   UNL     1       5.165   3.177  -0.031  0.00  0.00    +0.046 C 
BRANCH  10  12
ATOM     12  C   UNL     1       0.218   4.348   0.023  0.00  0.00    +0.244 C 
ATOM     13  O   UNL     1      -0.246   4.725   1.083  0.00  0.00    -0.270 OA
ATOM     14  N   UNL     1      -0.318   4.777  -1.137  0.00  0.00    -0.325 N 
ATOM     15  H   UNL     1       0.052   4.477  -1.982  0.00  0.00    +0.145 HD
ATOM     16  H   UNL     1      -1.073   5.386  -1.127  0.00  0.00    +0.145 HD
ENDBRANCH  10  12
BRANCH   3  18
ATOM     17  C   UNL     1       7.218   4.739   1.352  0.00  0.00    +0.011 C 
ATOM     18  C   UNL     1       6.913   4.968  -0.130  0.00  0.00    -0.035 C 
ATOM     19  C   UNL     1       7.806   4.062  -0.980  0.00  0.00    +0.011 C 
ATOM     20  C   UNL     1       7.185   6.431  -0.486  0.00  0.00    +0.011 C 
ENDBRANCH   3  18
ENDBRANCH   1   9
BRANCH   1  21
ATOM     21  C   UNL     1       0.002  -0.004   0.002  0.00  0.00    +0.141 C 
ATOM     22  S   UNL     1       1.496  -0.840  -0.017  0.00  0.00    -0.018 S 
BRANCH  21  23
ATOM     23  N   UNL     1      -1.156  -0.694   0.009  0.00  0.00    -0.264 N 
ATOM     24  C   UNL     1      -1.137  -2.041   0.002  0.00  0.00    +0.250 C 
ATOM     25  O   UNL     1      -0.077  -2.635  -0.011  0.00  0.00    -0.270 OA
ATOM     26  H   UNL     1      -2.002  -0.220   0.020  0.00  0.00    +0.157 HD
BRANCH  24  27
ATOM     27  C   UNL     1      -2.405  -2.796   0.010  0.00  0.00    +0.039 A 
ATOM     28  C   UNL     1      -3.626  -2.116   0.025  0.00  0.00    +0.017 A 
ATOM     29  C   UNL     1      -4.806  -2.824   0.032  0.00  0.00    +0.049 A 
ATOM     30  C   UNL     1      -4.785  -4.214   0.024  0.00  0.00    +0.150 A 
ATOM     31  C   UNL     1      -3.574  -4.895   0.009  0.00  0.00    +0.168 A 
ATOM     32  C   UNL     1      -2.388  -4.194  -0.004  0.00  0.00    +0.049 A 
BRANCH  31  33
ATOM     33  N   UNL     1      -3.557  -6.375  -0.001  0.00  0.00    +0.060 N 
ATOM     34  O   UNL     1      -2.496  -6.972  -0.014  0.00  0.00    -0.126 OA
ATOM     35  O   UNL     1      -4.605  -6.995   0.005  0.00  0.00    -0.126 OA
ENDBRANCH  31  33
BRANCH  30  36
ATOM     36  O   UNL     1      -5.951  -4.909   0.030  0.00  0.00    -0.493 OA
ATOM     37  C   UNL     1      -7.160  -4.147   0.045  0.00  0.00    +0.277 C 
ENDBRANCH  30  36
ENDBRANCH  24  27
ENDBRANCH  21  23
ENDBRANCH   1  21
TORSDOF 8
