REMARK  Name = ZINC39681230
REMARK  9 active torsions:
REMARK  status: ('A' for Active; 'I' for Inactive)
REMARK    1  A    between atoms: C_1  and  C_2
REMARK    2  A    between atoms: C_2  and  O_4
REMARK    3  A    between atoms: O_4  and  C_5
REMARK    4  A    between atoms: C_10  and  C_11
REMARK    5  A    between atoms: C_15  and  C_24
REMARK    6  A    between atoms: N_26  and  C_27
REMARK    7  A    between atoms: C_27  and  C_28
REMARK    8  A    between atoms: C_28  and  O_29
REMARK    9  A    between atoms: O_29  and  C_30
REMARK                            x       y       z     vdW  Elec       q    Type
REMARK                         _______ _______ _______ _____ _____    ______ ____
ROOT
ATOM      1  C   UNL     1      -3.268  -2.387  -0.062  0.00  0.00    +0.250 C 
ATOM      2  O   UNL     1      -3.474  -1.198  -0.210  0.00  0.00    -0.270 OA
ATOM      3  N   UNL     1      -4.298  -3.255  -0.064  0.00  0.00    -0.296 N 
ATOM      4  C   UNL     1      -4.240  -4.735  -0.004  0.00  0.00    +0.121 C 
ATOM      5  C   UNL     1      -5.412  -5.135   0.919  0.00  0.00    +0.100 C 
ATOM      6  C   UNL     1      -6.399  -3.958   0.833  0.00  0.00    -0.004 C 
ATOM      7  C   UNL     1      -5.747  -2.946  -0.120  0.00  0.00    +0.115 C 
ATOM      8  C   UNL     1      -6.592  -3.329   2.209  0.00  0.00    -0.010 C 
ATOM      9  C   UNL     1      -7.619  -2.198   2.109  0.00  0.00    -0.082 C 
ATOM     10  N   UNL     1      -8.892  -2.734   1.611  0.00  0.00    +0.379 N 
ATOM     11  C   UNL     1      -8.718  -3.254   0.249  0.00  0.00    -0.082 C 
ATOM     12  C   UNL     1      -7.736  -4.429   0.271  0.00  0.00    -0.010 C 
ATOM     13  H   UNL     1      -9.202  -3.479   2.217  0.00  0.00    -0.086 HD
ATOM     14  H   UNL     1      -9.584  -2.000   1.603  0.00  0.00    -0.086 HD
ENDROOT
BRANCH   1  20
ATOM     15  C   UNL     1      -0.908  -2.043   0.669  0.00  0.00    +0.144 A 
ATOM     16  C   UNL     1       0.384  -2.518   0.840  0.00  0.00    +0.047 A 
ATOM     17  C   UNL     1       0.702  -3.808   0.465  0.00  0.00    +0.004 A 
ATOM     18  C   UNL     1      -0.263  -4.637  -0.085  0.00  0.00    +0.001 A 
ATOM     19  C   UNL     1      -1.551  -4.181  -0.262  0.00  0.00    +0.017 A 
ATOM     20  C   UNL     1      -1.888  -2.880   0.119  0.00  0.00    +0.079 A 
BRANCH  15  21
ATOM     21  O   UNL     1      -1.222  -0.775   1.037  0.00  0.00    -0.425 OA
BRANCH  21  23
ATOM     22  C   UNL     1      -1.991   0.815   2.763  0.00  0.00    +0.136 C 
ATOM     23  C   UNL     1      -1.732  -0.584   2.265  0.00  0.00    +0.309 C 
ATOM     24  O   UNL     1      -1.984  -1.532   2.969  0.00  0.00    -0.251 OA
ENDBRANCH  21  23
ENDBRANCH  15  21
ENDBRANCH   1  20
BRANCH   5  25
ATOM     25  C   UNL     1      -4.928  -5.314   2.335  0.00  0.00    +0.218 C 
ATOM     26  O   UNL     1      -4.031  -4.618   2.762  0.00  0.00    -0.275 OA
ATOM     27  N   UNL     1      -5.491  -6.248   3.127  0.00  0.00    -0.312 N 
ATOM     28  H   UNL     1      -6.157  -6.853   2.765  0.00  0.00    +0.149 HD
BRANCH  27  29
ATOM     29  C   UNL     1      -5.096  -6.350   4.534  0.00  0.00    +0.145 C 
BRANCH  29  30
ATOM     30  C   UNL     1      -5.785  -7.559   5.170  0.00  0.00    +0.248 C 
BRANCH  30  31
ATOM     31  O   UNL     1      -5.304  -8.758   4.560  0.00  0.00    -0.489 OA
BRANCH  31  32
ATOM     32  C   UNL     1      -5.885  -9.924   4.947  0.00  0.00    +0.139 A 
ATOM     33  C   UNL     1      -6.967  -9.906   5.815  0.00  0.00    +0.047 A 
ATOM     34  C   UNL     1      -7.556 -11.093   6.207  0.00  0.00    +0.004 A 
ATOM     35  C   UNL     1      -7.068 -12.298   5.736  0.00  0.00    +0.002 A 
ATOM     36  C   UNL     1      -5.990 -12.319   4.871  0.00  0.00    +0.023 A 
ATOM     37  C   UNL     1      -5.400 -11.134   4.471  0.00  0.00    +0.083 A 
ATOM     38 CL   UNL     1      -4.051 -11.161   3.379  0.00  0.00    -0.080 Cl
ENDBRANCH  31  32
ENDBRANCH  30  31
ENDBRANCH  29  30
ENDBRANCH  27  29
ENDBRANCH   5  25
TORSDOF 8
