REMARK  Name = ZINC33473280
REMARK  12 active torsions:
REMARK  status: ('A' for Active; 'I' for Inactive)
REMARK    1  A    between atoms: C_1  and  C_2
REMARK    2  A    between atoms: C_2  and  C_4
REMARK    3  A    between atoms: C_2  and  N_17
REMARK    4  A    between atoms: N_14  and  C_15
REMARK    5  A    between atoms: N_17  and  C_18
REMARK    6  A    between atoms: C_18  and  C_19
REMARK    7  A    between atoms: C_19  and  C_20
REMARK    8  A    between atoms: C_20  and  C_21
REMARK    9  A    between atoms: C_21  and  C_22
REMARK   10  A    between atoms: C_22  and  C_23
REMARK   11  A    between atoms: C_23  and  N_24
REMARK   12  A    between atoms: C_25  and  C_27
REMARK                            x       y       z     vdW  Elec       q    Type
REMARK                         _______ _______ _______ _____ _____    ______ ____
ROOT
ATOM      1  N   UNL     1      -2.265   5.795  -1.007  0.00  0.00    -0.291 N 
ATOM      2  C   UNL     1      -1.687   5.204   0.057  0.00  0.00    +0.222 C 
ATOM      3  O   UNL     1      -1.605   3.995   0.109  0.00  0.00    -0.275 OA
ENDROOT
BRANCH   2   4
ATOM      4  C   UNL     1      -1.144   6.045   1.183  0.00  0.00    +0.048 C 
ATOM      5  C   UNL     1      -2.285   6.835   1.827  0.00  0.00    +0.019 C 
ATOM      6  C   UNL     1      -1.733   7.688   2.970  0.00  0.00    -0.009 C 
ATOM      7  C   UNL     1      -1.086   6.780   4.019  0.00  0.00    +0.007 C 
ATOM      8  C   UNL     1       0.055   5.990   3.375  0.00  0.00    -0.009 C 
ATOM      9  C   UNL     1      -0.497   5.137   2.232  0.00  0.00    +0.019 C 
ATOM     10  C   UNL     1       1.102   6.962   2.826  0.00  0.00    +0.007 C 
ATOM     11  C   UNL     1       0.455   7.870   1.778  0.00  0.00    -0.009 C 
ATOM     12  C   UNL     1      -0.686   8.660   2.422  0.00  0.00    +0.007 C 
ATOM     13  C   UNL     1      -0.097   7.016   0.635  0.00  0.00    +0.019 C 
ENDBRANCH   2   4
BRANCH   1  15
ATOM     14  C   UNL     1      -1.869   4.140  -2.764  0.00  0.00    +0.036 C 
ATOM     15  C   UNL     1      -2.920   4.979  -2.033  0.00  0.00    +0.139 C 
BRANCH  15  16
ATOM     16  C   UNL     1      -3.927   4.067  -1.382  0.00  0.00    +0.133 A 
ATOM     17  N   UNL     1      -3.622   2.813  -1.241  0.00  0.00    -0.232 NA
ATOM     18  C   UNL     1      -4.479   1.933  -0.665  0.00  0.00    +0.080 A 
ATOM     19  C   UNL     1      -4.153   0.584  -0.513  0.00  0.00    +0.048 A 
ATOM     20  C   UNL     1      -5.058  -0.271   0.079  0.00  0.00    +0.043 A 
ATOM     21  C   UNL     1      -6.290   0.195   0.525  0.00  0.00    +0.021 A 
ATOM     22  C   UNL     1      -6.630   1.512   0.387  0.00  0.00    +0.017 A 
ATOM     23  C   UNL     1      -5.733   2.397  -0.208  0.00  0.00    +0.065 A 
ATOM     24  C   UNL     1      -6.046   3.822  -0.382  0.00  0.00    +0.262 A 
ATOM     25  O   UNL     1      -7.109   4.286  -0.011  0.00  0.00    -0.267 OA
ATOM     26  N   UNL     1      -5.106   4.600  -0.968  0.00  0.00    -0.298 N 
ATOM     27  C   UNL     1      -5.364   6.029  -1.161  0.00  0.00    +0.154 C 
ATOM     28 CL   UNL     1      -4.655  -1.948   0.270  0.00  0.00    -0.083 Cl
ENDBRANCH  15  16
ENDBRANCH   1  15
BRANCH   1  29
ATOM     29  C   UNL     1      -2.239   7.254  -1.138  0.00  0.00    +0.108 C 
BRANCH  29  30
ATOM     30  C   UNL     1      -1.097   7.662  -2.070  0.00  0.00    +0.019 C 
BRANCH  30  31
ATOM     31  C   UNL     1      -0.985   9.188  -2.103  0.00  0.00    +0.001 C 
BRANCH  31  32
ATOM     32  C   UNL     1       0.158   9.596  -3.034  0.00  0.00    -0.002 C 
BRANCH  32  33
ATOM     33  C   UNL     1       0.269  11.121  -3.067  0.00  0.00    -0.020 C 
BRANCH  33  34
ATOM     34  C   UNL     1       1.412  11.529  -3.999  0.00  0.00    -0.086 C 
BRANCH  34  35
ATOM     35  N   UNL     1       1.519  12.994  -4.030  0.00  0.00    +0.378 N 
ATOM     36  H   UNL     1       2.341  13.287  -4.700  0.00  0.00    -0.090 HD
ATOM     37  H   UNL     1       1.722  13.369  -3.016  0.00  0.00    -0.090 HD
ATOM     38  H   UNL     1       0.575  13.423  -4.398  0.00  0.00    -0.090 HD
ENDBRANCH  34  35
ENDBRANCH  33  34
ENDBRANCH  32  33
ENDBRANCH  31  32
ENDBRANCH  30  31
ENDBRANCH  29  30
ENDBRANCH   1  29
TORSDOF 10
