REMARK  Name = ZINC35054026
REMARK  5 active torsions:
REMARK  status: ('A' for Active; 'I' for Inactive)
REMARK    1  A    between atoms: C_1  and  C_2
REMARK    2  A    between atoms: C_2  and  O_3
REMARK    3  A    between atoms: O_3  and  C_4
REMARK    4  A    between atoms: C_5  and  N_12
REMARK    5  A    between atoms: C_13  and  C_15
REMARK                            x       y       z     vdW  Elec       q    Type
REMARK                         _______ _______ _______ _____ _____    ______ ____
ROOT
ATOM      1  C   UNL     1       0.568  -2.035  -0.814  0.00  0.00    +0.156 A 
ATOM      2  C   UNL     1       1.884  -2.491  -0.832  0.00  0.00    +0.078 A 
ATOM      3  C   UNL     1       2.207  -3.639  -1.539  0.00  0.00    +0.047 A 
ATOM      4  C   UNL     1       1.223  -4.329  -2.225  0.00  0.00    +0.044 A 
ATOM      5  C   UNL     1      -0.084  -3.875  -2.207  0.00  0.00    +0.039 A 
ATOM      6  C   UNL     1      -0.414  -2.733  -1.499  0.00  0.00    +0.063 A 
ATOM      7 BR   UNL     1      -2.203  -2.122  -1.470  0.00  0.00    -0.046 Br
ATOM      8 CL   UNL     1       1.629  -5.766  -3.111  0.00  0.00    -0.083 Cl
ENDROOT
BRANCH   2   9
ATOM      9  N   UNL     1       2.879  -1.791  -0.137  0.00  0.00    -0.284 N 
ATOM     10  C   UNL     1       3.892  -2.462   0.447  0.00  0.00    +0.203 C 
ATOM     11  O   UNL     1       3.987  -3.663   0.304  0.00  0.00    -0.277 OA
ATOM     12  H   UNL     1       2.840  -0.824  -0.076  0.00  0.00    +0.155 HD
BRANCH  10  13
ATOM     13  C   UNL     1       4.907  -1.720   1.279  0.00  0.00    +0.016 C 
ATOM     14  C   UNL     1       5.651  -0.690   0.403  0.00  0.00    -0.009 C 
ATOM     15  C   UNL     1       7.107  -0.769   0.933  0.00  0.00    -0.020 C 
ATOM     16  C   UNL     1       7.239  -2.276   1.265  0.00  0.00    -0.082 C 
ATOM     17  N   UNL     1       5.913  -2.663   1.801  0.00  0.00    +0.387 N 
ATOM     18  H   UNL     1       5.927  -2.621   2.809  0.00  0.00    -0.085 HD
ATOM     19  H   UNL     1       5.686  -3.600   1.504  0.00  0.00    -0.085 HD
ENDBRANCH  10  13
ENDBRANCH   2   9
BRANCH   1  20
ATOM     20  O   UNL     1       0.246  -0.910  -0.121  0.00  0.00    -0.489 OA
BRANCH  20  22
ATOM     21  C   UNL     1      -0.455   0.289   1.857  0.00  0.00    +0.048 C 
ATOM     22  C   UNL     1      -0.131  -1.076   1.248  0.00  0.00    +0.226 C 
ENDBRANCH  20  22
ENDBRANCH   1  20
TORSDOF 4
