REMARK  Name = ZINC44818480
REMARK  6 active torsions:
REMARK  status: ('A' for Active; 'I' for Inactive)
REMARK    1  A    between atoms: C_1  and  C_2
REMARK    2  A    between atoms: C_5  and  O_27
REMARK    3  A    between atoms: C_6  and  C_8
REMARK    4  A    between atoms: C_8  and  C_10
REMARK    5  A    between atoms: C_12  and  C_16
REMARK    6  A    between atoms: N_13  and  C_15
REMARK                            x       y       z     vdW  Elec       q    Type
REMARK                         _______ _______ _______ _____ _____    ______ ____
ROOT
ATOM      1  C   UNL     1      -0.044  -2.042   3.736  0.00  0.00    +0.041 A 
ATOM      2  C   UNL     1      -0.004  -2.673   5.002  0.00  0.00    +0.042 A 
ATOM      3  C   UNL     1       0.387  -1.731   5.905  0.00  0.00    +0.085 A 
ATOM      4  N   UNL     1       0.588  -0.545   5.236  0.00  0.00    -0.347 N 
ATOM      5  C   UNL     1       0.336  -0.727   3.927  0.00  0.00    +0.097 A 
ATOM      6  C   UNL     1       1.015   0.714   5.850  0.00  0.00    +0.149 C 
ENDROOT
BRANCH   3   7
ATOM      7  C   UNL     1       0.564  -1.945   7.348  0.00  0.00    +0.159 A 
ATOM      8  N   UNL     1       1.116  -0.954   8.116  0.00  0.00    -0.305 N 
ATOM      9  H   UNL     1       1.385  -0.121   7.698  0.00  0.00    +0.170 HD
ATOM     10  C   UNL     1       1.292  -1.115   9.440  0.00  0.00    +0.260 A 
ATOM     11  O   UNL     1       1.784  -0.224  10.111  0.00  0.00    -0.267 OA
ATOM     12  C   UNL     1       0.893  -2.348  10.052  0.00  0.00    +0.072 A 
ATOM     13  C   UNL     1       0.980  -2.752  11.443  0.00  0.00    +0.023 A 
ATOM     14  C   UNL     1       0.540  -3.969  11.800  0.00  0.00    +0.048 A 
ATOM     15  S   UNL     1      -0.032  -4.671  10.265  0.00  0.00    -0.077 S 
ATOM     16  C   UNL     1       0.335  -3.310   9.187  0.00  0.00    +0.116 A 
ATOM     17  N   UNL     1       0.183  -3.087   7.889  0.00  0.00    -0.220 NA
ENDBRANCH   3   7
BRANCH   1  18
ATOM     18  C   UNL     1      -0.414  -2.669   2.455  0.00  0.00    +0.198 C 
ATOM     19  O   UNL     1      -0.814  -3.818   2.434  0.00  0.00    -0.286 OA
BRANCH  18  25
ATOM     20  C   UNL     1       1.758  -1.956  -1.977  0.00  0.00    +0.044 C 
ATOM     21  C   UNL     1       0.743  -1.556  -0.937  0.00  0.00    -0.050 A 
ATOM     22  C   UNL     1      -0.084  -0.467  -1.163  0.00  0.00    +0.007 A 
ATOM     23  C   UNL     1      -1.017  -0.090  -0.219  0.00  0.00    +0.046 A 
ATOM     24  C   UNL     1      -1.134  -0.802   0.966  0.00  0.00    +0.128 A 
ATOM     25  C   UNL     1      -0.299  -1.904   1.199  0.00  0.00    +0.064 A 
ATOM     26  C   UNL     1       0.637  -2.278   0.231  0.00  0.00    +0.018 A 
BRANCH  24  27
ATOM     27  O   UNL     1      -2.050  -0.432   1.895  0.00  0.00    -0.506 OA
ATOM     28  H   UNL     1      -2.913  -0.856   1.788  0.00  0.00    +0.292 HD
ENDBRANCH  24  27
ENDBRANCH  18  25
ENDBRANCH   1  18
TORSDOF 4
