REMARK  Name = ZINC00876619
REMARK  6 active torsions:
REMARK  status: ('A' for Active; 'I' for Inactive)
REMARK    1  A    between atoms: C_1  and  C_2
REMARK    2  A    between atoms: C_2  and  O_3
REMARK    3  A    between atoms: O_3  and  C_4
REMARK    4  A    between atoms: C_11  and  C_16
REMARK    5  A    between atoms: C_29  and  N_33
REMARK    6  A    between atoms: C_30  and  C_31
REMARK                            x       y       z     vdW  Elec       q    Type
REMARK                         _______ _______ _______ _____ _____    ______ ____
ROOT
ATOM      1  C   UNL     1       4.958   1.184  -0.036  0.00  0.00    +0.104 C 
ATOM      2  C   UNL     1       5.725   1.574   1.199  0.00  0.00    +0.015 A 
ATOM      3  C   UNL     1       5.402   0.976   2.430  0.00  0.00    -0.010 A 
ATOM      4  C   UNL     1       4.374   0.021   2.525  0.00  0.00    +0.009 A 
ATOM      5  C   UNL     1       4.085  -0.538   3.732  0.00  0.00    +0.001 A 
ATOM      6  C   UNL     1       4.792  -0.178   4.878  0.00  0.00    +0.001 A 
ATOM      7  C   UNL     1       5.793   0.742   4.823  0.00  0.00    +0.008 A 
ATOM      8  C   UNL     1       6.121   1.341   3.595  0.00  0.00    -0.017 A 
ATOM      9  C   UNL     1       7.148   2.295   3.498  0.00  0.00    +0.012 A 
ATOM     10  C   UNL     1       7.436   2.855   2.295  0.00  0.00    +0.047 A 
ATOM     11  C   UNL     1       6.726   2.498   1.138  0.00  0.00    +0.135 A 
ATOM     12  O   UNL     1       7.056   3.090  -0.038  0.00  0.00    -0.441 OA
ATOM     13  C   UNL     1       6.704   2.519  -1.201  0.00  0.00    +0.199 C 
ATOM     14  C   UNL     1       5.710   1.601  -1.270  0.00  0.00    +0.098 C 
ENDROOT
BRANCH   1  22
ATOM     15  C   UNL     1      -1.215   1.754   0.017  0.00  0.00    +0.121 A 
ATOM     16  C   UNL     1      -1.236   3.147   0.029  0.00  0.00    +0.047 A 
ATOM     17  C   UNL     1      -0.062   3.867   0.022  0.00  0.00    +0.030 A 
ATOM     18  C   UNL     1       1.160   3.203   0.008  0.00  0.00    +0.049 A 
ATOM     19  C   UNL     1       1.187   1.796   0.000  0.00  0.00    +0.002 A 
ATOM     20  C   UNL     1      -0.013   1.076   0.008  0.00  0.00    +0.055 A 
ATOM     21  C   UNL     1       2.480   1.110  -0.015  0.00  0.00    +0.020 A 
ATOM     22  C   UNL     1       3.611   1.859  -0.021  0.00  0.00    +0.030 A 
ATOM     23  C   UNL     1       3.530   3.268  -0.014  0.00  0.00    +0.253 A 
ATOM     24  O   UNL     1       4.559   3.922  -0.020  0.00  0.00    -0.268 OA
ATOM     25  N   UNL     1       2.347   3.907  -0.000  0.00  0.00    -0.322 N 
ATOM     26  H   UNL     1       2.328   4.907   0.004  0.00  0.00    +0.169 HD
BRANCH  15  27
ATOM     27  O   UNL     1      -2.383   1.060   0.019  0.00  0.00    -0.492 OA
BRANCH  27  29
ATOM     28  C   UNL     1      -4.793   0.875   0.029  0.00  0.00    +0.048 C 
ATOM     29  C   UNL     1      -3.591   1.823   0.029  0.00  0.00    +0.225 C 
ENDBRANCH  27  29
ENDBRANCH  15  27
ENDBRANCH   1  22
BRANCH  13  30
ATOM     30  N   UNL     1       7.368   2.874  -2.349  0.00  0.00    -0.328 N 
ATOM     31  H   UNL     1       7.123   2.469  -3.196  0.00  0.00    +0.145 HD
ATOM     32  H   UNL     1       8.082   3.530  -2.313  0.00  0.00    +0.145 HD
ENDBRANCH  13  30
BRANCH  14  33
ATOM     33  C   UNL     1       5.370   1.021  -2.534  0.00  0.00    +0.101 C 
ATOM     34  N   UNL     1       5.101   0.560  -3.537  0.00  0.00    -0.191 NA
ENDBRANCH  14  33
TORSDOF 5
