REMARK  Name = ZINC65585170
REMARK  12 active torsions:
REMARK  status: ('A' for Active; 'I' for Inactive)
REMARK    1  A    between atoms: C_1  and  C_2
REMARK    2  A    between atoms: C_2  and  C_3
REMARK    3  A    between atoms: C_3  and  C_4
REMARK    4  A    between atoms: C_4  and  C_5
REMARK    5  A    between atoms: C_5  and  C_6
REMARK    6  A    between atoms: C_5  and  N_22
REMARK    7  A    between atoms: N_8  and  C_9
REMARK    8  A    between atoms: N_12  and  C_15
REMARK    9  A    between atoms: C_15  and  C_16
REMARK   10  A    between atoms: N_18  and  C_19
REMARK   11  A    between atoms: C_19  and  C_20
REMARK   12  A    between atoms: C_20  and  C_21
REMARK                            x       y       z     vdW  Elec       q    Type
REMARK                         _______ _______ _______ _____ _____    ______ ____
ROOT
ATOM      1  C   UNL     1      -2.828  -4.096   0.131  0.00  0.00    +0.234 C 
ATOM      2  O   UNL     1      -2.981  -4.782  -0.857  0.00  0.00    -0.274 OA
ATOM      3  N   UNL     1      -2.640  -4.676   1.332  0.00  0.00    -0.311 N 
ATOM      4  H   UNL     1      -2.518  -4.128   2.123  0.00  0.00    +0.149 HD
ENDROOT
BRANCH   3   5
ATOM      5  C   UNL     1      -2.621  -6.137   1.445  0.00  0.00    +0.069 C 
ATOM      6  C   UNL     1      -4.054  -6.658   1.591  0.00  0.00    +0.003 C 
ATOM      7  C   UNL     1      -4.021  -8.175   1.788  0.00  0.00    -0.076 C 
ATOM      8  N   UNL     1      -3.255  -8.499   2.997  0.00  0.00    +0.385 N 
ATOM      9  C   UNL     1      -1.862  -8.066   2.835  0.00  0.00    -0.076 C 
ATOM     10  C   UNL     1      -1.811  -6.545   2.679  0.00  0.00    +0.003 C 
ATOM     11  H   UNL     1      -3.663  -8.026   3.789  0.00  0.00    -0.081 HD
BRANCH   8  12
ATOM     12  C   UNL     1      -3.292  -9.950   3.224  0.00  0.00    +0.019 C 
BRANCH  12  13
ATOM     13  C   UNL     1      -2.611 -10.272   4.530  0.00  0.00    +0.196 C 
ATOM     14  O   UNL     1      -2.141  -9.380   5.204  0.00  0.00    -0.278 OA
ATOM     15  N   UNL     1      -2.524 -11.550   4.948  0.00  0.00    -0.317 N 
ATOM     16  H   UNL     1      -2.900 -12.263   4.408  0.00  0.00    +0.149 HD
BRANCH  15  17
ATOM     17  C   UNL     1      -1.863 -11.863   6.217  0.00  0.00    +0.104 C 
BRANCH  17  18
ATOM     18  C   UNL     1      -1.901 -13.374   6.454  0.00  0.00    +0.015 C 
ATOM     19  C   UNL     1      -1.210 -13.700   7.779  0.00  0.00    +0.005 C 
ENDBRANCH  17  18
ENDBRANCH  15  17
ENDBRANCH  12  13
ENDBRANCH   8  12
ENDBRANCH   3   5
BRANCH   1  20
ATOM     20  C   UNL     1      -2.848  -2.593   0.015  0.00  0.00    +0.160 C 
BRANCH  20  21
ATOM     21  N   UNL     1      -3.520  -2.208  -1.228  0.00  0.00    -0.288 N 
ATOM     22  C   UNL     1      -3.030  -2.619  -2.414  0.00  0.00    +0.298 C 
ATOM     23  O   UNL     1      -2.030  -3.310  -2.453  0.00  0.00    -0.253 OA
ATOM     24  N   UNL     1      -3.648  -2.265  -3.558  0.00  0.00    -0.313 N 
ATOM     25  H   UNL     1      -4.318  -1.657  -1.198  0.00  0.00    +0.151 HD
ATOM     26  H   UNL     1      -4.446  -1.713  -3.528  0.00  0.00    +0.146 HD
ATOM     27  H   UNL     1      -3.296  -2.561  -4.412  0.00  0.00    +0.146 HD
ENDBRANCH  20  21
BRANCH  20  28
ATOM     28  C   UNL     1      -1.413  -2.063   0.004  0.00  0.00    +0.032 C 
BRANCH  28  29
ATOM     29  C   UNL     1      -1.433  -0.534   0.013  0.00  0.00    +0.002 C 
BRANCH  29  31
ATOM     30  C   UNL     1      -0.019   1.526   0.010  0.00  0.00    +0.004 C 
ATOM     31  C   UNL     1       0.002  -0.004   0.002  0.00  0.00    -0.003 C 
ENDBRANCH  29  31
ENDBRANCH  28  29
ENDBRANCH  20  28
ENDBRANCH   1  20
TORSDOF 10
