REMARK  Name = ZINC65252660
REMARK  10 active torsions:
REMARK  status: ('A' for Active; 'I' for Inactive)
REMARK    1  A    between atoms: C_1  and  C_2
REMARK    2  A    between atoms: C_2  and  C_3
REMARK    3  A    between atoms: C_3  and  C_4
REMARK    4  A    between atoms: C_4  and  C_5
REMARK    5  A    between atoms: C_4  and  N_6
REMARK    6  A    between atoms: C_7  and  C_9
REMARK    7  A    between atoms: N_13  and  C_15
REMARK    8  A    between atoms: C_15  and  C_16
REMARK    9  A    between atoms: C_15  and  C_17
REMARK   10  A    between atoms: N_19  and  C_20
REMARK                            x       y       z     vdW  Elec       q    Type
REMARK                         _______ _______ _______ _____ _____    ______ ____
ROOT
ATOM      1  C   UNL     1       1.015  -4.410  -1.709  0.00  0.00    +0.058 C 
ATOM      2  C   UNL     1       2.123  -3.477  -2.207  0.00  0.00    +0.009 C 
ATOM      3  C   UNL     1       2.410  -3.782  -3.680  0.00  0.00    -0.018 C 
ATOM      4  C   UNL     1       2.786  -5.258  -3.825  0.00  0.00    -0.078 C 
ATOM      5  N   UNL     1       1.677  -6.098  -3.357  0.00  0.00    +0.388 N 
ATOM      6  C   UNL     1       1.443  -5.862  -1.927  0.00  0.00    -0.065 C 
ATOM      7  H   UNL     1       0.842  -5.870  -3.875  0.00  0.00    -0.081 HD
ENDROOT
BRANCH   1   9
ATOM      8  N   UNL     1       0.391  -2.953   0.190  0.00  0.00    -0.313 N 
ATOM      9  C   UNL     1       0.778  -4.170  -0.240  0.00  0.00    +0.215 C 
ATOM     10  O   UNL     1       0.936  -5.072   0.555  0.00  0.00    -0.276 OA
ATOM     11  H   UNL     1       0.264  -2.231  -0.446  0.00  0.00    +0.149 HD
BRANCH   8  12
ATOM     12  C   UNL     1       0.160  -2.719   1.618  0.00  0.00    +0.070 C 
ATOM     13  C   UNL     1      -1.266  -3.139   1.979  0.00  0.00    +0.028 C 
BRANCH  12  14
ATOM     14  C   UNL     1       0.348  -1.233   1.929  0.00  0.00    +0.022 C 
BRANCH  14  16
ATOM     15  C   UNL     1       1.996   0.644   1.996  0.00  0.00    +0.004 C 
ATOM     16  C   UNL     1       1.808  -0.842   1.685  0.00  0.00    -0.002 C 
ENDBRANCH  14  16
ENDBRANCH  12  14
ENDBRANCH   8  12
ENDBRANCH   1   9
BRANCH   5  17
ATOM     17  C   UNL     1       2.012  -7.513  -3.570  0.00  0.00    +0.016 C 
ATOM     18  C   UNL     1       2.192  -7.774  -5.067  0.00  0.00    -0.004 C 
BRANCH  17  19
ATOM     19  C   UNL     1       0.898  -8.378  -3.040  0.00  0.00    +0.203 C 
ATOM     20  O   UNL     1      -0.233  -7.944  -2.985  0.00  0.00    -0.277 OA
ATOM     21  N   UNL     1       1.159  -9.634  -2.627  0.00  0.00    -0.285 N 
ATOM     22  H   UNL     1       2.074  -9.955  -2.599  0.00  0.00    +0.155 HD
BRANCH  21  23
ATOM     23  C   UNL     1       0.109 -10.476  -2.238  0.00  0.00    +0.069 A 
ATOM     24  C   UNL     1      -1.185 -10.217  -2.668  0.00  0.00    +0.027 A 
ATOM     25  C   UNL     1      -2.219 -11.049  -2.284  0.00  0.00    +0.022 A 
ATOM     26  C   UNL     1      -1.967 -12.139  -1.469  0.00  0.00    +0.044 A 
ATOM     27  C   UNL     1      -0.679 -12.400  -1.038  0.00  0.00    +0.060 A 
ATOM     28  C   UNL     1       0.361 -11.575  -1.424  0.00  0.00    +0.146 A 
ATOM     29  F   UNL     1       1.621 -11.833  -1.008  0.00  0.00    -0.203 F 
ATOM     30 CL   UNL     1      -3.270 -13.181  -0.988  0.00  0.00    -0.083 Cl
ENDBRANCH  21  23
ENDBRANCH  17  19
ENDBRANCH   5  17
TORSDOF 7
