REMARK  Name = ZINC36486115
REMARK  13 active torsions:
REMARK  status: ('A' for Active; 'I' for Inactive)
REMARK    1  A    between atoms: C_1  and  C_2
REMARK    2  A    between atoms: C_2  and  C_4
REMARK    3  A    between atoms: C_2  and  C_31
REMARK    4  A    between atoms: C_4  and  C_5
REMARK    5  A    between atoms: N_7  and  C_8
REMARK    6  A    between atoms: N_7  and  C_15
REMARK    7  A    between atoms: C_15  and  C_17
REMARK    8  A    between atoms: C_15  and  C_24
REMARK    9  A    between atoms: C_22  and  O_23
REMARK   10  A    between atoms: N_26  and  C_27
REMARK   11  A    between atoms: C_27  and  C_28
REMARK   12  A    between atoms: C_27  and  C_29
REMARK   13  A    between atoms: C_27  and  C_30
REMARK                            x       y       z     vdW  Elec       q    Type
REMARK                         _______ _______ _______ _____ _____    ______ ____
ROOT
ATOM      1  C   UNL     1       0.244   0.016  -2.672  0.00  0.00    +0.221 C 
ATOM      2  O   UNL     1      -0.844   0.430  -2.334  0.00  0.00    -0.275 OA
ATOM      3  N   UNL     1       0.487  -0.263  -3.968  0.00  0.00    -0.255 N 
ENDROOT
BRANCH   3   4
ATOM      4  C   UNL     1       1.704  -0.844  -4.343  0.00  0.00    +0.039 A 
ATOM      5  C   UNL     1       2.657  -0.089  -5.014  0.00  0.00    +0.023 A 
ATOM      6  C   UNL     1       3.857  -0.664  -5.382  0.00  0.00    +0.003 A 
ATOM      7  C   UNL     1       4.111  -1.990  -5.085  0.00  0.00    +0.020 A 
ATOM      8  C   UNL     1       3.164  -2.745  -4.417  0.00  0.00    +0.043 A 
ATOM      9  C   UNL     1       1.962  -2.174  -4.040  0.00  0.00    +0.043 A 
ATOM     10 CL   UNL     1       3.486  -4.410  -4.045  0.00  0.00    -0.083 Cl
ENDBRANCH   3   4
BRANCH   1  11
ATOM     11  C   UNL     1       1.326  -0.187  -1.642  0.00  0.00    +0.104 C 
BRANCH  11  13
ATOM     12  C   UNL     1       0.653   1.861  -0.378  0.00  0.00    +0.013 C 
ATOM     13  C   UNL     1       0.849   0.346  -0.290  0.00  0.00    +0.025 C 
BRANCH  13  14
ATOM     14  C   UNL     1       1.879   0.033   0.765  0.00  0.00    -0.044 A 
ATOM     15  C   UNL     1       3.162   0.534   0.648  0.00  0.00    +0.004 A 
ATOM     16  C   UNL     1       4.107   0.247   1.615  0.00  0.00    +0.000 A 
ATOM     17  C   UNL     1       3.769  -0.540   2.700  0.00  0.00    +0.000 A 
ATOM     18  C   UNL     1       2.486  -1.040   2.818  0.00  0.00    +0.000 A 
ATOM     19  C   UNL     1       1.540  -0.750   1.852  0.00  0.00    +0.004 A 
ENDBRANCH  13  14
ENDBRANCH  11  13
ENDBRANCH   1  11
BRANCH   3  20
ATOM     20  C   UNL     1      -0.523   0.041  -4.984  0.00  0.00    +0.201 C 
BRANCH  20  21
ATOM     21  C   UNL     1      -0.691   1.535  -5.095  0.00  0.00    +0.024 A 
ATOM     22  C   UNL     1       0.351   2.374  -4.749  0.00  0.00    +0.009 A 
ATOM     23  C   UNL     1       0.198   3.745  -4.849  0.00  0.00    +0.001 A 
ATOM     24  C   UNL     1      -0.997   4.279  -5.297  0.00  0.00    +0.004 A 
ATOM     25  C   UNL     1      -2.041   3.443  -5.644  0.00  0.00    +0.046 A 
ATOM     26  C   UNL     1      -1.888   2.067  -5.549  0.00  0.00    +0.122 A 
BRANCH  26  27
ATOM     27  O   UNL     1      -2.912   1.243  -5.896  0.00  0.00    -0.506 OA
ATOM     28  H   UNL     1      -3.511   1.032  -5.166  0.00  0.00    +0.292 HD
ENDBRANCH  26  27
ENDBRANCH  20  21
BRANCH  20  29
ATOM     29  C   UNL     1      -0.082  -0.515  -6.314  0.00  0.00    +0.239 C 
ATOM     30  O   UNL     1       0.886  -1.242  -6.375  0.00  0.00    -0.273 OA
ATOM     31  N   UNL     1      -0.764  -0.203  -7.434  0.00  0.00    -0.309 N 
ATOM     32  H   UNL     1      -1.538   0.378  -7.384  0.00  0.00    +0.149 HD
BRANCH  31  33
ATOM     33  C   UNL     1      -0.335  -0.744  -8.726  0.00  0.00    +0.026 C 
ATOM     34  C   UNL     1      -0.378  -2.272  -8.680  0.00  0.00    +0.031 C 
ATOM     35  C   UNL     1      -1.272  -0.240  -9.826  0.00  0.00    +0.031 C 
ATOM     36  C   UNL     1       1.094  -0.283  -9.023  0.00  0.00    +0.031 C 
ENDBRANCH  31  33
ENDBRANCH  20  29
ENDBRANCH   3  20
TORSDOF 9
