REMARK  Name = ZINC38971279
REMARK  7 active torsions:
REMARK  status: ('A' for Active; 'I' for Inactive)
REMARK    1  A    between atoms: C_1  and  C_2
REMARK    2  A    between atoms: C_6  and  N_8
REMARK    3  A    between atoms: N_8  and  C_9
REMARK    4  A    between atoms: N_12  and  S_13
REMARK    5  A    between atoms: S_13  and  C_16
REMARK    6  A    between atoms: C_19  and  C_23
REMARK    7  A    between atoms: C_20  and  C_22
REMARK                            x       y       z     vdW  Elec       q    Type
REMARK                         _______ _______ _______ _____ _____    ______ ____
ROOT
ATOM      1  C   UNL     1      -0.040  -4.259   2.382  0.00  0.00    +0.237 C 
ATOM      2  C   UNL     1      -1.190  -4.654   3.281  0.00  0.00    +0.192 C 
ATOM      3  N   UNL     1      -2.390  -4.212   3.050  0.00  0.00    -0.110 NA
ATOM      4  N   UNL     1      -0.953  -5.469   4.321  0.00  0.00    -0.226 NA
ATOM      5  C   UNL     1       0.254  -5.931   4.576  0.00  0.00    +0.089 A 
ATOM      6  C   UNL     1       0.468  -6.790   5.684  0.00  0.00    +0.030 A 
ATOM      7  C   UNL     1       1.704  -7.266   5.950  0.00  0.00    +0.002 A 
ATOM      8  C   UNL     1       2.825  -6.948   5.166  0.00  0.00    +0.002 A 
ATOM      9  C   UNL     1       2.733  -6.138   4.089  0.00  0.00    +0.027 A 
ATOM     10  C   UNL     1       1.421  -5.578   3.731  0.00  0.00    +0.063 A 
ATOM     11  N   UNL     1       1.294  -4.794   2.698  0.00  0.00    -0.359 N 
ATOM     12  H   UNL     1       2.061  -4.568   2.150  0.00  0.00    +0.162 HD
ENDROOT
BRANCH   3  13
ATOM     13  S   UNL     1      -3.641  -4.653   4.042  0.00  0.00    +0.100 S 
ATOM     14  O   UNL     1      -3.825  -6.051   3.866  0.00  0.00    -0.146 OA
ATOM     15  O   UNL     1      -3.375  -4.073   5.312  0.00  0.00    -0.146 OA
BRANCH  13  16
ATOM     16  C   UNL     1      -5.095  -3.871   3.427  0.00  0.00    +0.113 A 
ATOM     17  C   UNL     1      -5.446  -2.612   3.876  0.00  0.00    +0.029 A 
ATOM     18  C   UNL     1      -6.587  -1.999   3.393  0.00  0.00    +0.005 A 
ATOM     19  C   UNL     1      -7.377  -2.645   2.460  0.00  0.00    -0.047 A 
ATOM     20  C   UNL     1      -7.025  -3.904   2.010  0.00  0.00    -0.046 A 
ATOM     21  C   UNL     1      -5.882  -4.515   2.490  0.00  0.00    +0.032 A 
ATOM     22  C   UNL     1      -7.886  -4.608   0.994  0.00  0.00    +0.044 C 
ATOM     23  C   UNL     1      -8.621  -1.977   1.934  0.00  0.00    +0.044 C 
ENDBRANCH  13  16
ENDBRANCH   3  13
BRANCH   1  24
ATOM     24  N   UNL     1       0.051  -2.796   2.390  0.00  0.00    -0.318 N 
ATOM     25  H   UNL     1       0.086  -2.317   3.233  0.00  0.00    +0.148 HD
BRANCH  24  31
ATOM     26  C   UNL     1       0.374  -2.821  -2.514  0.00  0.00    +0.044 C 
ATOM     27  C   UNL     1       0.244  -2.079  -1.208  0.00  0.00    -0.049 A 
ATOM     28  C   UNL     1       0.161  -0.698  -1.204  0.00  0.00    +0.003 A 
ATOM     29  C   UNL     1       0.042  -0.013  -0.009  0.00  0.00    +0.002 A 
ATOM     30  C   UNL     1       0.005  -0.706   1.185  0.00  0.00    +0.023 A 
ATOM     31  C   UNL     1       0.088  -2.092   1.185  0.00  0.00    +0.029 A 
ATOM     32  C   UNL     1       0.202  -2.778  -0.019  0.00  0.00    +0.026 A 
ENDBRANCH  24  31
ENDBRANCH   1  24
TORSDOF 4
