REMARK  Name = ZINC04808350
REMARK  4 active torsions:
REMARK  status: ('A' for Active; 'I' for Inactive)
REMARK    1  A    between atoms: C_4  and  N_7
REMARK    2  A    between atoms: C_8  and  C_21
REMARK    3  A    between atoms: C_11  and  C_13
REMARK    4  A    between atoms: C_18  and  O_19
REMARK                            x       y       z     vdW  Elec       q    Type
REMARK                         _______ _______ _______ _____ _____    ______ ____
ROOT
ATOM      1  N   UNL     1       2.351   3.888  -0.000  0.00  0.00    -0.216 N 
ATOM      2  C   UNL     1       2.471   5.354   0.006  0.00  0.00    +0.134 C 
ATOM      3  C   UNL     1       3.994   5.593  -0.007  0.00  0.00    +0.087 C 
ATOM      4  C   UNL     1       4.581   4.200  -0.019  0.00  0.00    +0.072 C 
ATOM      5  N   UNL     1       3.629   3.332  -0.010  0.00  0.00    -0.183 NA
ENDROOT
BRANCH   4   6
ATOM      6  C   UNL     1       6.021   3.884  -0.033  0.00  0.00    +0.040 A 
ATOM      7  C   UNL     1       6.965   4.913  -0.042  0.00  0.00    +0.028 A 
ATOM      8  C   UNL     1       8.312   4.610  -0.050  0.00  0.00    +0.019 A 
ATOM      9  C   UNL     1       8.730   3.289  -0.060  0.00  0.00    +0.019 A 
ATOM     10  C   UNL     1       7.803   2.263  -0.057  0.00  0.00    +0.047 A 
ATOM     11  C   UNL     1       6.449   2.550  -0.044  0.00  0.00    +0.126 A 
ATOM     12 BR   UNL     1       9.591   6.003  -0.054  0.00  0.00    -0.050 Br
BRANCH  11  13
ATOM     13  O   UNL     1       5.538   1.541  -0.040  0.00  0.00    -0.506 OA
ATOM     14  H   UNL     1       5.266   1.254  -0.923  0.00  0.00    +0.292 HD
ENDBRANCH  11  13
ENDBRANCH   4   6
BRANCH   2  15
ATOM     15  C   UNL     1       1.828   5.944  -1.223  0.00  0.00    -0.025 A 
ATOM     16  C   UNL     1       1.956   5.307  -2.443  0.00  0.00    +0.008 A 
ATOM     17  C   UNL     1       1.363   5.844  -3.570  0.00  0.00    +0.038 A 
ATOM     18  C   UNL     1       0.649   7.027  -3.478  0.00  0.00    +0.123 A 
ATOM     19  C   UNL     1       0.526   7.667  -2.257  0.00  0.00    +0.038 A 
ATOM     20  C   UNL     1       1.116   7.125  -1.131  0.00  0.00    +0.008 A 
ATOM     21  F   UNL     1       0.073   7.556  -4.580  0.00  0.00    -0.205 F 
ENDBRANCH   2  15
BRANCH   1  25
ATOM     22  C   UNL     1      -1.220   1.750   0.017  0.00  0.00    +0.000 A 
ATOM     23  C   UNL     1      -0.013   1.076   0.008  0.00  0.00    +0.002 A 
ATOM     24  C   UNL     1       1.174   1.782   0.000  0.00  0.00    +0.025 A 
ATOM     25  C   UNL     1       1.154   3.171   0.008  0.00  0.00    +0.052 A 
ATOM     26  C   UNL     1      -0.061   3.845   0.022  0.00  0.00    +0.025 A 
ATOM     27  C   UNL     1      -1.244   3.133   0.030  0.00  0.00    +0.002 A 
ENDBRANCH   1  25
TORSDOF 4
