REMARK  Name = ZINC43224433
REMARK  16 active torsions:
REMARK  status: ('A' for Active; 'I' for Inactive)
REMARK    1  A    between atoms: C_4  and  N_7
REMARK    2  A    between atoms: N_7  and  C_8
REMARK    3  A    between atoms: C_8  and  N_10
REMARK    4  A    between atoms: N_10  and  N_11
REMARK    5  A    between atoms: C_12  and  C_13
REMARK    6  A    between atoms: C_13  and  C_25
REMARK    7  A    between atoms: N_14  and  N_15
REMARK    8  A    between atoms: N_15  and  C_16
REMARK    9  A    between atoms: C_16  and  N_18
REMARK   10  A    between atoms: N_18  and  C_19
REMARK   11  A    between atoms: C_25  and  C_27
REMARK   12  A    between atoms: C_27  and  C_29
REMARK   13  A    between atoms: C_27  and  O_34
REMARK   14  A    between atoms: C_29  and  C_31
REMARK   15  A    between atoms: C_29  and  O_33
REMARK   16  A    between atoms: C_31  and  O_32
REMARK                            x       y       z     vdW  Elec       q    Type
REMARK                         _______ _______ _______ _____ _____    ______ ____
ROOT
ATOM      1  C   UNL     1       6.275  -5.174  -1.174  0.00  0.00    +0.113 C 
ATOM      2  N   UNL     1       5.972  -5.306  -2.433  0.00  0.00    -0.181 NA
ENDROOT
BRANCH   1   3
ATOM      3  C   UNL     1       7.518  -5.827  -0.626  0.00  0.00    +0.239 C 
ATOM      4  O   UNL     1       7.630  -5.541   0.770  0.00  0.00    -0.222 OA
BRANCH   3   5
ATOM      5  C   UNL     1       8.746  -5.283  -1.358  0.00  0.00    +0.183 C 
BRANCH   5   6
ATOM      6  O   UNL     1       8.663  -3.858  -1.433  0.00  0.00    -0.386 OA
ATOM      7  H   UNL     1       9.002  -3.403  -0.650  0.00  0.00    +0.210 HD
ENDBRANCH   5   6
BRANCH   5   8
ATOM      8  C   UNL     1      10.012  -5.681  -0.597  0.00  0.00    +0.171 C 
BRANCH   8   9
ATOM      9  O   UNL     1      10.167  -4.836   0.545  0.00  0.00    -0.387 OA
ATOM     10  H   UNL     1      10.645  -4.015   0.364  0.00  0.00    +0.210 HD
ENDBRANCH   8   9
BRANCH   8  11
ATOM     11  C   UNL     1      11.227  -5.529  -1.513  0.00  0.00    +0.189 C 
BRANCH  11  12
ATOM     12  O   UNL     1      12.393  -6.011  -0.842  0.00  0.00    -0.392 OA
ATOM     13  H   UNL     1      13.204  -5.944  -1.365  0.00  0.00    +0.210 HD
ENDBRANCH  11  12
ENDBRANCH   8  11
ENDBRANCH   5   8
ENDBRANCH   3   5
ENDBRANCH   1   3
BRANCH   2  14
ATOM     14  N   UNL     1       4.881  -4.609  -2.968  0.00  0.00    -0.218 N 
ATOM     15  H   UNL     1       4.398  -3.970  -2.421  0.00  0.00    +0.176 HD
BRANCH  14  16
ATOM     16  C   UNL     1       4.503  -4.825  -4.244  0.00  0.00    +0.154 C 
ATOM     17  S   UNL     1       3.254  -3.881  -4.938  0.00  0.00    -0.017 S 
BRANCH  16  18
ATOM     18  N   UNL     1       5.108  -5.784  -4.973  0.00  0.00    -0.296 N 
ATOM     19  H   UNL     1       5.757  -6.372  -4.557  0.00  0.00    +0.154 HD
BRANCH  18  20
ATOM     20  C   UNL     1       4.798  -5.931  -6.329  0.00  0.00    +0.033 A 
ATOM     21  C   UNL     1       4.842  -4.831  -7.176  0.00  0.00    +0.023 A 
ATOM     22  C   UNL     1       4.536  -4.979  -8.514  0.00  0.00    +0.002 A 
ATOM     23  C   UNL     1       4.186  -6.221  -9.011  0.00  0.00    +0.000 A 
ATOM     24  C   UNL     1       4.141  -7.318  -8.170  0.00  0.00    +0.002 A 
ATOM     25  C   UNL     1       4.452  -7.178  -6.832  0.00  0.00    +0.023 A 
ENDBRANCH  18  20
ENDBRANCH  16  18
ENDBRANCH  14  16
ENDBRANCH   2  14
BRANCH   1  27
ATOM     26  N   UNL     1       5.931  -3.671   0.658  0.00  0.00    -0.187 NA
ATOM     27  C   UNL     1       5.410  -4.392  -0.292  0.00  0.00    +0.158 C 
BRANCH  26  28
ATOM     28  N   UNL     1       7.203  -3.106   0.493  0.00  0.00    -0.218 N 
ATOM     29  H   UNL     1       7.951  -3.665   0.230  0.00  0.00    +0.176 HD
BRANCH  28  30
ATOM     30  C   UNL     1       7.386  -1.787   0.699  0.00  0.00    +0.154 C 
ATOM     31  S   UNL     1       8.889  -1.062   0.316  0.00  0.00    -0.017 S 
BRANCH  30  32
ATOM     32  N   UNL     1       6.387  -1.039   1.206  0.00  0.00    -0.296 N 
ATOM     33  H   UNL     1       5.564  -1.462   1.498  0.00  0.00    +0.154 HD
BRANCH  32  37
ATOM     34  C   UNL     1       6.827   3.092   1.517  0.00  0.00    +0.000 A 
ATOM     35  C   UNL     1       7.092   2.458   0.317  0.00  0.00    +0.002 A 
ATOM     36  C   UNL     1       6.947   1.089   0.210  0.00  0.00    +0.023 A 
ATOM     37  C   UNL     1       6.535   0.348   1.310  0.00  0.00    +0.033 A 
ATOM     38  C   UNL     1       6.271   0.988   2.515  0.00  0.00    +0.023 A 
ATOM     39  C   UNL     1       6.417   2.357   2.615  0.00  0.00    +0.002 A 
ENDBRANCH  32  37
ENDBRANCH  30  32
ENDBRANCH  28  30
ENDBRANCH  26  28
ENDBRANCH   1  27
TORSDOF 16
