REMARK  Name = ZINC00457378
REMARK  7 active torsions:
REMARK  status: ('A' for Active; 'I' for Inactive)
REMARK    1  A    between atoms: C_2  and  C_3
REMARK    2  A    between atoms: C_3  and  C_4
REMARK    3  A    between atoms: C_8  and  C_11
REMARK    4  A    between atoms: C_9  and  O_10
REMARK    5  A    between atoms: N_12  and  N_13
REMARK    6  A    between atoms: C_14  and  C_19
REMARK    7  A    between atoms: C_17  and  S_18
REMARK                            x       y       z     vdW  Elec       q    Type
REMARK                         _______ _______ _______ _____ _____    ______ ____
ROOT
ATOM      1  C   UNL     1       3.702  -0.580   0.012  0.00  0.00    +0.145 C 
ATOM      2  N   UNL     1       3.728  -1.876   0.082  0.00  0.00    -0.170 NA
ENDROOT
BRANCH   1   7
ATOM      3  C   UNL     1       1.384   2.024  -1.397  0.00  0.00    -0.002 A 
ATOM      4  C   UNL     1       0.159   1.406  -1.228  0.00  0.00    +0.007 A 
ATOM      5  C   UNL     1       0.083   0.147  -0.659  0.00  0.00    +0.001 A 
ATOM      6  C   UNL     1       1.229  -0.504  -0.254  0.00  0.00    +0.013 A 
ATOM      7  C   UNL     1       2.473   0.109  -0.418  0.00  0.00    +0.036 A 
ATOM      8  C   UNL     1       2.546   1.385  -0.996  0.00  0.00    +0.129 A 
BRANCH   8   9
ATOM      9  O   UNL     1       3.749   1.991  -1.160  0.00  0.00    -0.506 OA
ATOM     10  H   UNL     1       4.015   2.547  -0.414  0.00  0.00    +0.292 HD
ENDBRANCH   8   9
BRANCH   3  11
ATOM     11  C   UNL     1       1.456   3.395  -2.018  0.00  0.00    +0.065 C 
BRANCH  11  13
ATOM     12  C   UNL     1       0.917   3.829  -4.360  0.00  0.00    +0.004 C 
ATOM     13  C   UNL     1       1.723   3.264  -3.496  0.00  0.00    -0.030 C 
ENDBRANCH  11  13
ENDBRANCH   3  11
ENDBRANCH   1   7
BRANCH   2  14
ATOM     14  N   UNL     1       2.552  -2.612  -0.110  0.00  0.00    -0.187 N 
ATOM     15  C   UNL     1       1.962  -2.942  -1.311  0.00  0.00    +0.186 A 
ATOM     16  N   UNL     1       0.882  -3.635  -1.032  0.00  0.00    -0.126 NA
ATOM     17  N   UNL     1       0.756  -3.761   0.241  0.00  0.00    -0.121 NA
ATOM     18  C   UNL     1       1.751  -3.160   0.855  0.00  0.00    +0.209 A 
BRANCH  15  19
ATOM     19  C   UNL     1       2.452  -2.583  -2.658  0.00  0.00    +0.021 A 
ATOM     20  C   UNL     1       3.420  -1.589  -2.810  0.00  0.00    +0.011 A 
ATOM     21  C   UNL     1       3.877  -1.262  -4.070  0.00  0.00    +0.001 A 
ATOM     22  C   UNL     1       3.370  -1.910  -5.183  0.00  0.00    +0.000 A 
ATOM     23  C   UNL     1       2.407  -2.893  -5.040  0.00  0.00    +0.001 A 
ATOM     24  C   UNL     1       1.945  -3.233  -3.785  0.00  0.00    +0.011 A 
ENDBRANCH  15  19
BRANCH  18  25
ATOM     25  S   UNL     1       2.005  -3.072   2.597  0.00  0.00    -0.102 S 
ATOM     26  H   UNL     1       1.297  -1.888   2.888  0.00  0.00    +0.110 HD
ENDBRANCH  18  25
ENDBRANCH   2  14
TORSDOF 7
