REMARK  Name = ZINC15080281
REMARK  10 active torsions:
REMARK  status: ('A' for Active; 'I' for Inactive)
REMARK    1  A    between atoms: C_1  and  O_2
REMARK    2  A    between atoms: O_2  and  C_3
REMARK    3  A    between atoms: C_6  and  C_11
REMARK    4  A    between atoms: C_8  and  O_9
REMARK    5  A    between atoms: O_9  and  C_10
REMARK    6  A    between atoms: C_24  and  N_33
REMARK    7  A    between atoms: C_25  and  C_26
REMARK    8  A    between atoms: C_26  and  N_32
REMARK    9  A    between atoms: C_27  and  C_28
REMARK   10  A    between atoms: C_27  and  C_30
REMARK                            x       y       z     vdW  Elec       q    Type
REMARK                         _______ _______ _______ _____ _____    ______ ____
ROOT
ATOM      1  C   UNL     1      -3.727   1.560   0.225  0.00  0.00    +0.089 C 
ATOM      2  C   UNL     1      -4.776   0.686   0.861  0.00  0.00    +0.008 A 
ATOM      3  C   UNL     1      -5.961   1.274   1.306  0.00  0.00    +0.009 A 
ATOM      4  C   UNL     1      -6.942   0.534   1.891  0.00  0.00    +0.009 A 
ATOM      5  C   UNL     1      -6.767  -0.851   2.053  0.00  0.00    -0.014 A 
ATOM      6  C   UNL     1      -7.758  -1.647   2.650  0.00  0.00    +0.008 A 
ATOM      7  C   UNL     1      -7.553  -2.986   2.789  0.00  0.00    +0.001 A 
ATOM      8  C   UNL     1      -6.372  -3.579   2.348  0.00  0.00    +0.001 A 
ATOM      9  C   UNL     1      -5.389  -2.837   1.765  0.00  0.00    +0.012 A 
ATOM     10  C   UNL     1      -5.567  -1.454   1.605  0.00  0.00    +0.025 A 
ATOM     11  C   UNL     1      -4.569  -0.655   1.004  0.00  0.00    +0.142 A 
ATOM     12  O   UNL     1      -3.422  -1.239   0.579  0.00  0.00    -0.441 OA
ATOM     13  C   UNL     1      -2.324  -0.494   0.377  0.00  0.00    +0.190 C 
ATOM     14  C   UNL     1      -2.402   0.852   0.198  0.00  0.00    +0.044 C 
ENDROOT
BRANCH   1  18
ATOM     15  C   UNL     1      -4.918   2.487  -3.776  0.00  0.00    +0.162 A 
ATOM     16  C   UNL     1      -4.812   1.166  -3.370  0.00  0.00    +0.050 A 
ATOM     17  C   UNL     1      -4.422   0.870  -2.077  0.00  0.00    +0.008 A 
ATOM     18  C   UNL     1      -4.146   1.889  -1.184  0.00  0.00    -0.032 A 
ATOM     19  C   UNL     1      -4.249   3.208  -1.583  0.00  0.00    +0.054 A 
ATOM     20  C   UNL     1      -4.635   3.512  -2.879  0.00  0.00    +0.162 A 
BRANCH  15  22
ATOM     21  C   UNL     1      -5.570   1.677  -5.915  0.00  0.00    +0.277 C 
ATOM     22  O   UNL     1      -5.296   2.780  -5.049  0.00  0.00    -0.491 OA
ENDBRANCH  15  22
BRANCH  20  23
ATOM     23  O   UNL     1      -4.737   4.810  -3.273  0.00  0.00    -0.491 OA
ATOM     24  C   UNL     1      -4.432   5.809  -2.299  0.00  0.00    +0.277 C 
ENDBRANCH  20  23
ENDBRANCH   1  18
BRANCH  13  25
ATOM     25  N   UNL     1      -1.097  -1.104   0.351  0.00  0.00    -0.329 N 
ATOM     26  H   UNL     1      -0.189  -0.505   0.187  0.00  0.00    +0.145 HD
ATOM     27  H   UNL     1      -1.020  -2.191   0.495  0.00  0.00    +0.145 HD
ENDBRANCH  13  25
BRANCH  14  28
ATOM     28  C   UNL     1      -1.230   1.590  -0.010  0.00  0.00    +0.062 C 
ATOM     29  C   UNL     1      -0.448   1.361  -1.157  0.00  0.00    +0.149 C 
BRANCH  28  30
ATOM     30  N   UNL     1      -0.843   2.540   0.909  0.00  0.00    -0.356 N 
ATOM     31  H   UNL     1       0.078   3.119   0.746  0.00  0.00    +0.142 HD
ATOM     32  H   UNL     1      -1.454   2.719   1.806  0.00  0.00    +0.142 HD
ENDBRANCH  28  30
BRANCH  29  33
ATOM     33  C   UNL     1      -0.913   0.465  -2.173  0.00  0.00    +0.112 C 
ATOM     34  N   UNL     1      -1.282  -0.245  -2.980  0.00  0.00    -0.190 NA
ENDBRANCH  29  33
BRANCH  29  35
ATOM     35  C   UNL     1       0.814   2.022  -1.308  0.00  0.00    +0.112 C 
ATOM     36  N   UNL     1       1.814   2.547  -1.427  0.00  0.00    -0.190 NA
ENDBRANCH  29  35
ENDBRANCH  14  28
TORSDOF 8
