REMARK  Name = ZINC13602505
REMARK  7 active torsions:
REMARK  status: ('A' for Active; 'I' for Inactive)
REMARK    1  A    between atoms: C_4  and  C_7
REMARK    2  A    between atoms: N_9  and  C_10
REMARK    3  A    between atoms: C_10  and  C_17
REMARK    4  A    between atoms: C_11  and  C_12
REMARK    5  A    between atoms: N_19  and  N_20
REMARK    6  A    between atoms: C_21  and  C_22
REMARK    7  A    between atoms: C_27  and  O_28
REMARK                            x       y       z     vdW  Elec       q    Type
REMARK                         _______ _______ _______ _____ _____    ______ ____
ROOT
ATOM      1  C   UNL     1      -1.302   3.221  -0.029  0.00  0.00    +0.099 C 
ATOM      2  C   UNL     1      -0.066   3.787   0.021  0.00  0.00    +0.043 C 
ENDROOT
BRANCH   2   3
ATOM      3  C   UNL     1       1.090   2.972  -0.049  0.00  0.00    +0.014 A 
ATOM      4  C   UNL     1       2.425   3.331   0.083  0.00  0.00    +0.015 A 
ATOM      5  C   UNL     1       3.377   2.349  -0.025  0.00  0.00    +0.008 A 
ATOM      6  C   UNL     1       2.988   1.065  -0.257  0.00  0.00    +0.046 A 
ATOM      7  S   UNL     1       1.210   1.212  -0.324  0.00  0.00    -0.097 S 
ENDBRANCH   2   3
BRANCH   1  10
ATOM      8  C   UNL     1      -3.668   3.476  -0.011  0.00  0.00    +0.248 C 
ATOM      9  O   UNL     1      -3.784   2.281   0.180  0.00  0.00    -0.270 OA
ATOM     10  N   UNL     1      -2.442   4.033  -0.071  0.00  0.00    -0.277 N 
ATOM     11  H   UNL     1      -2.350   4.996  -0.144  0.00  0.00    +0.155 HD
BRANCH   8  15
ATOM     12  C   UNL     1      -7.126   5.897  -0.486  0.00  0.00    +0.000 A 
ATOM     13  C   UNL     1      -7.262   4.537  -0.269  0.00  0.00    +0.001 A 
ATOM     14  C   UNL     1      -6.143   3.745  -0.114  0.00  0.00    +0.013 A 
ATOM     15  C   UNL     1      -4.872   4.319  -0.176  0.00  0.00    +0.037 A 
ATOM     16  C   UNL     1      -4.742   5.692  -0.389  0.00  0.00    +0.013 A 
ATOM     17  C   UNL     1      -5.869   6.472  -0.548  0.00  0.00    +0.001 A 
ENDBRANCH   8  15
ENDBRANCH   1  10
BRANCH   1  18
ATOM     18  C   UNL     1      -1.440   1.764  -0.038  0.00  0.00    +0.277 C 
ATOM     19  O   UNL     1      -1.550   1.170  -1.095  0.00  0.00    -0.267 OA
ATOM     20  N   UNL     1      -1.445   1.081   1.123  0.00  0.00    -0.202 N 
ATOM     21  H   UNL     1      -1.426   1.558   1.967  0.00  0.00    +0.178 HD
BRANCH  20  22
ATOM     22  N   UNL     1      -1.472  -0.320   1.111  0.00  0.00    -0.187 NA
ATOM     23  C   UNL     1      -1.377  -0.981   2.225  0.00  0.00    +0.142 C 
BRANCH  23  24
ATOM     24  C   UNL     1      -1.295  -2.452   2.204  0.00  0.00    +0.039 A 
ATOM     25  C   UNL     1      -1.192  -3.167   3.400  0.00  0.00    +0.033 A 
ATOM     26  C   UNL     1      -1.115  -4.544   3.374  0.00  0.00    +0.043 A 
ATOM     27  C   UNL     1      -1.138  -5.222   2.166  0.00  0.00    +0.043 A 
ATOM     28  C   UNL     1      -1.240  -4.526   0.975  0.00  0.00    +0.084 A 
ATOM     29  C   UNL     1      -1.324  -3.142   0.985  0.00  0.00    +0.144 A 
ATOM     30 CL   UNL     1      -1.268  -5.386  -0.532  0.00  0.00    -0.080 Cl
ATOM     31 CL   UNL     1      -0.989  -5.431   4.861  0.00  0.00    -0.083 Cl
BRANCH  29  32
ATOM     32  O   UNL     1      -1.428  -2.457  -0.184  0.00  0.00    -0.505 OA
ATOM     33  H   UNL     1      -0.578  -2.209  -0.572  0.00  0.00    +0.292 HD
ENDBRANCH  29  32
ENDBRANCH  23  24
ENDBRANCH  20  22
ENDBRANCH   1  18
TORSDOF 7
