REMARK  Name = ZINC39354546
REMARK  5 active torsions:
REMARK  status: ('A' for Active; 'I' for Inactive)
REMARK    1  A    between atoms: C_4  and  C_7
REMARK    2  A    between atoms: C_10  and  N_12
REMARK    3  A    between atoms: C_13  and  C_15
REMARK    4  A    between atoms: C_15  and  S_16
REMARK    5  A    between atoms: S_16  and  C_17
REMARK                            x       y       z     vdW  Elec       q    Type
REMARK                         _______ _______ _______ _____ _____    ______ ____
ROOT
ATOM      1  N   UNL     1       6.004  -3.292  -0.850  0.00  0.00    -0.283 N 
ATOM      2  C   UNL     1       6.628  -4.407  -0.422  0.00  0.00    +0.225 C 
ATOM      3  O   UNL     1       5.982  -5.331   0.024  0.00  0.00    -0.275 OA
ATOM      4  H   UNL     1       6.521  -2.554  -1.207  0.00  0.00    +0.152 HD
ENDROOT
BRANCH   1   8
ATOM      5  C   UNL     1       3.711  -0.707  -0.038  0.00  0.00    +0.189 C 
ATOM      6  N   UNL     1       3.719  -1.822   0.937  0.00  0.00    -0.293 N 
ATOM      7  N   UNL     1       4.090  -2.932   0.607  0.00  0.00    -0.181 NA
ATOM      8  C   UNL     1       4.544  -3.197  -0.777  0.00  0.00    +0.273 C 
ATOM      9  S   UNL     1       3.927  -1.663  -1.605  0.00  0.00    -0.083 S 
ATOM     10  H   UNL     1       3.424  -1.665   1.848  0.00  0.00    +0.184 HD
BRANCH   5  14
ATOM     11  C   UNL     1      -0.017   1.378   0.010  0.00  0.00    +0.000 A 
ATOM     12  C   UNL     1       1.171   2.086   0.002  0.00  0.00    +0.000 A 
ATOM     13  C   UNL     1       2.377   1.411  -0.013  0.00  0.00    +0.006 A 
ATOM     14  C   UNL     1       2.396   0.029  -0.020  0.00  0.00    -0.014 A 
ATOM     15  C   UNL     1       1.208  -0.679  -0.012  0.00  0.00    +0.006 A 
ATOM     16  C   UNL     1       0.002  -0.004   0.002  0.00  0.00    +0.000 A 
ENDBRANCH   5  14
ENDBRANCH   1   8
BRANCH   2  17
ATOM     17  C   UNL     1       8.130  -4.506  -0.498  0.00  0.00    +0.173 C 
BRANCH  17  18
ATOM     18  S   UNL     1       8.664  -6.115   0.149  0.00  0.00    -0.079 S 
BRANCH  18  19
ATOM     19  C   UNL     1      10.419  -6.075  -0.005  0.00  0.00    +0.168 A 
ATOM     20  N   UNL     1      11.110  -5.070  -0.483  0.00  0.00    -0.222 NA
ATOM     21  C   UNL     1      12.434  -5.374  -0.459  0.00  0.00    +0.091 A 
ATOM     22  C   UNL     1      13.585  -4.681  -0.842  0.00  0.00    +0.050 A 
ATOM     23  C   UNL     1      14.822  -5.270  -0.690  0.00  0.00    +0.043 A 
ATOM     24  C   UNL     1      14.932  -6.548  -0.160  0.00  0.00    +0.022 A 
ATOM     25  C   UNL     1      13.804  -7.245   0.223  0.00  0.00    +0.029 A 
ATOM     26  C   UNL     1      12.552  -6.667   0.077  0.00  0.00    +0.067 A 
ATOM     27  N   UNL     1      11.262  -7.086   0.361  0.00  0.00    -0.333 N 
ATOM     28 CL   UNL     1      16.252  -4.409  -1.166  0.00  0.00    -0.083 Cl
ATOM     29  H   UNL     1      11.005  -7.939   0.746  0.00  0.00    +0.168 HD
ENDBRANCH  18  19
ENDBRANCH  17  18
ENDBRANCH   2  17
TORSDOF 5
