REMARK  Name = ZINC00453381
REMARK  4 active torsions:
REMARK  status: ('A' for Active; 'I' for Inactive)
REMARK    1  A    between atoms: C_6  and  N_7
REMARK    2  A    between atoms: N_7  and  C_8
REMARK    3  A    between atoms: C_8  and  N_10
REMARK    4  A    between atoms: N_10  and  C_11
REMARK                            x       y       z     vdW  Elec       q    Type
REMARK                         _______ _______ _______ _____ _____    ______ ____
ROOT
ATOM      1  C   UNL     1      -2.386  -0.099   0.521  0.00  0.00    +0.139 C 
ATOM      2  S   UNL     1      -2.451   1.539   1.017  0.00  0.00    -0.018 S 
ENDROOT
BRANCH   1   3
ATOM      3  N   UNL     1      -1.197  -0.725   0.417  0.00  0.00    -0.297 N 
ATOM      4  H   UNL     1      -1.152  -1.622   0.051  0.00  0.00    +0.154 HD
BRANCH   3  10
ATOM      5  C   UNL     1      -0.040   0.706   1.982  0.00  0.00    +0.027 A 
ATOM      6  C   UNL     1       1.114   1.343   2.397  0.00  0.00    +0.051 A 
ATOM      7  C   UNL     1       2.287   1.199   1.674  0.00  0.00    +0.166 A 
ATOM      8  C   UNL     1       2.303   0.411   0.525  0.00  0.00    +0.168 A 
ATOM      9  C   UNL     1       1.146  -0.227   0.110  0.00  0.00    +0.072 A 
ATOM     10  C   UNL     1      -0.027  -0.080   0.837  0.00  0.00    +0.036 A 
ATOM     11  O   UNL     1       3.563   0.431   0.000  0.00  0.00    -0.453 OA
ATOM     12  C   UNL     1       4.214   1.563   0.606  0.00  0.00    +0.466 C 
ATOM     13  O   UNL     1       3.537   1.712   1.868  0.00  0.00    -0.453 OA
ENDBRANCH   3  10
ENDBRANCH   1   3
BRANCH   1  14
ATOM     14  N   UNL     1      -3.524  -0.761   0.235  0.00  0.00    -0.297 N 
ATOM     15  H   UNL     1      -3.494  -1.706   0.019  0.00  0.00    +0.154 HD
BRANCH  14  16
ATOM     16  C   UNL     1      -4.751  -0.086   0.251  0.00  0.00    +0.036 A 
ATOM     17  C   UNL     1      -5.662  -0.276  -0.780  0.00  0.00    +0.027 A 
ATOM     18  C   UNL     1      -6.873   0.390  -0.766  0.00  0.00    +0.051 A 
ATOM     19  C   UNL     1      -7.181   1.249   0.276  0.00  0.00    +0.166 A 
ATOM     20  C   UNL     1      -6.270   1.442   1.312  0.00  0.00    +0.168 A 
ATOM     21  C   UNL     1      -5.059   0.770   1.300  0.00  0.00    +0.072 A 
ATOM     22  O   UNL     1      -6.805   2.325   2.205  0.00  0.00    -0.453 OA
ATOM     23  C   UNL     1      -7.876   2.982   1.502  0.00  0.00    +0.466 C 
ATOM     24  O   UNL     1      -8.288   2.011   0.522  0.00  0.00    -0.453 OA
ENDBRANCH  14  16
ENDBRANCH   1  14
TORSDOF 4
