REMARK  Name = ZINC44963930
REMARK  14 active torsions:
REMARK  status: ('A' for Active; 'I' for Inactive)
REMARK    1  A    between atoms: C_3  and  O_10
REMARK    2  A    between atoms: C_6  and  N_7
REMARK    3  A    between atoms: O_10  and  C_11
REMARK    4  A    between atoms: C_13  and  O_26
REMARK    5  A    between atoms: C_15  and  O_25
REMARK    6  A    between atoms: C_17  and  O_24
REMARK    7  A    between atoms: C_19  and  C_22
REMARK    8  A    between atoms: C_22  and  O_23
REMARK    9  A    between atoms: O_26  and  C_27
REMARK   10  A    between atoms: C_29  and  O_42
REMARK   11  A    between atoms: C_31  and  O_41
REMARK   12  A    between atoms: C_33  and  O_40
REMARK   13  A    between atoms: C_35  and  C_38
REMARK   14  A    between atoms: C_38  and  O_39
REMARK                            x       y       z     vdW  Elec       q    Type
REMARK                         _______ _______ _______ _____ _____    ______ ____
ROOT
ATOM      1  C   UNL     1       4.756   1.341  -0.037  0.00  0.00    +0.340 C 
ATOM      2  C   UNL     1       5.950   2.268   0.206  0.00  0.00    +0.221 C 
ATOM      3  C   UNL     1       7.244   1.454   0.129  0.00  0.00    +0.180 C 
ATOM      4  C   UNL     1       7.316   0.759  -1.235  0.00  0.00    +0.177 C 
ATOM      5  C   UNL     1       6.070  -0.110  -1.422  0.00  0.00    +0.179 C 
ATOM      6  O   UNL     1       4.901   0.703  -1.308  0.00  0.00    -0.331 OA
ENDROOT
BRANCH   4   7
ATOM      7  O   UNL     1       7.373   1.743  -2.270  0.00  0.00    -0.386 OA
ATOM      8  H   UNL     1       7.421   1.374  -3.162  0.00  0.00    +0.210 HD
ENDBRANCH   4   7
BRANCH   3   9
ATOM      9  O   UNL     1       7.255   0.473   1.168  0.00  0.00    -0.386 OA
ATOM     10  H   UNL     1       8.048  -0.081   1.178  0.00  0.00    +0.210 HD
ENDBRANCH   3   9
BRANCH   1  11
ATOM     11  O   UNL     1       3.548   2.104  -0.021  0.00  0.00    -0.461 OA
BRANCH  11  14
ATOM     12  C   UNL     1      -0.017   1.378   0.010  0.00  0.00    +0.036 A 
ATOM     13  C   UNL     1       1.169   2.087   0.002  0.00  0.00    +0.048 A 
ATOM     14  C   UNL     1       2.380   1.409  -0.013  0.00  0.00    +0.124 A 
ATOM     15  C   UNL     1       2.396   0.022  -0.021  0.00  0.00    +0.048 A 
ATOM     16  C   UNL     1       1.207  -0.681  -0.013  0.00  0.00    +0.036 A 
ATOM     17  C   UNL     1       0.002  -0.004   0.002  0.00  0.00    +0.126 A 
BRANCH  17  18
ATOM     18  N   UNL     1      -1.270  -0.760   0.011  0.00  0.00    +0.056 N 
ATOM     19  O   UNL     1      -2.325  -0.169   0.024  0.00  0.00    -0.126 OA
ATOM     20  O   UNL     1      -1.255  -1.969   0.004  0.00  0.00    -0.126 OA
ENDBRANCH  17  18
ENDBRANCH  11  14
ENDBRANCH   1  11
BRANCH   5  21
ATOM     21  C   UNL     1       6.106  -0.761  -2.807  0.00  0.00    +0.190 C 
BRANCH  21  22
ATOM     22  O   UNL     1       5.005  -1.662  -2.938  0.00  0.00    -0.392 OA
ATOM     23  H   UNL     1       4.964  -2.111  -3.793  0.00  0.00    +0.210 HD
ENDBRANCH  21  22
ENDBRANCH   5  21
BRANCH   2  24
ATOM     24  O   UNL     1       5.968   3.293  -0.789  0.00  0.00    -0.337 OA
BRANCH  24  25
ATOM     25  C   UNL     1       5.233   4.465  -0.431  0.00  0.00    +0.282 C 
ATOM     26  C   UNL     1       5.111   5.384  -1.650  0.00  0.00    +0.201 C 
ATOM     27  C   UNL     1       4.374   6.664  -1.243  0.00  0.00    +0.179 C 
ATOM     28  C   UNL     1       5.129   7.328  -0.087  0.00  0.00    +0.177 C 
ATOM     29  C   UNL     1       5.251   6.335   1.071  0.00  0.00    +0.178 C 
ATOM     30  O   UNL     1       5.917   5.155   0.617  0.00  0.00    -0.341 OA
BRANCH  28  31
ATOM     31  O   UNL     1       6.433   7.713  -0.527  0.00  0.00    -0.386 OA
ATOM     32  H   UNL     1       6.431   8.339  -1.264  0.00  0.00    +0.210 HD
ENDBRANCH  28  31
BRANCH  27  33
ATOM     33  O   UNL     1       4.318   7.557  -2.356  0.00  0.00    -0.386 OA
ATOM     34  H   UNL     1       3.858   7.197  -3.127  0.00  0.00    +0.210 HD
ENDBRANCH  27  33
BRANCH  26  35
ATOM     35  O   UNL     1       6.415   5.714  -2.131  0.00  0.00    -0.384 OA
ATOM     36  H   UNL     1       6.939   4.949  -2.403  0.00  0.00    +0.210 HD
ENDBRANCH  26  35
BRANCH  29  37
ATOM     37  C   UNL     1       6.055   6.971   2.206  0.00  0.00    +0.190 C 
BRANCH  37  38
ATOM     38  O   UNL     1       6.070   6.090   3.331  0.00  0.00    -0.392 OA
ATOM     39  H   UNL     1       6.564   6.429   4.090  0.00  0.00    +0.210 HD
ENDBRANCH  37  38
ENDBRANCH  29  37
ENDBRANCH  24  25
ENDBRANCH   2  24
TORSDOF 14
