REMARK  Name = ZINC33436094
REMARK  2 active torsions:
REMARK  status: ('A' for Active; 'I' for Inactive)
REMARK    1  A    between atoms: N_15  and  C_16
REMARK    2  A    between atoms: C_17  and  C_21
REMARK                            x       y       z     vdW  Elec       q    Type
REMARK                         _______ _______ _______ _____ _____    ______ ____
ROOT
ATOM      1  C   UNL     1      -6.005   2.665   1.520  0.00  0.00    +0.126 A 
ATOM      2  C   UNL     1      -4.725   2.115   1.420  0.00  0.00    +0.178 A 
ATOM      3  N   UNL     1      -4.151   1.758   2.559  0.00  0.00    -0.135 NA
ATOM      4  N   UNL     1      -4.756   1.927   3.686  0.00  0.00    -0.108 NA
ATOM      5  S   UNL     1      -6.253   2.620   3.237  0.00  0.00    +0.052 S 
ENDROOT
BRANCH   1  20
ATOM      6  C   UNL     1     -12.340   8.305  -3.287  0.00  0.00    +0.005 A 
ATOM      7  C   UNL     1     -11.382   8.947  -4.060  0.00  0.00    +0.018 A 
ATOM      8  C   UNL     1     -10.098   8.443  -4.102  0.00  0.00    +0.084 A 
ATOM      9  N   UNL     1      -9.771   7.365  -3.414  0.00  0.00    -0.350 N 
ATOM     10  C   UNL     1     -10.657   6.721  -2.670  0.00  0.00    +0.099 A 
ATOM     11  C   UNL     1     -11.970   7.174  -2.581  0.00  0.00    +0.042 A 
ATOM     12  N   UNL     1     -10.271   5.587  -1.966  0.00  0.00    -0.314 N 
ATOM     13  C   UNL     1      -8.852   5.282  -2.196  0.00  0.00    +0.125 C 
ATOM     14  C   UNL     1      -8.512   3.933  -1.555  0.00  0.00    +0.128 C 
ATOM     15  N   UNL     1      -8.919   3.971  -0.142  0.00  0.00    -0.282 N 
ATOM     16  C   UNL     1     -10.291   4.396   0.176  0.00  0.00    +0.128 C 
ATOM     17  C   UNL     1     -10.559   5.732  -0.533  0.00  0.00    +0.125 C 
ATOM     18  C   UNL     1      -8.059   3.623   0.835  0.00  0.00    +0.307 C 
ATOM     19  O   UNL     1      -8.375   3.759   2.001  0.00  0.00    -0.252 OA
ATOM     20  N   UNL     1      -6.848   3.122   0.520  0.00  0.00    -0.261 N 
ATOM     21  H   UNL     1      -6.528   3.076  -0.532  0.00  0.00    +0.157 HD
ATOM     22  H   UNL     1      -8.741   6.981  -3.451  0.00  0.00    +0.166 HD
ENDBRANCH   1  20
BRANCH   2  23
ATOM     23  C   UNL     1      -4.055   1.938   0.125  0.00  0.00    +0.269 C 
ATOM     24  O   UNL     1      -4.660   2.158  -0.908  0.00  0.00    -0.268 OA
ATOM     25  N   UNL     1      -2.770   1.532   0.081  0.00  0.00    -0.295 N 
ATOM     26  C   UNL     1      -2.146   1.159  -1.194  0.00  0.00    +0.113 C 
ATOM     27  C   UNL     1      -0.819   1.886  -1.362  0.00  0.00    +0.027 C 
ATOM     28  C   UNL     1       0.057   1.726  -0.119  0.00  0.00    +0.018 C 
ATOM     29  C   UNL     1      -0.698   2.302   1.082  0.00  0.00    +0.054 C 
ATOM     30  C   UNL     1      -1.963   1.455   1.308  0.00  0.00    +0.117 C 
ATOM     31  C   UNL     1      -1.138   3.714   0.777  0.00  0.00    +0.027 A 
ATOM     32  C   UNL     1      -1.286   4.565   1.828  0.00  0.00    +0.022 A 
ATOM     33  C   UNL     1      -1.757   5.867   1.627  0.00  0.00    +0.007 A 
ATOM     34  C   UNL     1      -2.090   6.260   0.364  0.00  0.00    +0.070 A 
ATOM     35  C   UNL     1      -1.928   5.357  -0.696  0.00  0.00    +0.251 A 
ATOM     36  O   UNL     1      -2.286   5.674  -1.820  0.00  0.00    -0.268 OA
ATOM     37  N   UNL     1      -1.378   4.136  -0.485  0.00  0.00    -0.312 N 
ATOM     38  C   UNL     1      -1.014   3.360  -1.671  0.00  0.00    +0.130 C 
ENDBRANCH   2  23
TORSDOF 2
