REMARK  Name = ZINC46560711
REMARK  5 active torsions:
REMARK  status: ('A' for Active; 'I' for Inactive)
REMARK    1  A    between atoms: C_1  and  C_2
REMARK    2  A    between atoms: C_2  and  C_3
REMARK    3  A    between atoms: C_2  and  C_4
REMARK    4  A    between atoms: N_9  and  C_12
REMARK    5  A    between atoms: C_12  and  C_13
REMARK                            x       y       z     vdW  Elec       q    Type
REMARK                         _______ _______ _______ _____ _____    ______ ____
ROOT
ATOM      1  C   UNL     1      -3.313  -6.528  -1.426  0.00  0.00    +0.146 A 
ATOM      2  N   UNL     1      -3.355  -7.467  -0.497  0.00  0.00    -0.216 NA
ATOM      3  C   UNL     1      -4.490  -8.025  -0.109  0.00  0.00    +0.128 A 
ATOM      4  C   UNL     1      -5.709  -7.602  -0.710  0.00  0.00    +0.051 A 
ATOM      5  C   UNL     1      -7.072  -8.073  -0.441  0.00  0.00    -0.025 A 
ATOM      6  C   UNL     1      -8.061  -7.506  -1.158  0.00  0.00    -0.004 A 
ATOM      7  S   UNL     1      -7.257  -6.324  -2.209  0.00  0.00    -0.073 S 
ATOM      8  C   UNL     1      -5.584  -6.599  -1.690  0.00  0.00    +0.114 A 
ATOM      9  N   UNL     1      -4.410  -6.092  -2.014  0.00  0.00    -0.223 NA
ATOM     10  C   UNL     1      -9.527  -7.808  -1.101  0.00  0.00    +0.043 C 
ATOM     11  C   UNL     1      -9.988  -7.803   0.362  0.00  0.00    +0.005 C 
ATOM     12  C   UNL     1      -9.828  -9.213   0.922  0.00  0.00    +0.001 C 
ATOM     13  C   UNL     1      -8.623  -9.896   0.278  0.00  0.00    +0.005 C 
ATOM     14  C   UNL     1      -7.340  -9.145   0.612  0.00  0.00    +0.037 C 
ATOM     15  N   UNL     1      -4.493  -9.005   0.866  0.00  0.00    -0.343 N 
ATOM     16  H   UNL     1      -5.280  -9.139   1.417  0.00  0.00    +0.144 HD
ATOM     17  H   UNL     1      -3.707  -9.559   0.999  0.00  0.00    +0.144 HD
ENDROOT
BRANCH   1  18
ATOM     18  C   UNL     1      -1.983  -5.938  -1.818  0.00  0.00    +0.160 C 
BRANCH  18  24
ATOM     19  C   UNL     1      -0.660  -0.885  -0.348  0.00  0.00    +0.218 C 
ATOM     20  O   UNL     1      -1.511  -0.021  -0.332  0.00  0.00    -0.275 OA
ATOM     21  N   UNL     1      -1.011  -2.180  -0.221  0.00  0.00    -0.299 N 
ATOM     22  C   UNL     1       0.011  -3.233  -0.121  0.00  0.00    +0.123 C 
ATOM     23  C   UNL     1      -0.308  -4.321  -1.152  0.00  0.00    +0.104 C 
ATOM     24  N   UNL     1      -1.692  -4.778  -0.965  0.00  0.00    -0.292 NA
ATOM     25  C   UNL     1      -2.650  -3.692  -1.208  0.00  0.00    +0.104 C 
ATOM     26  C   UNL     1      -2.426  -2.577  -0.174  0.00  0.00    +0.123 C 
BRANCH  19  28
ATOM     27  C   UNL     1       1.192  -0.647  -1.980  0.00  0.00    +0.017 C 
ATOM     28  C   UNL     1       0.791  -0.510  -0.510  0.00  0.00    +0.069 C 
ATOM     29  C   UNL     1       0.997   0.937  -0.058  0.00  0.00    +0.017 C 
ENDBRANCH  19  28
ENDBRANCH  18  24
ENDBRANCH   1  18
TORSDOF 3
