REMARK  Name = ZINC09566719
REMARK  10 active torsions:
REMARK  status: ('A' for Active; 'I' for Inactive)
REMARK    1  A    between atoms: C_1  and  C_2
REMARK    2  A    between atoms: C_2  and  C_3
REMARK    3  A    between atoms: C_2  and  C_4
REMARK    4  A    between atoms: C_4  and  N_5
REMARK    5  A    between atoms: C_6  and  C_27
REMARK    6  A    between atoms: C_9  and  S_10
REMARK    7  A    between atoms: S_10  and  C_11
REMARK    8  A    between atoms: C_11  and  C_12
REMARK    9  A    between atoms: N_14  and  C_15
REMARK   10  A    between atoms: C_16  and  C_24
REMARK                            x       y       z     vdW  Elec       q    Type
REMARK                         _______ _______ _______ _____ _____    ______ ____
ROOT
ATOM      1  C   UNL     1      -5.486   4.770  -1.201  0.00  0.00    +0.228 C 
ATOM      2  O   UNL     1      -5.808   3.615  -1.384  0.00  0.00    -0.275 OA
ATOM      3  N   UNL     1      -6.293   5.768  -1.614  0.00  0.00    -0.279 N 
ATOM      4  H   UNL     1      -6.035   6.691  -1.468  0.00  0.00    +0.155 HD
ENDROOT
BRANCH   3   5
ATOM      5  C   UNL     1      -7.490   5.474  -2.248  0.00  0.00    +0.084 A 
ATOM      6  C   UNL     1      -8.447   6.354  -2.735  0.00  0.00    +0.068 A 
ATOM      7  C   UNL     1      -9.624   5.783  -3.367  0.00  0.00    -0.023 A 
ATOM      8  C   UNL     1      -9.662   4.434  -3.401  0.00  0.00    -0.004 A 
ATOM      9  S   UNL     1      -8.160   3.919  -2.617  0.00  0.00    -0.077 S 
ATOM     10  C   UNL     1     -10.744   3.574  -3.979  0.00  0.00    +0.043 C 
ATOM     11  C   UNL     1     -11.989   4.446  -4.196  0.00  0.00    +0.005 C 
ATOM     12  C   UNL     1     -11.570   5.736  -4.907  0.00  0.00    +0.005 C 
ATOM     13  C   UNL     1     -10.758   6.615  -3.954  0.00  0.00    +0.037 C 
BRANCH   6  14
ATOM     14  C   UNL     1      -8.273   7.805  -2.620  0.00  0.00    +0.244 C 
ATOM     15  O   UNL     1      -7.712   8.423  -3.506  0.00  0.00    -0.270 OA
ATOM     16  N   UNL     1      -8.735   8.455  -1.534  0.00  0.00    -0.325 N 
ATOM     17  H   UNL     1      -9.182   7.963  -0.828  0.00  0.00    +0.145 HD
ATOM     18  H   UNL     1      -8.620   9.415  -1.458  0.00  0.00    +0.145 HD
ENDBRANCH   6  14
ENDBRANCH   3   5
BRANCH   1  19
ATOM     19  C   UNL     1      -4.184   5.089  -0.512  0.00  0.00    +0.173 C 
BRANCH  19  20
ATOM     20  S   UNL     1      -3.336   3.549  -0.083  0.00  0.00    -0.077 S 
BRANCH  20  25
ATOM     21  N   UNL     1      -0.860   3.478   1.220  0.00  0.00    -0.299 N 
ATOM     22  C   UNL     1       0.032   4.407   1.707  0.00  0.00    +0.200 A 
ATOM     23  N   UNL     1      -0.470   5.595   1.449  0.00  0.00    -0.125 NA
ATOM     24  N   UNL     1      -1.602   5.472   0.852  0.00  0.00    -0.122 NA
ATOM     25  C   UNL     1      -1.890   4.201   0.686  0.00  0.00    +0.192 A 
BRANCH  22  26
ATOM     26  C   UNL     1       1.307   4.125   2.384  0.00  0.00    +0.172 A 
ATOM     27  C   UNL     1       2.313   5.019   2.601  0.00  0.00    +0.053 A 
ATOM     28  C   UNL     1       3.333   4.324   3.279  0.00  0.00    +0.042 A 
ATOM     29  C   UNL     1       2.911   3.053   3.434  0.00  0.00    +0.196 A 
ATOM     30  O   UNL     1       1.687   2.936   2.893  0.00  0.00    -0.460 OA
ENDBRANCH  22  26
BRANCH  21  31
ATOM     31  C   UNL     1      -0.735   2.019   1.269  0.00  0.00    +0.129 C 
BRANCH  31  33
ATOM     32  C   UNL     1       0.002  -0.004   0.002  0.00  0.00    +0.009 C 
ATOM     33  C   UNL     1      -0.019   1.526   0.010  0.00  0.00    +0.003 C 
ATOM     34  C   UNL     1       1.417   2.055  -0.000  0.00  0.00    +0.009 C 
ENDBRANCH  31  33
ENDBRANCH  21  31
ENDBRANCH  20  25
ENDBRANCH  19  20
ENDBRANCH   1  19
TORSDOF 8
