REMARK  Name = ZINC01155856
REMARK  9 active torsions:
REMARK  status: ('A' for Active; 'I' for Inactive)
REMARK    1  A    between atoms: C_1  and  C_2
REMARK    2  A    between atoms: C_2  and  C_3
REMARK    3  A    between atoms: C_2  and  C_4
REMARK    4  A    between atoms: C_2  and  C_5
REMARK    5  A    between atoms: C_8  and  S_11
REMARK    6  A    between atoms: S_11  and  N_14
REMARK    7  A    between atoms: N_14  and  N_15
REMARK    8  A    between atoms: C_16  and  C_17
REMARK    9  A    between atoms: C_26  and  O_27
REMARK                            x       y       z     vdW  Elec       q    Type
REMARK                         _______ _______ _______ _____ _____    ______ ____
ROOT
ATOM      1  N   UNL     1       1.223  -2.923  -1.606  0.00  0.00    -0.137 N 
ATOM      2  H   UNL     1       0.500  -3.476  -1.940  0.00  0.00    +0.197 HD
ENDROOT
BRANCH   1   3
ATOM      3  S   UNL     1       1.232  -2.441  -0.022  0.00  0.00    +0.086 S 
ATOM      4  O   UNL     1       2.489  -2.832   0.515  0.00  0.00    -0.149 OA
ATOM      5  O   UNL     1      -0.002  -2.866   0.539  0.00  0.00    -0.149 OA
BRANCH   3   9
ATOM      6  C   UNL     1       1.171   2.086   0.002  0.00  0.00    -0.042 A 
ATOM      7  C   UNL     1      -0.017   1.378   0.010  0.00  0.00    +0.006 A 
ATOM      8  C   UNL     1       0.002  -0.004   0.002  0.00  0.00    +0.029 A 
ATOM      9  C   UNL     1       1.208  -0.679  -0.013  0.00  0.00    +0.110 A 
ATOM     10  C   UNL     1       2.396   0.029  -0.021  0.00  0.00    +0.029 A 
ATOM     11  C   UNL     1       2.377   1.411  -0.015  0.00  0.00    +0.006 A 
BRANCH   6  13
ATOM     12  C   UNL     1       0.434   4.086   1.268  0.00  0.00    +0.015 C 
ATOM     13  C   UNL     1       1.151   3.592   0.010  0.00  0.00    -0.013 C 
ATOM     14  C   UNL     1       2.586   4.122  -0.001  0.00  0.00    +0.015 C 
ATOM     15  C   UNL     1       0.411   4.099  -1.230  0.00  0.00    +0.015 C 
ENDBRANCH   6  13
ENDBRANCH   3   9
ENDBRANCH   1   3
BRANCH   1  16
ATOM     16  N   UNL     1       2.260  -2.532  -2.463  0.00  0.00    -0.174 NA
ATOM     17  C   UNL     1       2.253  -2.910  -3.706  0.00  0.00    +0.143 C 
BRANCH  17  18
ATOM     18  C   UNL     1       3.342  -2.500  -4.606  0.00  0.00    +0.044 A 
ATOM     19  C   UNL     1       3.353  -2.922  -6.005  0.00  0.00    -0.006 A 
ATOM     20  C   UNL     1       2.329  -3.715  -6.537  0.00  0.00    +0.009 A 
ATOM     21  C   UNL     1       2.374  -4.082  -7.849  0.00  0.00    +0.001 A 
ATOM     22  C   UNL     1       3.422  -3.673  -8.671  0.00  0.00    +0.001 A 
ATOM     23  C   UNL     1       4.431  -2.898  -8.187  0.00  0.00    +0.008 A 
ATOM     24  C   UNL     1       4.417  -2.501  -6.839  0.00  0.00    -0.017 A 
ATOM     25  C   UNL     1       5.441  -1.700  -6.304  0.00  0.00    +0.012 A 
ATOM     26  C   UNL     1       5.418  -1.321  -4.998  0.00  0.00    +0.046 A 
ATOM     27  C   UNL     1       4.389  -1.706  -4.141  0.00  0.00    +0.126 A 
BRANCH  27  28
ATOM     28  O   UNL     1       4.406  -1.305  -2.843  0.00  0.00    -0.506 OA
ATOM     29  H   UNL     1       4.865  -1.914  -2.249  0.00  0.00    +0.292 HD
ENDBRANCH  27  28
ENDBRANCH  17  18
ENDBRANCH   1  16
TORSDOF 6
