REMARK  Name = ZINC39665624
REMARK  9 active torsions:
REMARK  status: ('A' for Active; 'I' for Inactive)
REMARK    1  A    between atoms: C_1  and  C_2
REMARK    2  A    between atoms: C_2  and  C_4
REMARK    3  A    between atoms: C_2  and  O_29
REMARK    4  A    between atoms: C_4  and  N_5
REMARK    5  A    between atoms: C_6  and  C_8
REMARK    6  A    between atoms: C_19  and  C_21
REMARK    7  A    between atoms: O_29  and  C_30
REMARK    8  A    between atoms: C_33  and  O_36
REMARK    9  A    between atoms: O_36  and  C_37
REMARK                            x       y       z     vdW  Elec       q    Type
REMARK                         _______ _______ _______ _____ _____    ______ ____
ROOT
ATOM      1  C   UNL     1       2.245  -3.037   2.654  0.00  0.00    +0.100 C 
ATOM      2  C   UNL     1       0.842  -3.685   2.664  0.00  0.00    +0.121 C 
ATOM      3  N   UNL     1       0.943  -4.784   3.652  0.00  0.00    -0.296 N 
ATOM      4  C   UNL     1       1.773  -4.221   4.745  0.00  0.00    +0.115 C 
ATOM      5  C   UNL     1       2.852  -3.391   4.021  0.00  0.00    -0.004 C 
ATOM      6  C   UNL     1       3.156  -2.121   4.810  0.00  0.00    -0.010 C 
ATOM      7  C   UNL     1       3.813  -2.496   6.141  0.00  0.00    -0.082 C 
ATOM      8  N   UNL     1       5.050  -3.244   5.885  0.00  0.00    +0.379 N 
ATOM      9  C   UNL     1       4.739  -4.509   5.208  0.00  0.00    -0.082 C 
ATOM     10  C   UNL     1       4.121  -4.219   3.838  0.00  0.00    -0.010 C 
ATOM     11  C   UNL     1       0.404  -6.016   3.576  0.00  0.00    +0.247 C 
ATOM     12  O   UNL     1      -0.165  -6.369   2.561  0.00  0.00    -0.270 OA
ATOM     13  H   UNL     1       5.660  -2.692   5.300  0.00  0.00    -0.086 HD
ATOM     14  H   UNL     1       5.512  -3.437   6.761  0.00  0.00    -0.086 HD
ENDROOT
BRANCH  11  15
ATOM     15  C   UNL     1       0.503  -6.940   4.726  0.00  0.00    +0.040 A 
ATOM     16  C   UNL     1       0.699  -6.437   6.013  0.00  0.00    +0.033 A 
ATOM     17  C   UNL     1       0.791  -7.304   7.084  0.00  0.00    +0.043 A 
ATOM     18  C   UNL     1       0.689  -8.670   6.882  0.00  0.00    +0.040 A 
ATOM     19  C   UNL     1       0.495  -9.175   5.608  0.00  0.00    +0.043 A 
ATOM     20  C   UNL     1       0.396  -8.317   4.530  0.00  0.00    +0.033 A 
ATOM     21 CL   UNL     1       0.370 -10.889   5.365  0.00  0.00    -0.083 Cl
ATOM     22 CL   UNL     1       1.035  -6.680   8.685  0.00  0.00    -0.083 Cl
ENDBRANCH  11  15
BRANCH   1  24
ATOM     23  N   UNL     1       3.109  -0.853   1.879  0.00  0.00    -0.312 N 
ATOM     24  C   UNL     1       2.132  -1.542   2.501  0.00  0.00    +0.218 C 
ATOM     25  O   UNL     1       1.162  -0.960   2.937  0.00  0.00    -0.275 OA
ATOM     26  H   UNL     1       3.885  -1.319   1.530  0.00  0.00    +0.149 HD
BRANCH  23  27
ATOM     27  C   UNL     1       2.999   0.600   1.730  0.00  0.00    +0.148 C 
BRANCH  27  29
ATOM     28  C   UNL     1       4.116   2.650   0.840  0.00  0.00    +0.053 C 
ATOM     29  C   UNL     1       4.231   1.132   0.995  0.00  0.00    +0.187 C 
BRANCH  29  30
ATOM     30  O   UNL     1       5.406   0.817   1.745  0.00  0.00    -0.488 OA
BRANCH  30  31
ATOM     31  C   UNL     1       6.539   0.562   1.038  0.00  0.00    +0.121 A 
ATOM     32  C   UNL     1       7.678   0.114   1.691  0.00  0.00    +0.049 A 
ATOM     33  C   UNL     1       8.829  -0.146   0.973  0.00  0.00    +0.049 A 
ATOM     34  C   UNL     1       8.846   0.042  -0.401  0.00  0.00    +0.120 A 
ATOM     35  C   UNL     1       7.708   0.490  -1.054  0.00  0.00    +0.049 A 
ATOM     36  C   UNL     1       6.555   0.745  -0.337  0.00  0.00    +0.049 A 
BRANCH  34  37
ATOM     37  O   UNL     1       9.980  -0.212  -1.108  0.00  0.00    -0.495 OA
ATOM     38  C   UNL     1       9.926   0.003  -2.519  0.00  0.00    +0.277 C 
ENDBRANCH  34  37
ENDBRANCH  30  31
ENDBRANCH  29  30
ENDBRANCH  27  29
ENDBRANCH  23  27
ENDBRANCH   1  24
TORSDOF 7
