REMARK  Name = ZINC47370506
REMARK  3 active torsions:
REMARK  status: ('A' for Active; 'I' for Inactive)
REMARK    1  A    between atoms: C_12  and  C_14
REMARK    2  A    between atoms: C_14  and  C_15
REMARK    3  A    between atoms: C_15  and  N_16
REMARK                            x       y       z     vdW  Elec       q    Type
REMARK                         _______ _______ _______ _____ _____    ______ ____
ROOT
ATOM      1  C   UNL     1       2.389  -2.696   0.665  0.00  0.00    +0.116 C 
ENDROOT
BRANCH   1  13
ATOM      2  C   UNL     1       7.167   1.380  -0.805  0.00  0.00    +0.039 A 
ATOM      3  C   UNL     1       5.955   1.982  -1.079  0.00  0.00    +0.008 A 
ATOM      4  C   UNL     1       4.769   1.317  -0.817  0.00  0.00    -0.026 A 
ATOM      5  C   UNL     1       4.804   0.040  -0.280  0.00  0.00    +0.042 A 
ATOM      6  C   UNL     1       6.024  -0.566  -0.003  0.00  0.00    +0.062 A 
ATOM      7  C   UNL     1       7.204   0.105  -0.266  0.00  0.00    +0.125 A 
ATOM      8  F   UNL     1       8.391  -0.482   0.002  0.00  0.00    -0.205 F 
ATOM      9  N   UNL     1       3.619  -0.660  -0.014  0.00  0.00    -0.271 N 
ATOM     10  C   UNL     1       2.345   0.071  -0.022  0.00  0.00    +0.114 C 
ATOM     11  C   UNL     1       2.337   0.983  -1.256  0.00  0.00    +0.024 C 
ATOM     12  C   UNL     1       3.465   2.006  -1.122  0.00  0.00    +0.038 C 
ATOM     13  C   UNL     1       3.648  -1.983   0.246  0.00  0.00    +0.221 C 
ATOM     14  O   UNL     1       4.688  -2.599   0.142  0.00  0.00    -0.275 OA
ENDBRANCH   1  13
BRANCH   1  15
ATOM     15  C   UNL     1       2.720  -4.145   1.027  0.00  0.00    +0.127 C 
BRANCH  15  16
ATOM     16  N   UNL     1       1.495  -4.839   1.435  0.00  0.00    -0.224 N 
ATOM     17  C   UNL     1       1.038  -4.888   2.703  0.00  0.00    +0.247 C 
ATOM     18  O   UNL     1       1.543  -4.387   3.685  0.00  0.00    -0.273 OA
ATOM     19  C   UNL     1      -0.235  -5.700   2.642  0.00  0.00    +0.113 C 
ATOM     20  C   UNL     1      -1.423  -4.860   3.099  0.00  0.00    +0.035 C 
ATOM     21  C   UNL     1      -2.706  -5.691   3.001  0.00  0.00    +0.003 C 
ATOM     22  C   UNL     1      -2.573  -6.937   3.878  0.00  0.00    +0.000 C 
ATOM     23  C   UNL     1      -1.392  -7.781   3.393  0.00  0.00    +0.003 C 
ATOM     24  C   UNL     1      -0.105  -6.959   3.493  0.00  0.00    +0.035 C 
ATOM     25  N   UNL     1      -0.368  -6.049   1.222  0.00  0.00    -0.285 N 
ATOM     26  C   UNL     1       0.688  -5.497   0.594  0.00  0.00    +0.309 C 
ATOM     27  O   UNL     1       0.888  -5.590  -0.601  0.00  0.00    -0.252 OA
ATOM     28  H   UNL     1      -1.077  -6.571   0.816  0.00  0.00    +0.151 HD
ENDBRANCH  15  16
ENDBRANCH   1  15
TORSDOF 3
