REMARK  Name = ZINC13515141
REMARK  14 active torsions:
REMARK  status: ('A' for Active; 'I' for Inactive)
REMARK    1  A    between atoms: C_1  and  C_2
REMARK    2  A    between atoms: N_4  and  C_5
REMARK    3  A    between atoms: C_7  and  O_21
REMARK    4  A    between atoms: C_9  and  O_20
REMARK    5  A    between atoms: C_11  and  C_18
REMARK    6  A    between atoms: C_14  and  O_16
REMARK    7  A    between atoms: O_16  and  C_17
REMARK    8  A    between atoms: C_18  and  O_19
REMARK    9  A    between atoms: O_21  and  C_22
REMARK   10  A    between atoms: C_24  and  O_37
REMARK   11  A    between atoms: C_26  and  O_36
REMARK   12  A    between atoms: C_28  and  O_35
REMARK   13  A    between atoms: C_30  and  C_33
REMARK   14  A    between atoms: C_33  and  O_34
REMARK                            x       y       z     vdW  Elec       q    Type
REMARK                         _______ _______ _______ _____ _____    ______ ____
ROOT
ATOM      1  C   UNL     1       2.133   1.166   1.277  0.00  0.00    +0.160 C 
ATOM      2  C   UNL     1       1.424   1.617  -0.003  0.00  0.00    +0.177 C 
ATOM      3  C   UNL     1      -0.013   1.086   0.008  0.00  0.00    +0.176 C 
ATOM      4  C   UNL     1      -0.722   1.581   1.271  0.00  0.00    +0.178 C 
ATOM      5  O   UNL     1       0.006   1.153   2.424  0.00  0.00    -0.341 OA
ATOM      6  C   UNL     1       1.341   1.658   2.491  0.00  0.00    +0.273 C 
ENDROOT
BRANCH   1  10
ATOM      7  C   UNL     1       3.265  -2.411   2.039  0.00  0.00    +0.109 C 
ATOM      8  C   UNL     1       3.183  -0.907   2.013  0.00  0.00    +0.210 C 
ATOM      9  O   UNL     1       3.990  -0.245   2.630  0.00  0.00    -0.276 OA
ATOM     10  N   UNL     1       2.213  -0.297   1.303  0.00  0.00    -0.305 N 
ATOM     11  H   UNL     1       1.567  -0.827   0.809  0.00  0.00    +0.149 HD
ENDBRANCH   1  10
BRANCH   6  12
ATOM     12  O   UNL     1       1.311   3.086   2.494  0.00  0.00    -0.353 OA
ATOM     13  C   UNL     1       0.793   3.655   3.698  0.00  0.00    +0.197 C 
ENDBRANCH   6  12
BRANCH   3  14
ATOM     14  O   UNL     1      -0.706   1.560  -1.148  0.00  0.00    -0.387 OA
ATOM     15  H   UNL     1      -1.625   1.263  -1.205  0.00  0.00    +0.210 HD
ENDBRANCH   3  14
BRANCH   4  16
ATOM     16  C   UNL     1      -2.139   1.005   1.319  0.00  0.00    +0.190 C 
BRANCH  16  17
ATOM     17  O   UNL     1      -2.840   1.558   2.435  0.00  0.00    -0.392 OA
ATOM     18  H   UNL     1      -3.747   1.237   2.528  0.00  0.00    +0.210 HD
ENDBRANCH  16  17
ENDBRANCH   4  16
BRANCH   2  19
ATOM     19  O   UNL     1       1.405   3.045  -0.063  0.00  0.00    -0.341 OA
BRANCH  19  20
ATOM     20  C   UNL     1       1.408   3.571  -1.391  0.00  0.00    +0.282 C 
ATOM     21  C   UNL     1       1.262   5.094  -1.338  0.00  0.00    +0.201 C 
ATOM     22  C   UNL     1       2.466   5.688  -0.600  0.00  0.00    +0.179 C 
ATOM     23  C   UNL     1       3.752   5.252  -1.309  0.00  0.00    +0.177 C 
ATOM     24  C   UNL     1       3.801   3.723  -1.364  0.00  0.00    +0.178 C 
ATOM     25  O   UNL     1       2.638   3.234  -2.035  0.00  0.00    -0.341 OA
BRANCH  23  26
ATOM     26  O   UNL     1       3.767   5.778  -2.637  0.00  0.00    -0.386 OA
ATOM     27  H   UNL     1       3.737   6.744  -2.678  0.00  0.00    +0.210 HD
ENDBRANCH  23  26
BRANCH  22  28
ATOM     28  O   UNL     1       2.376   7.114  -0.609  0.00  0.00    -0.386 OA
ATOM     29  H   UNL     1       1.584   7.461  -0.176  0.00  0.00    +0.210 HD
ENDBRANCH  22  28
BRANCH  21  30
ATOM     30  O   UNL     1       0.061   5.435  -0.643  0.00  0.00    -0.384 OA
ATOM     31  H   UNL     1      -0.743   5.086  -1.053  0.00  0.00    +0.210 HD
ENDBRANCH  21  30
BRANCH  24  32
ATOM     32  C   UNL     1       5.053   3.279  -2.123  0.00  0.00    +0.190 C 
BRANCH  32  33
ATOM     33  O   UNL     1       5.160   1.855  -2.076  0.00  0.00    -0.392 OA
ATOM     34  H   UNL     1       5.933   1.503  -2.538  0.00  0.00    +0.210 HD
ENDBRANCH  32  33
ENDBRANCH  24  32
ENDBRANCH  19  20
ENDBRANCH   2  19
TORSDOF 12
