REMARK  Name = ZINC21251686
REMARK  10 active torsions:
REMARK  status: ('A' for Active; 'I' for Inactive)
REMARK    1  A    between atoms: C_1  and  C_2
REMARK    2  A    between atoms: C_2  and  O_3
REMARK    3  A    between atoms: O_3  and  C_4
REMARK    4  A    between atoms: C_4  and  C_6
REMARK    5  A    between atoms: C_7  and  C_13
REMARK    6  A    between atoms: C_13  and  S_14
REMARK    7  A    between atoms: S_14  and  C_15
REMARK    8  A    between atoms: C_18  and  C_27
REMARK    9  A    between atoms: N_19  and  C_20
REMARK   10  A    between atoms: C_25  and  C_26
REMARK                            x       y       z     vdW  Elec       q    Type
REMARK                         _______ _______ _______ _____ _____    ______ ____
ROOT
ATOM      1  C   UNL     1      -3.402   0.167   1.069  0.00  0.00    +0.197 A 
ATOM      2  N   UNL     1      -4.558  -0.351   0.722  0.00  0.00    -0.122 NA
ATOM      3  N   UNL     1      -4.641  -0.431  -0.558  0.00  0.00    -0.128 NA
ATOM      4  C   UNL     1      -3.545   0.035  -1.111  0.00  0.00    +0.171 A 
ATOM      5  N   UNL     1      -2.712   0.428  -0.086  0.00  0.00    -0.270 N 
ENDROOT
BRANCH   4   6
ATOM      6  C   UNL     1      -3.259   0.119  -2.557  0.00  0.00    +0.045 A 
ATOM      7  C   UNL     1      -2.128   0.603  -3.133  0.00  0.00    +0.095 A 
ATOM      8  N   UNL     1      -2.229   0.514  -4.491  0.00  0.00    -0.360 N 
ATOM      9  H   UNL     1      -1.399   0.855  -5.128  0.00  0.00    +0.165 HD
ATOM     10  C   UNL     1      -3.446  -0.028  -4.844  0.00  0.00    +0.047 A 
ATOM     11  C   UNL     1      -4.145  -0.300  -3.655  0.00  0.00    +0.010 A 
ATOM     12  C   UNL     1      -5.421  -0.859  -3.709  0.00  0.00    +0.011 A 
ATOM     13  C   UNL     1      -5.991  -1.142  -4.930  0.00  0.00    +0.001 A 
ATOM     14  C   UNL     1      -5.301  -0.874  -6.104  0.00  0.00    +0.002 A 
ATOM     15  C   UNL     1      -4.040  -0.322  -6.067  0.00  0.00    +0.026 A 
ENDBRANCH   4   6
BRANCH   5  16
ATOM     16  C   UNL     1      -1.431   0.985  -0.201  0.00  0.00    +0.053 A 
ATOM     17  C   UNL     1      -0.314   0.160  -0.220  0.00  0.00    +0.026 A 
ATOM     18  C   UNL     1       0.947   0.711  -0.339  0.00  0.00    +0.002 A 
ATOM     19  C   UNL     1       1.098   2.082  -0.434  0.00  0.00    +0.000 A 
ATOM     20  C   UNL     1      -0.012   2.906  -0.409  0.00  0.00    +0.005 A 
ATOM     21  C   UNL     1      -1.276   2.361  -0.290  0.00  0.00    -0.026 A 
ATOM     22  C   UNL     1      -2.485   3.260  -0.262  0.00  0.00    +0.046 C 
ENDBRANCH   5  16
BRANCH   1  23
ATOM     23  S   UNL     1      -2.843   0.469   2.712  0.00  0.00    -0.080 S 
BRANCH  23  24
ATOM     24  C   UNL     1      -4.275  -0.125   3.646  0.00  0.00    +0.128 C 
BRANCH  24  26
ATOM     25  C   UNL     1      -4.625   1.039   5.795  0.00  0.00    +0.071 C 
ATOM     26  C   UNL     1      -4.016   0.039   5.121  0.00  0.00    +0.034 C 
ATOM     27  N   UNL     1      -3.175  -0.828   5.756  0.00  0.00    -0.272 N 
ATOM     28  C   UNL     1      -2.880  -0.756   7.061  0.00  0.00    +0.304 C 
ATOM     29  O   UNL     1      -2.114  -1.571   7.536  0.00  0.00    -0.253 OA
ATOM     30  N   UNL     1      -3.410   0.187   7.865  0.00  0.00    -0.295 N 
ATOM     31  C   UNL     1      -4.337   1.169   7.277  0.00  0.00    +0.150 C 
ATOM     32  H   UNL     1      -2.695  -1.642   5.193  0.00  0.00    +0.156 HD
ATOM     33  H   UNL     1      -3.166   0.234   8.936  0.00  0.00    +0.151 HD
BRANCH  25  34
ATOM     34  C   UNL     1      -5.503   1.934   5.139  0.00  0.00    +0.338 C 
ATOM     35  O   UNL     1      -5.112   3.040   4.813  0.00  0.00    -0.245 OA
BRANCH  34  36
ATOM     36  O   UNL     1      -6.773   1.563   4.876  0.00  0.00    -0.462 OA
BRANCH  36  38
ATOM     37  C   UNL     1      -8.996   1.921   3.999  0.00  0.00    +0.048 C 
ATOM     38  C   UNL     1      -7.603   2.517   4.211  0.00  0.00    +0.229 C 
ENDBRANCH  36  38
ENDBRANCH  34  36
ENDBRANCH  25  34
ENDBRANCH  24  26
ENDBRANCH  23  24
ENDBRANCH   1  23
TORSDOF 8
