REMARK  Name = ZINC40035500
REMARK  10 active torsions:
REMARK  status: ('A' for Active; 'I' for Inactive)
REMARK    1  A    between atoms: C_1  and  C_2
REMARK    2  A    between atoms: C_2  and  C_3
REMARK    3  A    between atoms: C_3  and  C_37
REMARK    4  A    between atoms: N_15  and  C_28
REMARK    5  A    between atoms: N_18  and  N_19
REMARK    6  A    between atoms: C_20  and  C_21
REMARK    7  A    between atoms: C_25  and  O_27
REMARK    8  A    between atoms: C_31  and  O_34
REMARK    9  A    between atoms: O_34  and  C_35
REMARK   10  A    between atoms: C_35  and  C_36
REMARK                            x       y       z     vdW  Elec       q    Type
REMARK                         _______ _______ _______ _____ _____    ______ ____
ROOT
ATOM      1  C   UNL     1      -0.127   0.030  -0.997  0.00  0.00    +0.004 C 
ATOM      2  C   UNL     1       0.151  -1.351  -0.410  0.00  0.00    +0.047 C 
ATOM      3  C   UNL     1      -0.876  -2.343  -0.883  0.00  0.00    -0.037 A 
ATOM      4  C   UNL     1      -1.314  -3.349  -0.047  0.00  0.00    +0.004 A 
ATOM      5  C   UNL     1      -2.256  -4.260  -0.492  0.00  0.00    +0.000 A 
ATOM      6  C   UNL     1      -2.765  -4.171  -1.775  0.00  0.00    +0.001 A 
ATOM      7  C   UNL     1      -2.336  -3.168  -2.622  0.00  0.00    +0.010 A 
ATOM      8  C   UNL     1      -1.391  -2.249  -2.177  0.00  0.00    +0.004 A 
ATOM      9  C   UNL     1      -0.919  -1.157  -3.059  0.00  0.00    +0.084 A 
ATOM     10  C   UNL     1      -0.301  -0.053  -2.487  0.00  0.00    +0.050 A 
ATOM     11  C   UNL     1       0.152   0.975  -3.323  0.00  0.00    +0.264 A 
ATOM     12  O   UNL     1       0.701   1.960  -2.857  0.00  0.00    -0.267 OA
ATOM     13  N   UNL     1      -0.032   0.854  -4.655  0.00  0.00    -0.248 N 
ATOM     14  C   UNL     1      -0.650  -0.249  -5.165  0.00  0.00    +0.223 A 
ATOM     15  N   UNL     1      -1.078  -1.220  -4.385  0.00  0.00    -0.214 NA
ATOM     16  N   UNL     1      -0.831  -0.350  -6.521  0.00  0.00    -0.206 N 
ATOM     17  C   UNL     1       1.047   0.958  -0.678  0.00  0.00    +0.016 C 
ATOM     18  H   UNL     1      -0.456   0.322  -7.111  0.00  0.00    +0.177 HD
ENDROOT
BRANCH  13  19
ATOM     19  C   UNL     1       0.415   1.865  -5.517  0.00  0.00    +0.053 A 
ATOM     20  C   UNL     1      -0.428   2.918  -5.847  0.00  0.00    +0.030 A 
ATOM     21  C   UNL     1       0.012   3.915  -6.695  0.00  0.00    +0.047 A 
ATOM     22  C   UNL     1       1.296   3.864  -7.218  0.00  0.00    +0.121 A 
ATOM     23  C   UNL     1       2.139   2.811  -6.889  0.00  0.00    +0.047 A 
ATOM     24  C   UNL     1       1.702   1.817  -6.036  0.00  0.00    +0.030 A 
BRANCH  22  25
ATOM     25  O   UNL     1       1.730   4.845  -8.053  0.00  0.00    -0.492 OA
BRANCH  25  26
ATOM     26  C   UNL     1       3.063   4.729  -8.554  0.00  0.00    +0.225 C 
ATOM     27  C   UNL     1       3.369   5.916  -9.470  0.00  0.00    +0.048 C 
ENDBRANCH  25  26
ENDBRANCH  22  25
ENDBRANCH  13  19
BRANCH   1  29
ATOM     28  C   UNL     1      -1.670   1.994  -0.935  0.00  0.00    +0.005 C 
ATOM     29  C   UNL     1      -1.402   0.598  -0.371  0.00  0.00    +0.008 C 
ENDBRANCH   1  29
BRANCH  16  30
ATOM     30  N   UNL     1      -1.559  -1.422  -7.053  0.00  0.00    -0.188 NA
ATOM     31  C   UNL     1      -1.731  -1.517  -8.336  0.00  0.00    +0.138 C 
BRANCH  31  32
ATOM     32  C   UNL     1      -2.497  -2.646  -8.896  0.00  0.00    -0.002 A 
ATOM     33  C   UNL     1      -3.044  -3.612  -8.047  0.00  0.00    +0.010 A 
ATOM     34  C   UNL     1      -3.760  -4.666  -8.575  0.00  0.00    +0.004 A 
ATOM     35  C   UNL     1      -3.938  -4.772  -9.942  0.00  0.00    +0.045 A 
ATOM     36  C   UNL     1      -3.398  -3.817 -10.794  0.00  0.00    +0.117 A 
ATOM     37  C   UNL     1      -2.683  -2.751 -10.275  0.00  0.00    +0.054 A 
BRANCH  36  38
ATOM     38  O   UNL     1      -3.576  -3.927 -12.136  0.00  0.00    -0.507 OA
ATOM     39  H   UNL     1      -4.371  -3.485 -12.465  0.00  0.00    +0.292 HD
ENDBRANCH  36  38
ENDBRANCH  31  32
ENDBRANCH  16  30
TORSDOF 7
