REMARK  Name = ZINC64492085
REMARK  5 active torsions:
REMARK  status: ('A' for Active; 'I' for Inactive)
REMARK    1  A    between atoms: N_7  and  C_10
REMARK    2  A    between atoms: C_13  and  C_16
REMARK    3  A    between atoms: N_18  and  C_19
REMARK    4  A    between atoms: C_19  and  C_20
REMARK    5  A    between atoms: C_20  and  C_21
REMARK                            x       y       z     vdW  Elec       q    Type
REMARK                         _______ _______ _______ _____ _____    ______ ____
ROOT
ATOM      1  C   UNL     1       4.018  -1.847  -0.046  0.00  0.00    +0.053 A 
ATOM      2  C   UNL     1       3.062  -2.854   0.057  0.00  0.00    +0.026 A 
ATOM      3  C   UNL     1       3.448  -4.175   0.046  0.00  0.00    +0.015 A 
ATOM      4  C   UNL     1       4.802  -4.505  -0.069  0.00  0.00    +0.037 A 
ATOM      5  C   UNL     1       5.759  -3.491  -0.172  0.00  0.00    +0.015 A 
ATOM      6  C   UNL     1       5.366  -2.172  -0.166  0.00  0.00    +0.026 A 
ENDROOT
BRANCH   1  13
ATOM      7  C   UNL     1       0.689   1.600  -1.971  0.00  0.00    +0.019 A 
ATOM      8  C   UNL     1       1.569   2.195  -1.074  0.00  0.00    +0.029 A 
ATOM      9  C   UNL     1       2.527   1.398  -0.470  0.00  0.00    +0.082 A 
ATOM     10  C   UNL     1       2.579   0.035  -0.777  0.00  0.00    +0.141 A 
ATOM     11  N   UNL     1       1.721  -0.488  -1.637  0.00  0.00    -0.347 N 
ATOM     12  C   UNL     1       0.797   0.249  -2.228  0.00  0.00    +0.084 A 
ATOM     13  N   UNL     1       3.624  -0.513  -0.035  0.00  0.00    -0.203 N 
ATOM     14  N   UNL     1       4.196   0.482   0.704  0.00  0.00    -0.155 NA
ATOM     15  N   UNL     1       3.543   1.655   0.455  0.00  0.00    -0.261 N 
ATOM     16  H   UNL     1       4.175   0.259   1.688  0.00  0.00    +0.168 HD
ATOM     17  H   UNL     1       3.749   2.517   0.850  0.00  0.00    +0.168 HD
ATOM     18  H   UNL     1       1.771  -1.435  -1.839  0.00  0.00    +0.167 HD
ENDBRANCH   1  13
BRANCH   4  19
ATOM     19  C   UNL     1       5.219  -5.920  -0.081  0.00  0.00    +0.244 C 
ATOM     20  O   UNL     1       4.386  -6.800   0.010  0.00  0.00    -0.270 OA
ATOM     21  N   UNL     1       6.525  -6.236  -0.191  0.00  0.00    -0.311 N 
ATOM     22  H   UNL     1       7.190  -5.534  -0.263  0.00  0.00    +0.149 HD
BRANCH  21  23
ATOM     23  C   UNL     1       6.939  -7.641  -0.203  0.00  0.00    +0.109 C 
BRANCH  23  24
ATOM     24  C   UNL     1       8.461  -7.723  -0.337  0.00  0.00    +0.052 C 
BRANCH  24  25
ATOM     25  C   UNL     1       8.888  -9.168  -0.349  0.00  0.00    -0.040 C 
ATOM     26  C   UNL     1       9.117  -9.939  -1.436  0.00  0.00    +0.000 A 
ATOM     27  C   UNL     1       9.041  -9.674  -2.877  0.00  0.00    +0.030 A 
ATOM     28  C   UNL     1       9.336 -10.669  -3.745  0.00  0.00    +0.042 A 
ATOM     29  C   UNL     1       9.711 -11.946  -3.301  0.00  0.00    +0.022 A 
ATOM     30  C   UNL     1       9.803 -12.266  -1.994  0.00  0.00    +0.027 A 
ATOM     31  C   UNL     1       9.516 -11.295  -0.994  0.00  0.00    +0.043 A 
ATOM     32  N   UNL     1       9.533 -11.359   0.315  0.00  0.00    -0.380 N 
ATOM     33  C   UNL     1       9.152 -10.048   0.852  0.00  0.00    +0.144 C 
ATOM     34 CL   UNL     1       9.246 -10.359  -5.451  0.00  0.00    -0.084 Cl
ATOM     35  H   UNL     1       9.762 -12.141   0.841  0.00  0.00    +0.160 HD
ENDBRANCH  24  25
ENDBRANCH  23  24
ENDBRANCH  21  23
ENDBRANCH   4  19
TORSDOF 5
