REMARK  Name = ZINC02210453
REMARK  5 active torsions:
REMARK  status: ('A' for Active; 'I' for Inactive)
REMARK    1  A    between atoms: C_4  and  C_7
REMARK    2  A    between atoms: N_8  and  N_9
REMARK    3  A    between atoms: C_10  and  N_33
REMARK    4  A    between atoms: C_11  and  S_22
REMARK    5  A    between atoms: S_22  and  C_25
REMARK                            x       y       z     vdW  Elec       q    Type
REMARK                         _______ _______ _______ _____ _____    ______ ____
ROOT
ATOM      1  N   UNL     1       4.157   3.861   3.654  0.00  0.00    -0.197 N 
ATOM      2  C   UNL     1       3.372   4.411   2.668  0.00  0.00    +0.148 A 
ATOM      3  C   UNL     1       3.498   3.716   1.513  0.00  0.00    +0.162 A 
ATOM      4  C   UNL     1       4.415   2.659   1.734  0.00  0.00    +0.137 A 
ATOM      5  C   UNL     1       4.832   2.773   3.137  0.00  0.00    +0.184 A 
ATOM      6  N   UNL     1       5.693   1.913   3.632  0.00  0.00    -0.224 NA
ATOM      7  C   UNL     1       6.184   0.939   2.855  0.00  0.00    +0.092 A 
ATOM      8  C   UNL     1       7.106   0.013   3.378  0.00  0.00    +0.030 A 
ATOM      9  C   UNL     1       7.601  -0.973   2.582  0.00  0.00    +0.002 A 
ATOM     10  C   UNL     1       7.207  -1.083   1.249  0.00  0.00    +0.002 A 
ATOM     11  C   UNL     1       6.318  -0.208   0.708  0.00  0.00    +0.030 A 
ATOM     12  C   UNL     1       5.784   0.827   1.500  0.00  0.00    +0.090 A 
ATOM     13  N   UNL     1       4.908   1.692   0.978  0.00  0.00    -0.240 NA
ENDROOT
BRANCH   3  14
ATOM     14  S   UNL     1       2.671   4.069  -0.002  0.00  0.00    +0.032 S 
ATOM     15  O   UNL     1       3.468   3.513  -1.039  0.00  0.00    -0.164 OA
ATOM     16  O   UNL     1       2.324   5.446   0.036  0.00  0.00    -0.164 OA
BRANCH  14  17
ATOM     17  C   UNL     1       1.157   3.167   0.008  0.00  0.00    +0.113 A 
ATOM     18  C   UNL     1      -0.049   3.842   0.023  0.00  0.00    +0.048 A 
ATOM     19  C   UNL     1      -1.237   3.134   0.031  0.00  0.00    +0.043 A 
ATOM     20  C   UNL     1      -1.218   1.750   0.017  0.00  0.00    +0.021 A 
ATOM     21  C   UNL     1      -0.013   1.076   0.008  0.00  0.00    +0.023 A 
ATOM     22  C   UNL     1       1.176   1.784   0.000  0.00  0.00    +0.066 A 
ATOM     23 CL   UNL     1       2.691   0.936  -0.018  0.00  0.00    -0.082 Cl
ATOM     24 CL   UNL     1      -2.752   3.981   0.050  0.00  0.00    -0.083 Cl
ENDBRANCH  14  17
ENDBRANCH   3  14
BRANCH   2  25
ATOM     25  N   UNL     1       2.561   5.521   2.834  0.00  0.00    -0.341 N 
ATOM     26  H   UNL     1       2.032   5.851   2.091  0.00  0.00    +0.144 HD
ATOM     27  H   UNL     1       2.522   5.968   3.694  0.00  0.00    +0.144 HD
ENDBRANCH   2  25
BRANCH   1  29
ATOM     28  C   UNL     1       5.153   5.222   5.273  0.00  0.00    +0.141 C 
ATOM     29  N   UNL     1       4.258   4.332   4.970  0.00  0.00    -0.171 NA
BRANCH  28  33
ATOM     30  C   UNL     1       5.461   6.648   9.258  0.00  0.00    +0.000 A 
ATOM     31  C   UNL     1       6.316   7.134   8.285  0.00  0.00    +0.001 A 
ATOM     32  C   UNL     1       6.221   6.675   6.988  0.00  0.00    +0.009 A 
ATOM     33  C   UNL     1       5.260   5.717   6.658  0.00  0.00    -0.005 A 
ATOM     34  C   UNL     1       4.396   5.236   7.644  0.00  0.00    +0.009 A 
ATOM     35  C   UNL     1       4.506   5.699   8.939  0.00  0.00    +0.001 A 
ENDBRANCH  28  33
ENDBRANCH   1  29
TORSDOF 5
