REMARK  Name = ZINC20132091
REMARK  5 active torsions:
REMARK  status: ('A' for Active; 'I' for Inactive)
REMARK    1  A    between atoms: C_9  and  C_17
REMARK    2  A    between atoms: C_11  and  C_15
REMARK    3  A    between atoms: C_12  and  N_14
REMARK    4  A    between atoms: N_26  and  C_27
REMARK    5  A    between atoms: C_27  and  C_28
REMARK                            x       y       z     vdW  Elec       q    Type
REMARK                         _______ _______ _______ _____ _____    ______ ____
ROOT
ATOM      1  C   UNL     1      -5.354  -2.344   1.598  0.00  0.00    +0.001 A 
ATOM      2  C   UNL     1      -5.301  -3.535   2.302  0.00  0.00    +0.002 A 
ATOM      3  C   UNL     1      -4.098  -4.196   2.452  0.00  0.00    +0.025 A 
ATOM      4  C   UNL     1      -2.938  -3.669   1.897  0.00  0.00    +0.062 A 
ATOM      5  C   UNL     1      -2.982  -2.466   1.193  0.00  0.00    +0.042 A 
ATOM      6  C   UNL     1      -4.210  -1.809   1.047  0.00  0.00    +0.013 A 
ATOM      7  C   UNL     1      -1.785  -1.837   0.585  0.00  0.00    +0.162 C 
ATOM      8  C   UNL     1      -0.669  -2.526   0.367  0.00  0.00    +0.141 C 
ATOM      9  C   UNL     1       0.545  -1.893  -0.254  0.00  0.00    +0.119 C 
ATOM     10  C   UNL     1       0.452  -0.394  -0.162  0.00  0.00    +0.099 C 
ATOM     11  C   UNL     1      -0.741   0.202   0.086  0.00  0.00    +0.199 C 
ATOM     12  O   UNL     1      -1.859  -0.521   0.255  0.00  0.00    -0.439 OA
ATOM     13  S   UNL     1      -0.618  -4.235   0.825  0.00  0.00    +0.076 S 
ATOM     14  O   UNL     1      -1.115  -4.976  -0.281  0.00  0.00    -0.150 OA
ATOM     15  O   UNL     1       0.659  -4.473   1.401  0.00  0.00    -0.150 OA
ATOM     16  N   UNL     1      -1.739  -4.376   2.049  0.00  0.00    -0.198 N 
ENDROOT
BRANCH   9  17
ATOM     17  C   UNL     1       0.634  -2.300  -1.702  0.00  0.00    -0.015 A 
ATOM     18  C   UNL     1       1.738  -2.998  -2.169  0.00  0.00    +0.007 A 
ATOM     19  C   UNL     1       1.775  -3.355  -3.507  0.00  0.00    +0.020 A 
ATOM     20  C   UNL     1       0.723  -2.998  -4.330  0.00  0.00    +0.111 A 
ATOM     21  N   UNL     1      -0.308  -2.329  -3.853  0.00  0.00    -0.263 NA
ATOM     22  C   UNL     1      -0.380  -1.976  -2.584  0.00  0.00    +0.115 A 
ENDBRANCH   9  17
BRANCH  11  23
ATOM     23  N   UNL     1      -0.805   1.571   0.170  0.00  0.00    -0.328 N 
ATOM     24  H   UNL     1      -1.767   2.065   0.370  0.00  0.00    +0.145 HD
ATOM     25  H   UNL     1       0.105   2.173   0.038  0.00  0.00    +0.145 HD
ENDBRANCH  11  23
BRANCH  10  26
ATOM     26  C   UNL     1       1.628   0.405  -0.335  0.00  0.00    +0.101 C 
ATOM     27  N   UNL     1       2.560   1.040  -0.473  0.00  0.00    -0.191 NA
ENDBRANCH  10  26
BRANCH  16  28
ATOM     28  C   UNL     1      -1.482  -5.203   3.231  0.00  0.00    +0.166 C 
BRANCH  28  29
ATOM     29  C   UNL     1      -0.968  -4.334   4.349  0.00  0.00    -0.028 A 
ATOM     30  C   UNL     1       0.393  -4.213   4.561  0.00  0.00    +0.006 A 
ATOM     31  C   UNL     1       0.866  -3.412   5.584  0.00  0.00    +0.020 A 
ATOM     32  C   UNL     1      -0.024  -2.739   6.402  0.00  0.00    +0.041 A 
ATOM     33  C   UNL     1      -1.386  -2.864   6.193  0.00  0.00    +0.020 A 
ATOM     34  C   UNL     1      -1.857  -3.661   5.167  0.00  0.00    +0.006 A 
ATOM     35 CL   UNL     1       0.568  -1.738   7.690  0.00  0.00    -0.084 Cl
ENDBRANCH  28  29
ENDBRANCH  16  28
TORSDOF 5
