REMARK  Name = ZINC13594842
REMARK  9 active torsions:
REMARK  status: ('A' for Active; 'I' for Inactive)
REMARK    1  A    between atoms: C_4  and  C_7
REMARK    2  A    between atoms: C_7  and  C_8
REMARK    3  A    between atoms: C_7  and  C_28
REMARK    4  A    between atoms: C_8  and  N_61
REMARK    5  A    between atoms: C_14  and  C_16
REMARK    6  A    between atoms: C_16  and  C_17
REMARK    7  A    between atoms: N_19  and  C_20
REMARK    8  A    between atoms: C_20  and  C_21
REMARK    9  A    between atoms: C_21  and  C_22
REMARK                            x       y       z     vdW  Elec       q    Type
REMARK                         _______ _______ _______ _____ _____    ______ ____
ROOT
ATOM      1  C   UNL     1      -2.416  -6.676  -2.536  0.00  0.00    -0.059 C 
ATOM      2  C   UNL     1      -3.570  -7.157  -3.418  0.00  0.00    +0.085 C 
ATOM      3  N   UNL     1      -4.842  -6.958  -2.730  0.00  0.00    -0.318 N 
ATOM      4  C   UNL     1      -4.984  -6.129  -1.692  0.00  0.00    +0.200 C 
ATOM      5  O   UNL     1      -6.085  -6.000  -1.200  0.00  0.00    -0.278 OA
ATOM      6  C   UNL     1      -3.838  -5.353  -1.107  0.00  0.00    +0.028 C 
ATOM      7  H   UNL     1      -5.619  -7.448  -3.042  0.00  0.00    +0.149 HD
ATOM      8  N   UNL     1      -2.729  -5.308  -2.078  0.00  0.00    +0.389 N 
ATOM      9  H   UNL     1      -3.013  -4.741  -2.886  0.00  0.00    -0.081 HD
ENDROOT
BRANCH   8  10
ATOM     10  C   UNL     1      -1.534  -4.694  -1.455  0.00  0.00    -0.065 C 
BRANCH  10  11
ATOM     11  C   UNL     1      -0.475  -4.462  -2.534  0.00  0.00    +0.032 C 
BRANCH  11  15
ATOM     12  C   UNL     1      -1.929  -1.615  -5.368  0.00  0.00    +0.000 A 
ATOM     13  C   UNL     1      -1.883  -1.292  -4.025  0.00  0.00    +0.000 A 
ATOM     14  C   UNL     1      -1.413  -2.213  -3.108  0.00  0.00    +0.004 A 
ATOM     15  C   UNL     1      -0.988  -3.458  -3.534  0.00  0.00    -0.042 A 
ATOM     16  C   UNL     1      -1.029  -3.779  -4.878  0.00  0.00    +0.004 A 
ATOM     17  C   UNL     1      -1.505  -2.860  -5.794  0.00  0.00    +0.000 A 
ENDBRANCH  11  15
BRANCH  11  18
ATOM     18  C   UNL     1       0.785  -3.937  -1.897  0.00  0.00    -0.042 A 
ATOM     19  C   UNL     1       0.730  -2.838  -1.060  0.00  0.00    +0.004 A 
ATOM     20  C   UNL     1       1.885  -2.359  -0.470  0.00  0.00    +0.000 A 
ATOM     21  C   UNL     1       3.098  -2.972  -0.727  0.00  0.00    +0.000 A 
ATOM     22  C   UNL     1       3.153  -4.068  -1.569  0.00  0.00    +0.000 A 
ATOM     23  C   UNL     1       1.997  -4.550  -2.153  0.00  0.00    +0.004 A 
ENDBRANCH  11  18
ENDBRANCH  10  11
ENDBRANCH   8  10
BRANCH   6  24
ATOM     24  C   UNL     1      -4.294  -3.924  -0.805  0.00  0.00    +0.089 C 
BRANCH  24  25
ATOM     25  C   UNL     1      -4.828  -3.291  -2.065  0.00  0.00    +0.212 C 
ATOM     26  O   UNL     1      -4.762  -3.888  -3.118  0.00  0.00    -0.276 OA
ATOM     27  N   UNL     1      -5.378  -2.062  -2.020  0.00  0.00    -0.315 N 
ATOM     28  H   UNL     1      -5.431  -1.584  -1.177  0.00  0.00    +0.149 HD
BRANCH  27  29
ATOM     29  C   UNL     1      -5.897  -1.447  -3.244  0.00  0.00    +0.109 C 
BRANCH  29  30
ATOM     30  C   UNL     1      -6.464  -0.063  -2.919  0.00  0.00    +0.057 C 
BRANCH  30  31
ATOM     31  C   UNL     1      -6.997   0.570  -4.178  0.00  0.00    -0.009 A 
ATOM     32  C   UNL     1      -6.300   1.355  -5.032  0.00  0.00    +0.108 A 
ATOM     33  N   UNL     1      -7.133   1.716  -6.031  0.00  0.00    -0.284 N 
ATOM     34  H   UNL     1      -6.897   2.292  -6.814  0.00  0.00    +0.188 HD
ATOM     35  N   UNL     1      -8.385   1.141  -5.778  0.00  0.00    -0.182 NA
ATOM     36  C   UNL     1      -8.303   0.455  -4.668  0.00  0.00    +0.137 A 
ENDBRANCH  30  31
ENDBRANCH  29  30
ENDBRANCH  27  29
ENDBRANCH  24  25
ENDBRANCH   6  24
TORSDOF 9
