REMARK  Name = ZINC40092284
REMARK  10 active torsions:
REMARK  status: ('A' for Active; 'I' for Inactive)
REMARK    1  A    between atoms: C_1  and  C_2
REMARK    2  A    between atoms: C_4  and  C_12
REMARK    3  A    between atoms: C_7  and  O_8
REMARK    4  A    between atoms: O_8  and  C_9
REMARK    5  A    between atoms: C_9  and  C_10
REMARK    6  A    between atoms: C_12  and  C_14
REMARK    7  A    between atoms: N_18  and  C_28
REMARK    8  A    between atoms: C_19  and  C_21
REMARK    9  A    between atoms: C_28  and  C_29
REMARK   10  A    between atoms: C_29  and  O_30
REMARK                            x       y       z     vdW  Elec       q    Type
REMARK                         _______ _______ _______ _____ _____    ______ ____
ROOT
ATOM      1  C   UNL     1      -0.106  -4.480  -2.739  0.00  0.00    +0.076 C 
ATOM      2  C   UNL     1      -0.008  -5.374  -3.751  0.00  0.00    +0.249 C 
ATOM      3  C   UNL     1       0.119  -6.734  -3.186  0.00  0.00    +0.288 C 
ATOM      4  O   UNL     1       0.225  -7.753  -3.839  0.00  0.00    -0.266 OA
ATOM      5  N   UNL     1       0.099  -6.677  -1.842  0.00  0.00    -0.281 N 
ATOM      6  C   UNL     1      -0.036  -5.269  -1.452  0.00  0.00    +0.146 C 
ATOM      7  O   UNL     1      -0.024  -5.071  -5.069  0.00  0.00    -0.282 OA
ENDROOT
BRANCH   6   8
ATOM      8  C   UNL     1      -1.301  -5.074  -0.656  0.00  0.00    -0.008 A 
ATOM      9  C   UNL     1      -2.353  -5.959  -0.802  0.00  0.00    +0.007 A 
ATOM     10  C   UNL     1      -3.512  -5.780  -0.071  0.00  0.00    +0.000 A 
ATOM     11  C   UNL     1      -3.620  -4.717   0.807  0.00  0.00    +0.001 A 
ATOM     12  C   UNL     1      -2.569  -3.833   0.953  0.00  0.00    +0.015 A 
ATOM     13  C   UNL     1      -1.406  -4.014   0.226  0.00  0.00    +0.023 A 
ATOM     14 BR   UNL     1       0.035  -2.807   0.431  0.00  0.00    -0.050 Br
ENDBRANCH   6   8
BRANCH   1  15
ATOM     15  C   UNL     1      -0.247  -3.026  -2.867  0.00  0.00    +0.195 C 
ATOM     16  O   UNL     1      -1.329  -2.501  -2.684  0.00  0.00    -0.287 OA
BRANCH  15  20
ATOM     17  C   UNL     1       1.700   1.412  -4.042  0.00  0.00    +0.047 C 
ATOM     18  C   UNL     1       1.865  -0.063  -3.785  0.00  0.00    -0.008 A 
ATOM     19  C   UNL     1       0.770  -0.831  -3.458  0.00  0.00    +0.018 A 
ATOM     20  C   UNL     1       0.924  -2.200  -3.219  0.00  0.00    +0.023 A 
ATOM     21  C   UNL     1       2.191  -2.784  -3.315  0.00  0.00    +0.015 A 
ATOM     22  C   UNL     1       3.281  -2.009  -3.643  0.00  0.00    +0.046 A 
ATOM     23  C   UNL     1       3.122  -0.649  -3.884  0.00  0.00    +0.124 A 
BRANCH  23  24
ATOM     24  O   UNL     1       4.198   0.110  -4.213  0.00  0.00    -0.488 OA
BRANCH  24  25
ATOM     25  C   UNL     1       5.459  -0.555  -4.298  0.00  0.00    +0.256 C 
BRANCH  25  26
ATOM     26  C   UNL     1       6.528   0.440  -4.670  0.00  0.00    +0.006 C 
ATOM     27  C   UNL     1       7.674   0.439  -4.036  0.00  0.00    +0.007 C 
ENDBRANCH  25  26
ENDBRANCH  24  25
ENDBRANCH  23  24
ENDBRANCH  15  20
ENDBRANCH   1  15
BRANCH   5  28
ATOM     28  C   UNL     1       0.200  -7.819  -0.929  0.00  0.00    +0.137 C 
BRANCH  28  29
ATOM     29  C   UNL     1       1.671  -8.076  -0.596  0.00  0.00    +0.175 C 
BRANCH  29  30
ATOM     30  O   UNL     1       2.197  -6.963   0.131  0.00  0.00    -0.393 OA
ATOM     31  H   UNL     1       3.127  -7.058   0.376  0.00  0.00    +0.209 HD
ENDBRANCH  29  30
ENDBRANCH  28  29
ENDBRANCH   5  28
TORSDOF 9
