REMARK  Name = ZINC42007722
REMARK  7 active torsions:
REMARK  status: ('A' for Active; 'I' for Inactive)
REMARK    1  A    between atoms: C_1  and  C_2
REMARK    2  A    between atoms: C_2  and  C_3
REMARK    3  A    between atoms: C_3  and  C_4
REMARK    4  A    between atoms: C_3  and  C_5
REMARK    5  A    between atoms: C_3  and  S_8
REMARK    6  A    between atoms: S_8  and  C_9
REMARK    7  A    between atoms: C_14  and  N_15
REMARK                            x       y       z     vdW  Elec       q    Type
REMARK                         _______ _______ _______ _____ _____    ______ ____
ROOT
ATOM      1  C   UNL     1      -0.837  -1.028   2.863  0.00  0.00    +0.030 A 
ATOM      2  C   UNL     1       0.184  -1.705   2.213  0.00  0.00    +0.019 A 
ATOM      3  C   UNL     1       1.189  -2.309   2.946  0.00  0.00    +0.039 A 
ATOM      4  C   UNL     1       1.179  -2.241   4.329  0.00  0.00    +0.125 A 
ATOM      5  C   UNL     1       0.163  -1.567   4.984  0.00  0.00    +0.062 A 
ATOM      6  C   UNL     1      -0.845  -0.954   4.256  0.00  0.00    +0.041 A 
ATOM      7  F   UNL     1       2.164  -2.833   5.040  0.00  0.00    -0.205 F 
ENDROOT
BRANCH   6   8
ATOM      8  N   UNL     1      -1.871  -0.268   4.916  0.00  0.00    -0.357 N 
ATOM      9  H   UNL     1      -2.577   0.157   4.405  0.00  0.00    +0.142 HD
ATOM     10  H   UNL     1      -1.875  -0.217   5.885  0.00  0.00    +0.142 HD
ENDBRANCH   6   8
BRANCH   1  11
ATOM     11  S   UNL     1      -2.118  -0.257   1.930  0.00  0.00    -0.105 S 
BRANCH  11  12
ATOM     12  C   UNL     1      -1.587  -0.455   0.207  0.00  0.00    +0.119 C 
ATOM     13  C   UNL     1      -2.612   0.199  -0.721  0.00  0.00    +0.035 C 
BRANCH  12  14
ATOM     14  C   UNL     1      -1.476  -1.922  -0.119  0.00  0.00    +0.372 C 
ATOM     15  O   UNL     1      -1.732  -2.757   0.731  0.00  0.00    -0.245 OA
ATOM     16  O   UNL     1      -1.130  -2.274  -1.234  0.00  0.00    -0.245 OA
ENDBRANCH  12  14
BRANCH  12  18
ATOM     17  C   UNL     1      -0.365   1.725   0.215  0.00  0.00    +0.006 C 
ATOM     18  C   UNL     1      -0.225   0.215   0.014  0.00  0.00    +0.026 C 
ENDBRANCH  12  18
ENDBRANCH  11  12
ENDBRANCH   1  11
TORSDOF 5
