REMARK  Name = ZINC38649754
REMARK  16 active torsions:
REMARK  status: ('A' for Active; 'I' for Inactive)
REMARK    1  A    between atoms: C_1  and  C_2
REMARK    2  A    between atoms: C_2  and  C_3
REMARK    3  A    between atoms: C_2  and  C_4
REMARK    4  A    between atoms: C_2  and  C_5
REMARK    5  A    between atoms: C_8  and  C_11
REMARK    6  A    between atoms: C_16  and  O_25
REMARK    7  A    between atoms: C_20  and  N_24
REMARK    8  A    between atoms: C_21  and  C_22
REMARK    9  A    between atoms: O_25  and  C_26
REMARK   10  A    between atoms: C_26  and  C_28
REMARK   11  A    between atoms: C_30  and  O_38
REMARK   12  A    between atoms: C_31  and  O_36
REMARK   13  A    between atoms: C_32  and  O_34
REMARK   14  A    between atoms: O_34  and  C_35
REMARK   15  A    between atoms: O_36  and  C_37
REMARK   16  A    between atoms: O_38  and  C_39
REMARK                            x       y       z     vdW  Elec       q    Type
REMARK                         _______ _______ _______ _____ _____    ______ ____
ROOT
ATOM      1  C   UNL     1       2.669  -1.903  -4.712  0.00  0.00    +0.098 C 
ATOM      2  C   UNL     1       3.869  -2.727  -4.325  0.00  0.00    +0.008 A 
ATOM      3  C   UNL     1       3.683  -3.990  -3.791  0.00  0.00    +0.012 A 
ATOM      4  C   UNL     1       4.772  -4.760  -3.431  0.00  0.00    +0.047 A 
ATOM      5  C   UNL     1       6.058  -4.267  -3.606  0.00  0.00    +0.135 A 
ATOM      6  C   UNL     1       6.247  -3.003  -4.141  0.00  0.00    +0.093 A 
ATOM      7  C   UNL     1       5.151  -2.231  -4.502  0.00  0.00    +0.138 A 
ATOM      8  O   UNL     1       5.352  -0.996  -5.025  0.00  0.00    -0.441 OA
ATOM      9  C   UNL     1       4.375  -0.397  -5.726  0.00  0.00    +0.199 C 
ATOM     10  C   UNL     1       3.084  -0.780  -5.620  0.00  0.00    +0.098 C 
ENDROOT
BRANCH   1  14
ATOM     11  C   UNL     1       0.873  -0.284  -1.190  0.00  0.00    -0.042 A 
ATOM     12  C   UNL     1       0.146  -1.123  -2.013  0.00  0.00    +0.004 A 
ATOM     13  C   UNL     1       0.727  -1.647  -3.153  0.00  0.00    +0.005 A 
ATOM     14  C   UNL     1       2.035  -1.331  -3.469  0.00  0.00    -0.035 A 
ATOM     15  C   UNL     1       2.762  -0.492  -2.646  0.00  0.00    +0.005 A 
ATOM     16  C   UNL     1       2.180   0.035  -1.509  0.00  0.00    +0.004 A 
BRANCH  11  18
ATOM     17  C   UNL     1       0.237   1.814  -0.032  0.00  0.00    +0.015 C 
ATOM     18  C   UNL     1       0.240   0.286   0.053  0.00  0.00    -0.013 C 
ATOM     19  C   UNL     1       1.039  -0.154   1.281  0.00  0.00    +0.015 C 
ATOM     20  C   UNL     1      -1.199  -0.221   0.171  0.00  0.00    +0.015 C 
ENDBRANCH  11  18
ENDBRANCH   1  14
BRANCH   9  21
ATOM     21  N   UNL     1       4.698   0.634  -6.572  0.00  0.00    -0.328 N 
ATOM     22  H   UNL     1       5.621   0.920  -6.658  0.00  0.00    +0.145 HD
ATOM     23  H   UNL     1       4.003   1.076  -7.085  0.00  0.00    +0.145 HD
ENDBRANCH   9  21
BRANCH  10  24
ATOM     24  C   UNL     1       2.090  -0.101  -6.395  0.00  0.00    +0.101 C 
ATOM     25  N   UNL     1       1.302   0.439  -7.010  0.00  0.00    -0.191 NA
ENDBRANCH  10  24
BRANCH   5  26
ATOM     26  O   UNL     1       7.130  -5.024  -3.252  0.00  0.00    -0.422 OA
BRANCH  26  27
ATOM     27  C   UNL     1       7.399  -6.122  -3.986  0.00  0.00    +0.345 C 
ATOM     28  O   UNL     1       6.758  -6.352  -4.992  0.00  0.00    -0.245 OA
BRANCH  27  29
ATOM     29  C   UNL     1       8.473  -7.043  -3.568  0.00  0.00    +0.067 A 
ATOM     30  C   UNL     1       9.207  -6.782  -2.408  0.00  0.00    +0.064 A 
ATOM     31  C   UNL     1      10.212  -7.647  -2.018  0.00  0.00    +0.166 A 
ATOM     32  C   UNL     1      10.493  -8.778  -2.781  0.00  0.00    +0.204 A 
ATOM     33  C   UNL     1       9.762  -9.040  -3.937  0.00  0.00    +0.166 A 
ATOM     34  C   UNL     1       8.753  -8.181  -4.328  0.00  0.00    +0.064 A 
BRANCH  33  35
ATOM     35  O   UNL     1      10.040 -10.146  -4.679  0.00  0.00    -0.491 OA
ATOM     36  C   UNL     1       9.252 -10.354  -5.853  0.00  0.00    +0.277 C 
ENDBRANCH  33  35
BRANCH  32  37
ATOM     37  O   UNL     1      11.482  -9.627  -2.396  0.00  0.00    -0.488 OA
ATOM     38  C   UNL     1      11.113 -10.701  -1.528  0.00  0.00    +0.277 C 
ENDBRANCH  32  37
BRANCH  31  39
ATOM     39  O   UNL     1      10.927  -7.393  -0.890  0.00  0.00    -0.491 OA
ATOM     40  C   UNL     1      10.586  -6.215  -0.157  0.00  0.00    +0.277 C 
ENDBRANCH  31  39
ENDBRANCH  27  29
ENDBRANCH  26  27
ENDBRANCH   5  26
TORSDOF 10
