REMARK  Name = ZINC05552689
REMARK  4 active torsions:
REMARK  status: ('A' for Active; 'I' for Inactive)
REMARK    1  A    between atoms: C_1  and  C_2
REMARK    2  A    between atoms: C_6  and  C_8
REMARK    3  A    between atoms: N_10  and  N_11
REMARK    4  A    between atoms: C_15  and  C_16
REMARK                            x       y       z     vdW  Elec       q    Type
REMARK                         _______ _______ _______ _____ _____    ______ ____
ROOT
ATOM      1  N   UNL     1      -5.373   4.500  -0.204  0.00  0.00    -0.169 N 
ATOM      2  C   UNL     1      -4.055   4.569  -0.130  0.00  0.00    +0.275 C 
ATOM      3  O   UNL     1      -3.482   5.644  -0.145  0.00  0.00    -0.267 OA
ATOM      4  C   UNL     1      -3.324   3.347  -0.037  0.00  0.00    +0.079 C 
ATOM      5  C   UNL     1      -1.980   3.146   0.047  0.00  0.00    +0.030 C 
ATOM      6  S   UNL     1      -4.653   2.152  -0.051  0.00  0.00    -0.059 S 
ATOM      7  C   UNL     1      -6.009   3.308  -0.181  0.00  0.00    +0.138 C 
ATOM      8  S   UNL     1      -7.689   2.986  -0.257  0.00  0.00    -0.026 S 
ENDROOT
BRANCH   5   9
ATOM      9  C   UNL     1      -1.450   1.789   0.180  0.00  0.00    +0.001 A 
ATOM     10  C   UNL     1      -2.121   0.621  -0.052  0.00  0.00    +0.091 A 
ATOM     11  N   UNL     1      -1.298  -0.433   0.179  0.00  0.00    -0.360 N 
ATOM     12  H   UNL     1      -1.552  -1.365   0.084  0.00  0.00    +0.165 HD
ATOM     13  C   UNL     1      -0.049   0.007   0.567  0.00  0.00    +0.047 A 
ATOM     14  C   UNL     1      -0.082   1.411   0.583  0.00  0.00    +0.007 A 
ATOM     15  C   UNL     1       1.054   2.131   0.943  0.00  0.00    +0.010 A 
ATOM     16  C   UNL     1       2.209   1.460   1.282  0.00  0.00    +0.001 A 
ATOM     17  C   UNL     1       2.242   0.074   1.267  0.00  0.00    +0.002 A 
ATOM     18  C   UNL     1       1.125  -0.652   0.913  0.00  0.00    +0.026 A 
ENDBRANCH   5   9
BRANCH   1  21
ATOM     19  C   UNL     1      -6.797   6.140   0.770  0.00  0.00    +0.261 C 
ATOM     20  O   UNL     1      -6.757   5.531   1.821  0.00  0.00    -0.269 OA
ATOM     21  N   UNL     1      -6.122   5.680  -0.302  0.00  0.00    -0.222 N 
ATOM     22  H   UNL     1      -6.154   6.166  -1.141  0.00  0.00    +0.174 HD
BRANCH  19  28
ATOM     23  C   UNL     1      -9.784   9.544   2.866  0.00  0.00    +0.044 C 
ATOM     24  C   UNL     1      -9.025   9.026   1.671  0.00  0.00    -0.050 A 
ATOM     25  C   UNL     1      -9.069   9.717   0.473  0.00  0.00    +0.003 A 
ATOM     26  C   UNL     1      -8.376   9.248  -0.628  0.00  0.00    +0.001 A 
ATOM     27  C   UNL     1      -7.636   8.087  -0.539  0.00  0.00    +0.013 A 
ATOM     28  C   UNL     1      -7.588   7.385   0.667  0.00  0.00    +0.038 A 
ATOM     29  C   UNL     1      -8.293   7.861   1.773  0.00  0.00    +0.016 A 
ENDBRANCH  19  28
ENDBRANCH   1  21
TORSDOF 3
