REMARK  Name = ZINC45681760
REMARK  9 active torsions:
REMARK  status: ('A' for Active; 'I' for Inactive)
REMARK    1  A    between atoms: C_1  and  C_2
REMARK    2  A    between atoms: C_2  and  C_4
REMARK    3  A    between atoms: C_2  and  N_10
REMARK    4  A    between atoms: N_6  and  C_7
REMARK    5  A    between atoms: N_13  and  C_16
REMARK    6  A    between atoms: C_16  and  C_17
REMARK    7  A    between atoms: N_19  and  C_20
REMARK    8  A    between atoms: C_20  and  C_21
REMARK    9  A    between atoms: C_24  and  C_26
REMARK                            x       y       z     vdW  Elec       q    Type
REMARK                         _______ _______ _______ _____ _____    ______ ____
ROOT
ATOM      1  C   UNL     1      -0.141  -3.824   4.141  0.00  0.00    +0.180 C 
ENDROOT
BRANCH   1   5
ATOM      2  N   UNL     1       0.324  -0.925   1.100  0.00  0.00    +0.389 N 
ATOM      3  C   UNL     1      -0.008  -2.299   0.700  0.00  0.00    -0.062 C 
ATOM      4  C   UNL     1       0.345  -3.261   1.836  0.00  0.00    +0.066 C 
ATOM      5  N   UNL     1      -0.409  -2.888   3.042  0.00  0.00    -0.298 NA
ATOM      6  C   UNL     1      -0.106  -1.506   3.440  0.00  0.00    +0.066 C 
ATOM      7  C   UNL     1      -0.455  -0.559   2.290  0.00  0.00    -0.062 C 
ATOM      8  H   UNL     1       1.309  -0.865   1.312  0.00  0.00    -0.081 HD
BRANCH   2  10
ATOM      9  C   UNL     1       0.356   1.426   0.415  0.00  0.00    -0.004 C 
ATOM     10  C   UNL     1       0.002  -0.004   0.002  0.00  0.00    +0.016 C 
BRANCH  10  11
ATOM     11  C   UNL     1       0.795  -0.385  -1.222  0.00  0.00    +0.199 C 
ATOM     12  O   UNL     1       1.873  -0.929  -1.101  0.00  0.00    -0.278 OA
ATOM     13  N   UNL     1       0.308  -0.120  -2.450  0.00  0.00    -0.314 N 
ATOM     14  H   UNL     1      -0.553   0.315  -2.546  0.00  0.00    +0.149 HD
BRANCH  13  15
ATOM     15  C   UNL     1       1.079  -0.490  -3.639  0.00  0.00    +0.073 C 
ATOM     16  C   UNL     1       1.163   0.534  -4.773  0.00  0.00    +0.024 C 
ATOM     17  C   UNL     1       0.306  -0.722  -4.939  0.00  0.00    +0.024 C 
ENDBRANCH  13  15
ENDBRANCH  10  11
ENDBRANCH   2  10
ENDBRANCH   1   5
BRANCH   1  18
ATOM     18  C   UNL     1      -1.104  -3.563   5.270  0.00  0.00    +0.227 C 
ATOM     19  O   UNL     1      -1.933  -2.684   5.168  0.00  0.00    -0.274 OA
ATOM     20  N   UNL     1      -1.045  -4.307   6.392  0.00  0.00    -0.307 N 
ATOM     21  H   UNL     1      -0.382  -5.010   6.474  0.00  0.00    +0.149 HD
BRANCH  20  22
ATOM     22  C   UNL     1      -1.982  -4.053   7.490  0.00  0.00    +0.178 C 
BRANCH  22  23
ATOM     23  C   UNL     1      -1.706  -5.013   8.618  0.00  0.00    +0.123 A 
ATOM     24  C   UNL     1      -0.862  -4.797   9.645  0.00  0.00    +0.047 A 
ATOM     25  C   UNL     1      -0.906  -5.943  10.464  0.00  0.00    +0.050 A 
ATOM     26  C   UNL     1      -1.784  -6.804   9.886  0.00  0.00    +0.135 A 
ATOM     27  O   UNL     1      -2.266  -6.225   8.769  0.00  0.00    -0.458 OA
BRANCH  26  28
ATOM     28  C   UNL     1      -2.151  -8.142  10.396  0.00  0.00    +0.017 A 
ATOM     29  C   UNL     1      -1.583  -8.621  11.578  0.00  0.00    +0.013 A 
ATOM     30  C   UNL     1      -1.929  -9.870  12.049  0.00  0.00    +0.021 A 
ATOM     31  C   UNL     1      -2.838 -10.649  11.352  0.00  0.00    +0.041 A 
ATOM     32  C   UNL     1      -3.405 -10.179  10.180  0.00  0.00    +0.021 A 
ATOM     33  C   UNL     1      -3.070  -8.929   9.701  0.00  0.00    +0.013 A 
ATOM     34 CL   UNL     1      -3.268 -12.220  11.952  0.00  0.00    -0.084 Cl
ENDBRANCH  26  28
ENDBRANCH  22  23
ENDBRANCH  20  22
ENDBRANCH   1  18
TORSDOF 8
