REMARK  Name = ZINC09695047
REMARK  7 active torsions:
REMARK  status: ('A' for Active; 'I' for Inactive)
REMARK    1  A    between atoms: C_4  and  S_7
REMARK    2  A    between atoms: S_7  and  C_8
REMARK    3  A    between atoms: C_8  and  S_25
REMARK    4  A    between atoms: C_9  and  C_10
REMARK    5  A    between atoms: N_12  and  N_13
REMARK    6  A    between atoms: C_14  and  C_15
REMARK    7  A    between atoms: S_25  and  C_26
REMARK                            x       y       z     vdW  Elec       q    Type
REMARK                         _______ _______ _______ _____ _____    ______ ____
ROOT
ATOM      1  C   UNL     1       1.636  10.623  -0.062  0.00  0.00    +0.055 C 
ATOM      2  C   UNL     1       2.376   9.490   0.191  0.00  0.00    +0.091 C 
ENDROOT
BRANCH   2   3
ATOM      3  C   UNL     1       1.732   8.257   0.363  0.00  0.00    +0.258 C 
ATOM      4  O   UNL     1       0.516   8.188   0.288  0.00  0.00    -0.269 OA
ATOM      5  N   UNL     1       2.456   7.147   0.611  0.00  0.00    -0.203 N 
ATOM      6  H   UNL     1       3.422   7.202   0.671  0.00  0.00    +0.178 HD
BRANCH   5   7
ATOM      7  N   UNL     1       1.812   5.915   0.783  0.00  0.00    -0.187 NA
ATOM      8  C   UNL     1       2.510   4.846   1.022  0.00  0.00    +0.140 C 
BRANCH   8   9
ATOM      9  C   UNL     1       1.834   3.550   1.202  0.00  0.00    +0.020 A 
ATOM     10  C   UNL     1       2.426   2.353   1.457  0.00  0.00    +0.093 A 
ATOM     11  N   UNL     1       1.474   1.382   1.560  0.00  0.00    -0.360 N 
ATOM     12  H   UNL     1       1.654   0.446   1.739  0.00  0.00    +0.165 HD
ATOM     13  C   UNL     1       0.220   1.921   1.369  0.00  0.00    +0.047 A 
ATOM     14  C   UNL     1       0.384   3.298   1.143  0.00  0.00    +0.008 A 
ATOM     15  C   UNL     1      -0.730   4.106   0.919  0.00  0.00    +0.010 A 
ATOM     16  C   UNL     1      -1.989   3.548   0.928  0.00  0.00    +0.001 A 
ATOM     17  C   UNL     1      -2.153   2.189   1.156  0.00  0.00    +0.002 A 
ATOM     18  C   UNL     1      -1.061   1.379   1.378  0.00  0.00    +0.026 A 
ENDBRANCH   8   9
ENDBRANCH   5   7
ENDBRANCH   2   3
BRANCH   1  19
ATOM     19  S   UNL     1       2.445  12.174  -0.278  0.00  0.00    -0.082 S 
BRANCH  19  23
ATOM     20  C   UNL     1       1.090  14.299   3.485  0.00  0.00    +0.000 A 
ATOM     21  C   UNL     1       1.804  14.989   2.522  0.00  0.00    +0.001 A 
ATOM     22  C   UNL     1       2.219  14.344   1.374  0.00  0.00    +0.015 A 
ATOM     23  C   UNL     1       1.918  13.000   1.186  0.00  0.00    +0.013 A 
ATOM     24  C   UNL     1       1.196  12.312   2.153  0.00  0.00    +0.015 A 
ATOM     25  C   UNL     1       0.789  12.961   3.301  0.00  0.00    +0.001 A 
ENDBRANCH  19  23
ENDBRANCH   1  19
BRANCH   1  26
ATOM     26  S   UNL     1      -0.120  10.523  -0.171  0.00  0.00    -0.082 S 
BRANCH  26  27
ATOM     27  C   UNL     1      -0.341  10.880  -1.882  0.00  0.00    +0.013 A 
ATOM     28  C   UNL     1       0.763  11.000  -2.717  0.00  0.00    +0.015 A 
ATOM     29  C   UNL     1       0.585  11.275  -4.058  0.00  0.00    +0.001 A 
ATOM     30  C   UNL     1      -0.689  11.440  -4.569  0.00  0.00    +0.000 A 
ATOM     31  C   UNL     1      -1.790  11.327  -3.740  0.00  0.00    +0.001 A 
ATOM     32  C   UNL     1      -1.620  11.047  -2.398  0.00  0.00    +0.015 A 
ENDBRANCH  26  27
ENDBRANCH   1  26
TORSDOF 7
