REMARK  Name = ZINC13298299
REMARK  4 active torsions:
REMARK  status: ('A' for Active; 'I' for Inactive)
REMARK    1  A    between atoms: C_1  and  C_2
REMARK    2  A    between atoms: C_5  and  O_27
REMARK    3  A    between atoms: C_18  and  C_26
REMARK    4  A    between atoms: C_23  and  O_25
REMARK                            x       y       z     vdW  Elec       q    Type
REMARK                         _______ _______ _______ _____ _____    ______ ____
ROOT
ATOM      1  C   UNL     1      -3.180   3.682  -2.523  0.00  0.00    +0.012 C 
ATOM      2  C   UNL     1      -2.932   4.269  -1.131  0.00  0.00    -0.026 C 
ATOM      3  C   UNL     1      -4.269   4.598  -0.480  0.00  0.00    +0.010 C 
ATOM      4  C   UNL     1      -5.015   5.629  -1.333  0.00  0.00    +0.032 C 
ATOM      5  C   UNL     1      -4.180   6.886  -1.556  0.00  0.00    +0.115 C 
ATOM      6  C   UNL     1      -2.808   6.551  -2.150  0.00  0.00    +0.035 C 
ATOM      7  C   UNL     1      -2.110   5.554  -1.238  0.00  0.00    -0.002 C 
ATOM      8  C   UNL     1      -0.679   5.247  -1.654  0.00  0.00    +0.004 C 
ATOM      9  C   UNL     1       0.023   4.531  -0.487  0.00  0.00    +0.004 C 
ATOM     10  C   UNL     1      -1.032   3.959   0.449  0.00  0.00    -0.004 C 
ATOM     11  C   UNL     1      -2.124   3.241  -0.343  0.00  0.00    -0.001 C 
ATOM     12  C   UNL     1      -2.995   2.418   0.595  0.00  0.00    +0.005 C 
ATOM     13  C   UNL     1      -2.201   1.258   1.214  0.00  0.00    +0.010 C 
ATOM     14  C   UNL     1      -0.729   1.579   1.266  0.00  0.00    -0.003 C 
ATOM     15  C   UNL     1      -0.492   3.079   1.534  0.00  0.00    +0.001 C 
ATOM     16  C   UNL     1       1.022   3.126   1.788  0.00  0.00    +0.007 C 
ATOM     17  C   UNL     1       1.280   1.837   2.616  0.00  0.00    +0.032 C 
ATOM     18  C   UNL     1       0.011   0.961   2.474  0.00  0.00    +0.121 C 
ATOM     19  C   UNL     1      -0.013   1.086   0.008  0.00  0.00    +0.014 C 
ENDROOT
BRANCH  18  20
ATOM     20  O   UNL     1       0.361  -0.389   2.185  0.00  0.00    -0.391 OA
ATOM     21  H   UNL     1       0.829  -0.837   2.904  0.00  0.00    +0.210 HD
ENDBRANCH  18  20
BRANCH   5  22
ATOM     22  O   UNL     1      -4.005   7.568  -0.312  0.00  0.00    -0.392 OA
ATOM     23  H   UNL     1      -4.833   7.845   0.104  0.00  0.00    +0.210 HD
ENDBRANCH   5  22
TORSDOF 2
