REMARK  Name = ZINC21580174
REMARK  16 active torsions:
REMARK  status: ('A' for Active; 'I' for Inactive)
REMARK    1  A    between atoms: C_1  and  C_2
REMARK    2  A    between atoms: C_2  and  O_3
REMARK    3  A    between atoms: O_3  and  C_4
REMARK    4  A    between atoms: C_7  and  N_13
REMARK    5  A    between atoms: C_9  and  O_10
REMARK    6  A    between atoms: O_10  and  C_11
REMARK    7  A    between atoms: C_11  and  C_12
REMARK    8  A    between atoms: C_14  and  C_16
REMARK    9  A    between atoms: C_16  and  N_17
REMARK   10  A    between atoms: N_17  and  C_18
REMARK   11  A    between atoms: N_17  and  C_19
REMARK   12  A    between atoms: C_19  and  C_20
REMARK   13  A    between atoms: N_22  and  C_23
REMARK   14  A    between atoms: C_23  and  C_25
REMARK   15  A    between atoms: C_23  and  C_32
REMARK   16  A    between atoms: C_28  and  C_31
REMARK                            x       y       z     vdW  Elec       q    Type
REMARK                         _______ _______ _______ _____ _____    ______ ____
ROOT
ATOM      1  N   UNL     1       5.002  -1.972   6.302  0.00  0.00    +0.389 N 
ATOM      2  C   UNL     1       5.331  -0.679   6.916  0.00  0.00    -0.095 C 
ATOM      3  H   UNL     1       4.160  -2.407   6.861  0.00  0.00    -0.081 HD
ENDROOT
BRANCH   1   4
ATOM      4  C   UNL     1       4.576  -1.800   4.907  0.00  0.00    +0.019 C 
BRANCH   4   6
ATOM      5  N   UNL     1       2.689  -0.766   3.686  0.00  0.00    -0.287 N 
ATOM      6  C   UNL     1       3.274  -1.042   4.869  0.00  0.00    +0.201 C 
ATOM      7  O   UNL     1       2.751  -0.682   5.902  0.00  0.00    -0.278 OA
ATOM      8  H   UNL     1       3.122  -1.157   2.754  0.00  0.00    +0.155 HD
BRANCH   5  12
ATOM      9  C   UNL     1      -0.761   1.577   3.570  0.00  0.00    +0.162 A 
ATOM     10  C   UNL     1      -0.553   0.701   4.622  0.00  0.00    +0.051 A 
ATOM     11  C   UNL     1       0.591  -0.073   4.662  0.00  0.00    +0.027 A 
ATOM     12  C   UNL     1       1.530   0.020   3.644  0.00  0.00    +0.037 A 
ATOM     13  C   UNL     1       1.322   0.893   2.585  0.00  0.00    +0.072 A 
ATOM     14  C   UNL     1       0.176   1.670   2.545  0.00  0.00    +0.164 A 
BRANCH   9  15
ATOM     15  O   UNL     1      -1.885   2.344   3.535  0.00  0.00    -0.489 OA
BRANCH  15  17
ATOM     16  C   UNL     1      -3.997   3.132   4.407  0.00  0.00    +0.048 C 
ATOM     17  C   UNL     1      -2.804   2.197   4.620  0.00  0.00    +0.226 C 
ENDBRANCH  15  17
ENDBRANCH   9  15
BRANCH  14  18
ATOM     18  O   UNL     1      -0.031   2.525   1.509  0.00  0.00    -0.489 OA
BRANCH  18  19
ATOM     19  C   UNL     1       0.976   2.572   0.496  0.00  0.00    +0.226 C 
ATOM     20  C   UNL     1       0.572   3.584  -0.579  0.00  0.00    +0.048 C 
ENDBRANCH  18  19
ENDBRANCH  14  18
ENDBRANCH   5  12
ENDBRANCH   4   6
ENDBRANCH   1   4
BRANCH   1  21
ATOM     21  C   UNL     1       6.134  -2.903   6.396  0.00  0.00    +0.019 C 
BRANCH  21  22
ATOM     22  C   UNL     1       6.384  -3.245   7.842  0.00  0.00    +0.197 C 
ATOM     23  O   UNL     1       5.688  -2.762   8.709  0.00  0.00    -0.278 OA
ATOM     24  N   UNL     1       7.382  -4.089   8.172  0.00  0.00    -0.306 N 
ATOM     25  H   UNL     1       8.014  -4.528   7.386  0.00  0.00    +0.150 HD
BRANCH  24  26
ATOM     26  C   UNL     1       7.625  -4.422   9.578  0.00  0.00    +0.140 C 
BRANCH  26  27
ATOM     27  C   UNL     1       9.064  -4.834   9.755  0.00  0.00    -0.022 A 
ATOM     28  C   UNL     1       9.678  -5.627   8.803  0.00  0.00    +0.006 A 
ATOM     29  C   UNL     1      10.999  -6.000   8.963  0.00  0.00    +0.004 A 
ATOM     30  C   UNL     1      11.704  -5.590  10.080  0.00  0.00    -0.050 A 
ATOM     31  C   UNL     1      11.088  -4.802  11.034  0.00  0.00    +0.004 A 
ATOM     32  C   UNL     1       9.768  -4.424  10.871  0.00  0.00    +0.006 A 
ATOM     33  C   UNL     1      13.142  -6.003  10.258  0.00  0.00    +0.044 C 
ENDBRANCH  26  27
BRANCH  26  34
ATOM     34  C   UNL     1       6.724  -5.558   9.988  0.00  0.00    +0.014 A 
ATOM     35  C   UNL     1       6.055  -5.739  11.153  0.00  0.00    +0.013 A 
ATOM     36  C   UNL     1       5.274  -6.869  11.309  0.00  0.00    +0.008 A 
ATOM     37  C   UNL     1       5.208  -7.767  10.297  0.00  0.00    +0.045 A 
ATOM     38  S   UNL     1       6.265  -7.018   9.069  0.00  0.00    -0.099 S 
ENDBRANCH  26  34
ENDBRANCH  24  26
ENDBRANCH  21  22
ENDBRANCH   1  21
TORSDOF 12
