REMARK  Name = ZINC16361761
REMARK  6 active torsions:
REMARK  status: ('A' for Active; 'I' for Inactive)
REMARK    1  A    between atoms: C_8  and  C_12
REMARK    2  A    between atoms: C_16  and  N_18
REMARK    3  A    between atoms: N_18  and  C_19
REMARK    4  A    between atoms: C_19  and  N_21
REMARK    5  A    between atoms: C_22  and  C_24
REMARK    6  A    between atoms: C_24  and  C_25
REMARK                            x       y       z     vdW  Elec       q    Type
REMARK                         _______ _______ _______ _____ _____    ______ ____
ROOT
ATOM      1  N   UNL     1      -8.243   1.259   2.845  0.00  0.00    -0.297 N 
ATOM      2  H   UNL     1      -8.775   0.935   2.101  0.00  0.00    +0.154 HD
ENDROOT
BRANCH   1   7
ATOM      3  C   UNL     1     -10.669   2.697   5.217  0.00  0.00    -0.009 A 
ATOM      4  C   UNL     1     -10.088   2.333   6.432  0.00  0.00    +0.009 A 
ATOM      5  C   UNL     1      -8.908   1.620   6.447  0.00  0.00    +0.002 A 
ATOM      6  C   UNL     1      -8.298   1.259   5.260  0.00  0.00    +0.023 A 
ATOM      7  C   UNL     1      -8.866   1.622   4.044  0.00  0.00    +0.033 A 
ATOM      8  C   UNL     1     -10.053   2.339   4.020  0.00  0.00    +0.032 A 
BRANCH   3  16
ATOM      9  C   UNL     1     -16.504   4.214   6.564  0.00  0.00    +0.001 A 
ATOM     10  C   UNL     1     -16.552   5.354   5.775  0.00  0.00    +0.004 A 
ATOM     11  C   UNL     1     -15.454   5.747   5.040  0.00  0.00    +0.047 A 
ATOM     12  C   UNL     1     -14.284   4.998   5.086  0.00  0.00    +0.139 A 
ATOM     13  C   UNL     1     -14.239   3.843   5.886  0.00  0.00    +0.018 A 
ATOM     14  C   UNL     1     -15.366   3.462   6.625  0.00  0.00    +0.011 A 
ATOM     15  C   UNL     1     -13.011   3.049   5.940  0.00  0.00    +0.027 A 
ATOM     16  C   UNL     1     -11.937   3.464   5.199  0.00  0.00    +0.067 A 
ATOM     17  C   UNL     1     -12.059   4.682   4.393  0.00  0.00    +0.345 A 
ATOM     18  O   UNL     1     -11.110   5.064   3.734  0.00  0.00    -0.245 OA
ATOM     19  O   UNL     1     -13.206   5.378   4.367  0.00  0.00    -0.422 OA
ENDBRANCH   3  16
ENDBRANCH   1   7
BRANCH   1  20
ATOM     20  C   UNL     1      -6.905   1.360   2.723  0.00  0.00    +0.141 C 
ATOM     21  S   UNL     1      -5.982   2.064   3.982  0.00  0.00    -0.018 S 
BRANCH  20  22
ATOM     22  N   UNL     1      -6.293   0.907   1.611  0.00  0.00    -0.268 N 
ATOM     23  C   UNL     1      -4.955   1.009   1.489  0.00  0.00    +0.219 C 
ATOM     24  O   UNL     1      -4.301   1.507   2.380  0.00  0.00    -0.275 OA
ATOM     25  H   UNL     1      -6.816   0.508   0.898  0.00  0.00    +0.156 HD
BRANCH  23  26
ATOM     26  C   UNL     1      -4.271   0.502   0.246  0.00  0.00    +0.103 C 
BRANCH  26  27
ATOM     27  C   UNL     1      -2.763   0.736   0.361  0.00  0.00    -0.020 C 
ATOM     28  C   UNL     1      -2.069   0.222  -0.901  0.00  0.00    +0.011 C 
ATOM     29  C   UNL     1      -0.561   0.456  -0.785  0.00  0.00    -0.010 C 
ATOM     30  C   UNL     1      -0.021  -0.294   0.435  0.00  0.00    +0.007 C 
ATOM     31  C   UNL     1      -0.716   0.221   1.697  0.00  0.00    -0.010 C 
ATOM     32  C   UNL     1      -2.223  -0.013   1.581  0.00  0.00    +0.011 C 
ATOM     33  C   UNL     1      -0.442   1.718   1.856  0.00  0.00    +0.007 C 
ATOM     34  C   UNL     1      -0.982   2.467   0.636  0.00  0.00    -0.010 C 
ATOM     35  C   UNL     1      -0.288   1.952  -0.627  0.00  0.00    +0.007 C 
ATOM     36  C   UNL     1      -2.490   2.233   0.520  0.00  0.00    +0.011 C 
ENDBRANCH  26  27
ENDBRANCH  23  26
ENDBRANCH  20  22
ENDBRANCH   1  20
TORSDOF 6
