REMARK  Name = ZINC27550671
REMARK  8 active torsions:
REMARK  status: ('A' for Active; 'I' for Inactive)
REMARK    1  A    between atoms: C_1  and  C_2
REMARK    2  A    between atoms: C_4  and  C_9
REMARK    3  A    between atoms: C_5  and  S_7
REMARK    4  A    between atoms: S_7  and  C_8
REMARK    5  A    between atoms: C_11  and  C_31
REMARK    6  A    between atoms: C_12  and  N_30
REMARK    7  A    between atoms: N_13  and  C_21
REMARK    8  A    between atoms: C_24  and  N_27
REMARK                            x       y       z     vdW  Elec       q    Type
REMARK                         _______ _______ _______ _____ _____    ______ ____
ROOT
ATOM      1  C   UNL     1      -3.562   3.465  -0.775  0.00  0.00    +0.099 C 
ATOM      2  C   UNL     1      -3.560   2.001  -0.448  0.00  0.00    +0.077 C 
ATOM      3  C   UNL     1      -2.416   1.366  -0.089  0.00  0.00    +0.107 C 
ATOM      4  N   UNL     1      -1.233   2.065  -0.002  0.00  0.00    -0.260 N 
ATOM      5  C   UNL     1      -1.238   3.431   0.110  0.00  0.00    +0.024 C 
ATOM      6  C   UNL     1      -2.329   4.146  -0.236  0.00  0.00    +0.025 C 
ATOM      7  C   UNL     1      -2.349   5.545  -0.108  0.00  0.00    +0.162 C 
ATOM      8  O   UNL     1      -3.345   6.160  -0.437  0.00  0.00    -0.292 OA
ATOM      9  C   UNL     1      -1.161   6.297   0.427  0.00  0.00    +0.080 C 
ATOM     10  C   UNL     1      -0.381   5.385   1.380  0.00  0.00    +0.014 C 
ATOM     11  C   UNL     1       0.006   4.112   0.624  0.00  0.00    +0.052 C 
ENDROOT
BRANCH   1  15
ATOM     12  C   UNL     1      -1.684   2.888  -5.473  0.00  0.00    +0.051 C 
ATOM     13  C   UNL     1      -2.659   3.322  -4.409  0.00  0.00    -0.012 A 
ATOM     14  C   UNL     1      -2.584   3.155  -3.067  0.00  0.00    +0.016 A 
ATOM     15  C   UNL     1      -3.608   3.637  -2.271  0.00  0.00    -0.014 A 
ATOM     16  C   UNL     1      -4.656   4.274  -2.866  0.00  0.00    +0.049 A 
ATOM     17  S   UNL     1      -4.205   4.194  -4.591  0.00  0.00    -0.087 S 
BRANCH  16  18
ATOM     18  S   UNL     1      -6.084   4.991  -2.124  0.00  0.00    -0.121 S 
ATOM     19  C   UNL     1      -7.025   5.648  -3.528  0.00  0.00    +0.090 C 
ENDBRANCH  16  18
ENDBRANCH   1  15
BRANCH   4  20
ATOM     20  C   UNL     1      -0.015   1.375  -0.034  0.00  0.00    +0.040 A 
ATOM     21  C   UNL     1       0.533   0.876   1.140  0.00  0.00    +0.026 A 
ATOM     22  C   UNL     1       1.737   0.201   1.106  0.00  0.00    +0.034 A 
ATOM     23  C   UNL     1       2.398   0.023  -0.096  0.00  0.00    +0.126 A 
ATOM     24  C   UNL     1       1.855   0.519  -1.267  0.00  0.00    +0.034 A 
ATOM     25  C   UNL     1       0.650   1.194  -1.239  0.00  0.00    +0.026 A 
BRANCH  23  26
ATOM     26  N   UNL     1       3.689  -0.700  -0.128  0.00  0.00    +0.056 N 
ATOM     27  O   UNL     1       4.272  -0.858  -1.186  0.00  0.00    -0.126 OA
ATOM     28  O   UNL     1       4.168  -1.137   0.902  0.00  0.00    -0.126 OA
ENDBRANCH  23  26
ENDBRANCH   4  20
BRANCH   3  29
ATOM     29  N   UNL     1      -2.440   0.021   0.194  0.00  0.00    -0.345 N 
ATOM     30  H   UNL     1      -1.514  -0.497   0.485  0.00  0.00    +0.144 HD
ATOM     31  H   UNL     1      -3.385  -0.538   0.129  0.00  0.00    +0.144 HD
ENDBRANCH   3  29
BRANCH   2  32
ATOM     32  C   UNL     1      -4.784   1.261  -0.520  0.00  0.00    +0.099 C 
ATOM     33  N   UNL     1      -5.754   0.674  -0.578  0.00  0.00    -0.191 NA
ENDBRANCH   2  32
TORSDOF 6
