REMARK  Name = ZINC16682340
REMARK  14 active torsions:
REMARK  status: ('A' for Active; 'I' for Inactive)
REMARK    1  A    between atoms: C_1  and  C_2
REMARK    2  A    between atoms: C_2  and  O_3
REMARK    3  A    between atoms: O_3  and  C_4
REMARK    4  A    between atoms: C_4  and  C_6
REMARK    5  A    between atoms: C_7  and  C_37
REMARK    6  A    between atoms: C_14  and  C_15
REMARK    7  A    between atoms: C_18  and  O_22
REMARK    8  A    between atoms: C_19  and  O_21
REMARK    9  A    between atoms: O_22  and  C_23
REMARK   10  A    between atoms: C_25  and  C_27
REMARK   11  A    between atoms: C_32  and  O_33
REMARK   12  A    between atoms: O_33  and  C_34
REMARK   13  A    between atoms: C_34  and  C_35
REMARK   14  A    between atoms: C_34  and  C_36
REMARK                            x       y       z     vdW  Elec       q    Type
REMARK                         _______ _______ _______ _____ _____    ______ ____
ROOT
ATOM      1  C   UNL     1       0.843  -4.356  -0.328  0.00  0.00    +0.085 C 
ATOM      2  C   UNL     1      -0.521  -4.268  -0.333  0.00  0.00    +0.053 C 
ATOM      3  N   UNL     1      -1.122  -3.090  -0.219  0.00  0.00    -0.228 NA
ATOM      4  C   UNL     1      -0.501  -1.944  -0.096  0.00  0.00    +0.178 A 
ATOM      5  N   UNL     1       0.868  -1.808  -0.068  0.00  0.00    -0.275 N 
ATOM      6  C   UNL     1       1.389  -0.581   0.056  0.00  0.00    +0.268 A 
ATOM      7  O   UNL     1       2.594  -0.411   0.078  0.00  0.00    -0.266 OA
ATOM      8  C   UNL     1       0.463   0.554   0.168  0.00  0.00    +0.081 A 
ATOM      9  C   UNL     1       0.733   1.878   0.306  0.00  0.00    +0.028 C 
ATOM     10  S   UNL     1      -1.114  -0.278   0.068  0.00  0.00    -0.046 S 
ATOM     11  C   UNL     1       1.637  -3.078  -0.190  0.00  0.00    +0.165 C 
ATOM     12  C   UNL     1      -1.350  -5.519  -0.469  0.00  0.00    +0.066 C 
ENDROOT
BRANCH   9  13
ATOM     13  C   UNL     1      -0.356   2.861   0.233  0.00  0.00    -0.020 A 
ATOM     14  C   UNL     1      -1.568   2.522  -0.380  0.00  0.00    +0.012 A 
ATOM     15  C   UNL     1      -2.590   3.444  -0.441  0.00  0.00    +0.050 A 
ATOM     16  C   UNL     1      -2.417   4.714   0.093  0.00  0.00    +0.161 A 
ATOM     17  C   UNL     1      -1.210   5.061   0.700  0.00  0.00    +0.159 A 
ATOM     18  C   UNL     1      -0.183   4.142   0.772  0.00  0.00    +0.057 A 
BRANCH  17  19
ATOM     19  O   UNL     1      -1.046   6.306   1.222  0.00  0.00    -0.503 OA
ATOM     20  H   UNL     1      -0.690   6.951   0.596  0.00  0.00    +0.292 HD
ENDBRANCH  17  19
BRANCH  16  21
ATOM     21  O   UNL     1      -3.426   5.620   0.024  0.00  0.00    -0.491 OA
ATOM     22  C   UNL     1      -4.635   5.199  -0.611  0.00  0.00    +0.277 C 
ENDBRANCH  16  21
ENDBRANCH   9  13
BRANCH  11  23
ATOM     23  C   UNL     1       2.539  -2.960  -1.392  0.00  0.00    +0.022 A 
ATOM     24  C   UNL     1       3.875  -3.294  -1.289  0.00  0.00    +0.009 A 
ATOM     25  C   UNL     1       4.702  -3.186  -2.392  0.00  0.00    +0.001 A 
ATOM     26  C   UNL     1       4.194  -2.745  -3.600  0.00  0.00    +0.004 A 
ATOM     27  C   UNL     1       2.858  -2.411  -3.708  0.00  0.00    +0.046 A 
ATOM     28  C   UNL     1       2.025  -2.523  -2.604  0.00  0.00    +0.126 A 
BRANCH  28  29
ATOM     29  O   UNL     1       0.709  -2.200  -2.709  0.00  0.00    -0.489 OA
BRANCH  29  30
ATOM     30  C   UNL     1       0.225  -1.867  -4.012  0.00  0.00    +0.167 C 
ATOM     31  C   UNL     1      -1.279  -2.139  -4.081  0.00  0.00    +0.051 C 
ATOM     32  C   UNL     1       0.488  -0.386  -4.291  0.00  0.00    +0.051 C 
ENDBRANCH  29  30
ENDBRANCH  28  29
ENDBRANCH  11  23
BRANCH   1  33
ATOM     33  C   UNL     1       1.487  -5.598  -0.448  0.00  0.00    +0.339 C 
ATOM     34  O   UNL     1       0.834  -6.627  -0.432  0.00  0.00    -0.245 OA
BRANCH  33  35
ATOM     35  O   UNL     1       2.830  -5.652  -0.580  0.00  0.00    -0.462 OA
BRANCH  35  37
ATOM     36  C   UNL     1       4.934  -6.821  -0.803  0.00  0.00    +0.048 C 
ATOM     37  C   UNL     1       3.408  -6.940  -0.805  0.00  0.00    +0.229 C 
ENDBRANCH  35  37
ENDBRANCH  33  35
ENDBRANCH   1  33
TORSDOF 9
