REMARK  Name = ZINC27062493
REMARK  3 active torsions:
REMARK  status: ('A' for Active; 'I' for Inactive)
REMARK    1  A    between atoms: C_12  and  N_13
REMARK    2  A    between atoms: N_13  and  C_14
REMARK    3  A    between atoms: C_14  and  C_15
REMARK                            x       y       z     vdW  Elec       q    Type
REMARK                         _______ _______ _______ _____ _____    ______ ____
ROOT
ATOM      1  C   UNL     1       8.546   0.035  -7.011  0.00  0.00    +0.001 A 
ATOM      2  C   UNL     1       7.737  -0.800  -7.780  0.00  0.00    +0.002 A 
ATOM      3  C   UNL     1       6.618  -1.371  -7.255  0.00  0.00    +0.024 A 
ATOM      4  C   UNL     1       6.266  -1.121  -5.918  0.00  0.00    +0.041 A 
ATOM      5  C   UNL     1       7.090  -0.272  -5.138  0.00  0.00    -0.003 A 
ATOM      6  C   UNL     1       8.238   0.301  -5.712  0.00  0.00    +0.010 A 
ATOM      7  C   UNL     1       6.744  -0.018  -3.799  0.00  0.00    +0.024 C 
ATOM      8  C   UNL     1       5.596  -0.618  -3.296  0.00  0.00    +0.051 C 
ATOM      9  C   UNL     1       4.828  -1.458  -4.134  0.00  0.00    +0.249 C 
ATOM     10  N   UNL     1       5.171  -1.674  -5.384  0.00  0.00    -0.281 N 
ATOM     11  O   UNL     1       3.713  -2.046  -3.641  0.00  0.00    -0.270 OA
ATOM     12  C   UNL     1       5.187  -0.386  -1.900  0.00  0.00    +0.080 C 
ATOM     13  H   UNL     1       4.531  -2.328  -5.995  0.00  0.00    +0.155 HD
ENDROOT
BRANCH  12  14
ATOM     14  N   UNL     1       4.116  -0.948  -1.437  0.00  0.00    -0.345 N 
ATOM     15  H   UNL     1       3.513  -1.599  -2.087  0.00  0.00    +0.146 HD
BRANCH  14  16
ATOM     16  C   UNL     1       3.709  -0.717  -0.049  0.00  0.00    +0.136 C 
BRANCH  16  17
ATOM     17  C   UNL     1       2.397   0.024  -0.027  0.00  0.00    -0.027 A 
ATOM     18  C   UNL     1       1.207  -0.680  -0.016  0.00  0.00    +0.009 A 
ATOM     19  C   UNL     1       0.002  -0.004   0.002  0.00  0.00    +0.050 A 
ATOM     20  C   UNL     1      -0.017   1.383   0.010  0.00  0.00    +0.162 A 
ATOM     21  C   UNL     1       1.179   2.090   0.002  0.00  0.00    +0.162 A 
ATOM     22  C   UNL     1       2.385   1.406  -0.018  0.00  0.00    +0.054 A 
ATOM     23  O   UNL     1       1.184   3.451   0.018  0.00  0.00    -0.485 OA
ATOM     24  C   UNL     1      -0.040   4.103  -0.340  0.00  0.00    +0.270 C 
ATOM     25  C   UNL     1      -1.189   3.413   0.408  0.00  0.00    +0.270 C 
ATOM     26  O   UNL     1      -1.212   2.035   0.019  0.00  0.00    -0.485 OA
ENDBRANCH  16  17
ENDBRANCH  14  16
ENDBRANCH  12  14
TORSDOF 3
