REMARK  Name = ZINC20704721
REMARK  8 active torsions:
REMARK  status: ('A' for Active; 'I' for Inactive)
REMARK    1  A    between atoms: C_1  and  C_2
REMARK    2  A    between atoms: C_2  and  C_3
REMARK    3  A    between atoms: C_3  and  C_5
REMARK    4  A    between atoms: C_3  and  N_6
REMARK    5  A    between atoms: N_6  and  S_7
REMARK    6  A    between atoms: S_7  and  C_10
REMARK    7  A    between atoms: C_23  and  C_26
REMARK    8  A    between atoms: C_30  and  N_32
REMARK                            x       y       z     vdW  Elec       q    Type
REMARK                         _______ _______ _______ _____ _____    ______ ____
ROOT
ATOM      1  C   UNL     1      -3.048   2.170  -3.577  0.00  0.00    +0.106 A 
ATOM      2  C   UNL     1      -2.366   3.312  -3.955  0.00  0.00    +0.030 A 
ATOM      3  C   UNL     1      -2.114   3.547  -5.292  0.00  0.00    +0.025 A 
ATOM      4  C   UNL     1      -2.554   2.645  -6.252  0.00  0.00    +0.031 A 
ATOM      5  C   UNL     1      -3.243   1.501  -5.878  0.00  0.00    -0.018 A 
ATOM      6  C   UNL     1      -3.485   1.273  -4.530  0.00  0.00    +0.034 A 
ATOM      7  C   UNL     1      -3.733   0.500  -6.875  0.00  0.00    +0.049 C 
ATOM      8  C   UNL     1      -5.227   0.603  -7.071  0.00  0.00    -0.023 C 
ATOM      9  C   UNL     1      -5.549   0.366  -8.308  0.00  0.00    -0.030 C 
ATOM     10  C   UNL     1      -4.306   0.090  -9.132  0.00  0.00    +0.033 C 
ATOM     11  C   UNL     1      -3.165   0.730  -8.288  0.00  0.00    +0.029 C 
ATOM     12  C   UNL     1      -3.149   2.228  -8.607  0.00  0.00    +0.105 C 
ATOM     13  N   UNL     1      -2.329   2.918  -7.605  0.00  0.00    -0.336 N 
ATOM     14  H   UNL     1      -1.556   3.632  -7.925  0.00  0.00    +0.147 HD
ENDROOT
BRANCH  12  15
ATOM     15  C   UNL     1      -2.562   2.447  -9.977  0.00  0.00    -0.025 A 
ATOM     16  C   UNL     1      -1.190   2.437 -10.151  0.00  0.00    +0.007 A 
ATOM     17  C   UNL     1      -0.651   2.632 -11.409  0.00  0.00    +0.022 A 
ATOM     18  C   UNL     1      -1.485   2.848 -12.492  0.00  0.00    +0.071 A 
ATOM     19  C   UNL     1      -2.857   2.863 -12.316  0.00  0.00    +0.145 A 
ATOM     20  C   UNL     1      -3.395   2.663 -11.059  0.00  0.00    +0.039 A 
ATOM     21 CL   UNL     1      -0.808   3.100 -14.071  0.00  0.00    -0.081 Cl
BRANCH  19  22
ATOM     22  N   UNL     1      -3.749   3.094 -13.475  0.00  0.00    +0.058 N 
ATOM     23  O   UNL     1      -4.957   3.107 -13.320  0.00  0.00    -0.126 OA
ATOM     24  O   UNL     1      -3.275   3.270 -14.583  0.00  0.00    -0.126 OA
ENDBRANCH  19  22
ENDBRANCH  12  15
BRANCH   1  25
ATOM     25  S   UNL     1      -3.367   1.863  -1.871  0.00  0.00    +0.059 S 
ATOM     26  O   UNL     1      -4.500   1.007  -1.817  0.00  0.00    -0.153 OA
ATOM     27  O   UNL     1      -3.332   3.124  -1.218  0.00  0.00    -0.153 OA
BRANCH  25  28
ATOM     28  N   UNL     1      -2.087   0.991  -1.284  0.00  0.00    -0.187 NA
ATOM     29  H   UNL     1      -2.213  -0.085  -1.091  0.00  0.00    +0.148 HD
BRANCH  28  30
ATOM     30  C   UNL     1      -0.753   1.593  -1.232  0.00  0.00    +0.073 C 
ATOM     31  C   UNL     1       0.031   1.205  -2.487  0.00  0.00    +0.025 C 
BRANCH  30  33
ATOM     32  C   UNL     1      -0.729   1.579   1.267  0.00  0.00    +0.005 C 
ATOM     33  C   UNL     1      -0.013   1.086   0.008  0.00  0.00    +0.017 C 
ENDBRANCH  30  33
ENDBRANCH  28  30
ENDBRANCH  25  28
ENDBRANCH   1  25
TORSDOF 6
