REMARK  Name = ZINC02026613
REMARK  8 active torsions:
REMARK  status: ('A' for Active; 'I' for Inactive)
REMARK    1  A    between atoms: C_1  and  C_2
REMARK    2  A    between atoms: C_2  and  C_20
REMARK    3  A    between atoms: C_6  and  C_7
REMARK    4  A    between atoms: N_8  and  CA_9
REMARK    5  A    between atoms: CA_9  and  CB_11
REMARK    6  A    between atoms: CA_9  and  C_15
REMARK    7  A    between atoms: CB_11  and  CG_12
REMARK    8  A    between atoms: CG_12  and  CD_13
REMARK                            x       y       z     vdW  Elec       q    Type
REMARK                         _______ _______ _______ _____ _____    ______ ____
ROOT
ATOM      1  C   ACE A   0      -0.863   4.158   1.192  0.00  0.00    +0.104 C 
ATOM      2  N   UNL     1      -1.083   3.518   0.026  0.00  0.00    -0.280 NA
ENDROOT
BRANCH   1   8
ATOM      3  C   UNL     1      -1.376   9.668   1.350  0.00  0.00    +0.104 C 
ATOM      4  C   UNL     1      -0.630   8.335   1.255  0.00  0.00    +0.254 C 
ATOM      5  O   UNL     1      -0.881   7.553   2.458  0.00  0.00    -0.422 OA
ATOM      6  C   UNL     1      -0.380   6.287   2.445  0.00  0.00    +0.330 C 
ATOM      7  O   UNL     1       0.229   5.818   3.388  0.00  0.00    -0.249 OA
ATOM      8  C   UNL     1      -0.629   5.520   1.198  0.00  0.00    +0.246 C 
ATOM      9  C   UNL     1      -0.600   6.336  -0.042  0.00  0.00    +0.330 C 
ATOM     10  O   UNL     1      -0.168   5.907  -1.094  0.00  0.00    -0.249 OA
ATOM     11  O   UNL     1      -1.096   7.601   0.087  0.00  0.00    -0.422 OA
ATOM     12  C   UNL     1       0.871   8.600   1.125  0.00  0.00    +0.104 C 
ENDBRANCH   1   8
BRANCH   2  13
ATOM     13  CA  UNL     1      -1.331   2.074   0.020  0.00  0.00    +0.218 C 
BRANCH  13  14
ATOM     14  C   UNL     1      -0.016   1.338   0.009  0.00  0.00    +0.380 C 
ATOM     15  O   UNL     1       1.022   1.956   0.003  0.00  0.00    -0.244 OA
ATOM     16  OXT UNL     1       0.002  -0.004   0.002  0.00  0.00    -0.244 OA
ENDBRANCH  13  14
BRANCH  13  17
ATOM     17  CB  UNL     1      -2.134   1.700  -1.228  0.00  0.00    +0.049 C 
BRANCH  17  18
ATOM     18  CG  UNL     1      -3.518   2.348  -1.157  0.00  0.00    +0.128 C 
BRANCH  18  19
ATOM     19  CD  UNL     1      -4.309   1.980  -2.385  0.00  0.00    +0.356 C 
ATOM     20  OE1 UNL     1      -3.817   1.272  -3.231  0.00  0.00    -0.246 OA
ATOM     21  OE2 UNL     1      -5.561   2.439  -2.540  0.00  0.00    -0.246 OA
ENDBRANCH  18  19
ENDBRANCH  17  18
ENDBRANCH  13  17
ENDBRANCH   2  13
TORSDOF 6
