REMARK  Name = ZINC39662563
REMARK  6 active torsions:
REMARK  status: ('A' for Active; 'I' for Inactive)
REMARK    1  A    between atoms: C_4  and  C_7
REMARK    2  A    between atoms: C_7  and  C_9
REMARK    3  A    between atoms: C_7  and  N_11
REMARK    4  A    between atoms: C_12  and  C_14
REMARK    5  A    between atoms: C_25  and  C_27
REMARK    6  A    between atoms: C_30  and  C_32
REMARK                            x       y       z     vdW  Elec       q    Type
REMARK                         _______ _______ _______ _____ _____    ______ ____
ROOT
ATOM      1  C   UNL     1       4.668  -3.585   2.299  0.00  0.00    +0.100 C 
ATOM      2  C   UNL     1       3.954  -3.212   3.618  0.00  0.00    +0.121 C 
ATOM      3  N   UNL     1       4.675  -3.977   4.662  0.00  0.00    -0.294 N 
ATOM      4  C   UNL     1       6.100  -3.897   4.261  0.00  0.00    +0.115 C 
ATOM      5  C   UNL     1       6.076  -4.033   2.725  0.00  0.00    -0.004 C 
ATOM      6  C   UNL     1       7.131  -3.125   2.099  0.00  0.00    -0.010 C 
ATOM      7  C   UNL     1       8.525  -3.626   2.490  0.00  0.00    -0.082 C 
ATOM      8  N   UNL     1       8.700  -5.006   2.024  0.00  0.00    +0.379 N 
ATOM      9  C   UNL     1       7.741  -5.888   2.701  0.00  0.00    -0.082 C 
ATOM     10  C   UNL     1       6.314  -5.484   2.319  0.00  0.00    -0.010 C 
ATOM     11  C   UNL     1       4.153  -4.604   5.736  0.00  0.00    +0.282 C 
ATOM     12  O   UNL     1       4.883  -5.194   6.510  0.00  0.00    -0.267 OA
ATOM     13  H   UNL     1       8.545  -5.046   1.028  0.00  0.00    -0.086 HD
ATOM     14  H   UNL     1       9.639  -5.313   2.228  0.00  0.00    -0.086 HD
ENDROOT
BRANCH  11  15
ATOM     15  C   UNL     1       2.708  -4.574   5.970  0.00  0.00    +0.190 A 
ATOM     16  C   UNL     1       2.047  -5.165   7.025  0.00  0.00    +0.055 A 
ATOM     17  C   UNL     1       0.687  -4.888   6.855  0.00  0.00    +0.051 A 
ATOM     18  C   UNL     1       0.568  -4.145   5.715  0.00  0.00    +0.139 A 
ATOM     19  O   UNL     1       1.791  -3.958   5.193  0.00  0.00    -0.450 OA
BRANCH  18  20
ATOM     20  C   UNL     1      -0.696  -3.629   5.152  0.00  0.00    +0.052 A 
ATOM     21  C   UNL     1      -1.788  -4.483   4.981  0.00  0.00    +0.014 A 
ATOM     22  C   UNL     1      -2.966  -3.994   4.455  0.00  0.00    +0.001 A 
ATOM     23  C   UNL     1      -3.068  -2.661   4.096  0.00  0.00    +0.003 A 
ATOM     24  C   UNL     1      -1.992  -1.808   4.262  0.00  0.00    +0.039 A 
ATOM     25  C   UNL     1      -0.807  -2.282   4.794  0.00  0.00    +0.134 A 
ATOM     26  F   UNL     1       0.242  -1.447   4.962  0.00  0.00    -0.205 F 
ENDBRANCH  18  20
ENDBRANCH  11  15
BRANCH   1  28
ATOM     27  N   UNL     1       4.779  -2.553   0.054  0.00  0.00    -0.296 N 
ATOM     28  C   UNL     1       4.751  -2.385   1.391  0.00  0.00    +0.219 C 
ATOM     29  O   UNL     1       4.794  -1.269   1.863  0.00  0.00    -0.275 OA
ATOM     30  H   UNL     1       4.745  -3.445  -0.324  0.00  0.00    +0.150 HD
BRANCH  27  31
ATOM     31  C   UNL     1       4.860  -1.386  -0.829  0.00  0.00    +0.207 C 
BRANCH  31  35
ATOM     32  C   UNL     1       3.209  -2.370  -4.645  0.00  0.00    +0.000 A 
ATOM     33  C   UNL     1       2.961  -1.131  -4.083  0.00  0.00    +0.000 A 
ATOM     34  C   UNL     1       3.495  -0.813  -2.848  0.00  0.00    +0.006 A 
ATOM     35  C   UNL     1       4.277  -1.734  -2.175  0.00  0.00    -0.013 A 
ATOM     36  C   UNL     1       4.524  -2.972  -2.736  0.00  0.00    +0.006 A 
ATOM     37  C   UNL     1       3.991  -3.290  -3.972  0.00  0.00    +0.000 A 
ENDBRANCH  31  35
BRANCH  31  38
ATOM     38  C   UNL     1       6.268  -0.991  -0.992  0.00  0.00    +0.090 C 
ATOM     39  N   UNL     1       7.355  -0.686  -1.117  0.00  0.00    -0.194 NA
ENDBRANCH  31  38
ENDBRANCH  27  31
ENDBRANCH   1  28
TORSDOF 6
