REMARK  Name = ZINC18521696
REMARK  10 active torsions:
REMARK  status: ('A' for Active; 'I' for Inactive)
REMARK    1  A    between atoms: C_1  and  C_2
REMARK    2  A    between atoms: C_2  and  C_4
REMARK    3  A    between atoms: C_2  and  S_19
REMARK    4  A    between atoms: C_16  and  C_17
REMARK    5  A    between atoms: C_16  and  C_18
REMARK    6  A    between atoms: S_19  and  C_20
REMARK    7  A    between atoms: N_24  and  C_25
REMARK    8  A    between atoms: C_28  and  C_31
REMARK    9  A    between atoms: C_31  and  C_32
REMARK   10  A    between atoms: C_31  and  C_33
REMARK                            x       y       z     vdW  Elec       q    Type
REMARK                         _______ _______ _______ _____ _____    ______ ____
ROOT
ATOM      1  C   UNL     1       0.152   1.419   0.147  0.00  0.00    +0.029 C 
ATOM      2  C   UNL     1       0.543  -0.040   0.393  0.00  0.00    +0.137 C 
ENDROOT
BRANCH   2   3
ATOM      3  C   UNL     1      -0.696  -0.898   0.396  0.00  0.00    +0.234 C 
ATOM      4  O   UNL     1      -0.841  -1.757  -0.448  0.00  0.00    -0.274 OA
ATOM      5  N   UNL     1      -1.642  -0.711   1.337  0.00  0.00    -0.255 N 
ATOM      6  C   UNL     1      -2.886  -1.357   1.252  0.00  0.00    +0.059 A 
ATOM      7  C   UNL     1      -3.434  -1.691   0.027  0.00  0.00    +0.025 A 
ATOM      8  C   UNL     1      -4.664  -2.323  -0.025  0.00  0.00    +0.002 A 
ATOM      9  C   UNL     1      -5.343  -2.620   1.143  0.00  0.00    +0.002 A 
ATOM     10  C   UNL     1      -4.800  -2.289   2.371  0.00  0.00    +0.025 A 
ATOM     11  C   UNL     1      -3.567  -1.658   2.432  0.00  0.00    +0.055 A 
ATOM     12  N   UNL     1      -2.994  -1.325   3.664  0.00  0.00    -0.282 N 
ATOM     13  C   UNL     1      -1.950  -0.479   3.731  0.00  0.00    +0.241 C 
ATOM     14  O   UNL     1      -1.440  -0.239   4.806  0.00  0.00    -0.273 OA
ATOM     15  C   UNL     1      -1.403   0.170   2.490  0.00  0.00    +0.113 C 
ATOM     16  C   UNL     1       0.101   0.402   2.654  0.00  0.00    +0.042 C 
ATOM     17  C   UNL     1      -2.107   1.510   2.265  0.00  0.00    +0.042 C 
ATOM     18  H   UNL     1      -3.354  -1.709   4.480  0.00  0.00    +0.155 HD
ENDBRANCH   2   3
BRANCH   2  19
ATOM     19  S   UNL     1       1.661  -0.596  -0.923  0.00  0.00    -0.072 S 
BRANCH  19  20
ATOM     20  C   UNL     1       3.103   0.393  -0.704  0.00  0.00    +0.215 A 
ATOM     21  N   UNL     1       3.289   1.310   0.220  0.00  0.00    -0.101 NA
ATOM     22  N   UNL     1       4.451   1.843   0.097  0.00  0.00    -0.022 NA
ATOM     23  N   UNL     1       5.084   1.317  -0.895  0.00  0.00    -0.038 NA
ATOM     24  N   UNL     1       4.233   0.347  -1.453  0.00  0.00    -0.187 N 
BRANCH  24  25
ATOM     25  C   UNL     1       4.495  -0.486  -2.550  0.00  0.00    +0.070 A 
ATOM     26  C   UNL     1       3.991  -1.779  -2.578  0.00  0.00    +0.028 A 
ATOM     27  C   UNL     1       4.251  -2.597  -3.660  0.00  0.00    +0.006 A 
ATOM     28  C   UNL     1       5.012  -2.129  -4.715  0.00  0.00    -0.045 A 
ATOM     29  C   UNL     1       5.516  -0.842  -4.691  0.00  0.00    +0.006 A 
ATOM     30  C   UNL     1       5.255  -0.017  -3.614  0.00  0.00    +0.028 A 
BRANCH  28  31
ATOM     31  C   UNL     1       5.294  -3.025  -5.894  0.00  0.00    +0.013 C 
ATOM     32  C   UNL     1       4.735  -2.385  -7.166  0.00  0.00    +0.012 C 
ATOM     33  C   UNL     1       6.805  -3.215  -6.040  0.00  0.00    +0.012 C 
ENDBRANCH  28  31
ENDBRANCH  24  25
ENDBRANCH  19  20
ENDBRANCH   2  19
TORSDOF 5
