REMARK  Name = ZINC20356420
REMARK  7 active torsions:
REMARK  status: ('A' for Active; 'I' for Inactive)
REMARK    1  A    between atoms: C_1  and  C_2
REMARK    2  A    between atoms: C_6  and  O_8
REMARK    3  A    between atoms: O_8  and  C_9
REMARK    4  A    between atoms: C_9  and  C_10
REMARK    5  A    between atoms: C_10  and  O_11
REMARK    6  A    between atoms: O_11  and  C_12
REMARK    7  A    between atoms: C_15  and  C_18
REMARK                            x       y       z     vdW  Elec       q    Type
REMARK                         _______ _______ _______ _____ _____    ______ ____
ROOT
ATOM      1  C   UNL     1      -1.768  -6.213   9.745  0.00  0.00    +0.024 C 
ATOM      2  C   UNL     1      -0.624  -6.549  10.434  0.00  0.00    +0.081 C 
ATOM      3  C   UNL     1       0.734  -6.299   9.872  0.00  0.00    +0.153 C 
ATOM      4  N   UNL     1       1.015  -5.284   9.099  0.00  0.00    -0.283 NA
ATOM      5  N   UNL     1       1.685  -7.267  10.255  0.00  0.00    -0.150 N 
ATOM      6  C   UNL     1       1.442  -7.975  11.411  0.00  0.00    +0.182 C 
ATOM      7  N   UNL     1       0.372  -7.930  12.165  0.00  0.00    -0.152 NA
ATOM      8  C   UNL     1      -0.676  -7.172  11.780  0.00  0.00    +0.273 C 
ATOM      9  O   UNL     1      -1.638  -7.007  12.513  0.00  0.00    -0.268 OA
ATOM     10  S   UNL     1       2.918  -8.944  11.574  0.00  0.00    -0.018 S 
ATOM     11  C   UNL     1       3.708  -8.426  10.057  0.00  0.00    +0.182 C 
ATOM     12  N   UNL     1       2.849  -7.562   9.578  0.00  0.00    -0.149 NA
ATOM     13  N   UNL     1       4.920  -8.834   9.524  0.00  0.00    -0.308 N 
ATOM     14  C   UNL     1       5.405  -8.279   8.253  0.00  0.00    +0.107 C 
ATOM     15  C   UNL     1       6.817  -7.724   8.463  0.00  0.00    +0.019 C 
ATOM     16  C   UNL     1       7.709  -8.821   9.050  0.00  0.00    +0.003 C 
ATOM     17  C   UNL     1       7.155  -9.259  10.408  0.00  0.00    +0.019 C 
ATOM     18  C   UNL     1       5.749  -9.826  10.223  0.00  0.00    +0.107 C 
ATOM     19  H   UNL     1       1.916  -5.167   8.760  0.00  0.00    +0.188 HD
ENDROOT
BRANCH   1  23
ATOM     20  C   UNL     1      -1.514  -4.922   5.728  0.00  0.00    +0.121 A 
ATOM     21  C   UNL     1      -0.608  -5.860   6.213  0.00  0.00    +0.046 A 
ATOM     22  C   UNL     1      -0.684  -6.281   7.510  0.00  0.00    +0.011 A 
ATOM     23  C   UNL     1      -1.679  -5.766   8.353  0.00  0.00    -0.024 A 
ATOM     24  C   UNL     1      -2.590  -4.821   7.859  0.00  0.00    +0.011 A 
ATOM     25  C   UNL     1      -2.500  -4.404   6.561  0.00  0.00    +0.046 A 
BRANCH  20  26
ATOM     26  O   UNL     1      -1.432  -4.508   4.438  0.00  0.00    -0.489 OA
BRANCH  26  27
ATOM     27  C   UNL     1      -0.397  -5.081   3.637  0.00  0.00    +0.270 C 
BRANCH  27  28
ATOM     28  C   UNL     1      -0.462  -4.496   2.225  0.00  0.00    +0.270 C 
BRANCH  28  29
ATOM     29  O   UNL     1      -0.173  -3.098   2.274  0.00  0.00    -0.489 OA
BRANCH  29  35
ATOM     30  C   UNL     1       0.359   1.100  -0.159  0.00  0.00    +0.044 C 
ATOM     31  C   UNL     1       0.064  -0.377  -0.130  0.00  0.00    -0.047 A 
ATOM     32  C   UNL     1      -0.225  -1.047  -1.305  0.00  0.00    +0.003 A 
ATOM     33  C   UNL     1      -0.496  -2.402  -1.282  0.00  0.00    +0.004 A 
ATOM     34  C   UNL     1      -0.479  -3.091  -0.085  0.00  0.00    +0.045 A 
ATOM     35  C   UNL     1      -0.190  -2.422   1.095  0.00  0.00    +0.121 A 
ATOM     36  C   UNL     1       0.088  -1.063   1.069  0.00  0.00    +0.049 A 
ENDBRANCH  29  35
ENDBRANCH  28  29
ENDBRANCH  27  28
ENDBRANCH  26  27
ENDBRANCH  20  26
ENDBRANCH   1  23
TORSDOF 6
