REMARK  Name = ZINC02372300
REMARK  6 active torsions:
REMARK  status: ('A' for Active; 'I' for Inactive)
REMARK    1  A    between atoms: C_1  and  O_2
REMARK    2  A    between atoms: O_2  and  C_3
REMARK    3  A    between atoms: C_8  and  C_9
REMARK    4  A    between atoms: C_19  and  C_21
REMARK    5  A    between atoms: C_26  and  O_27
REMARK    6  A    between atoms: O_27  and  C_28
REMARK                            x       y       z     vdW  Elec       q    Type
REMARK                         _______ _______ _______ _____ _____    ______ ____
ROOT
ATOM      1  C   UNL     1       0.938   3.765  -0.086  0.00  0.00    +0.215 C 
ATOM      2  N   UNL     1      -0.031   4.371  -1.011  0.00  0.00    -0.302 N 
ATOM      3  C   UNL     1       0.664   5.058  -1.934  0.00  0.00    +0.153 C 
ATOM      4  S   UNL     1      -0.052   5.932  -3.220  0.00  0.00    -0.017 S 
ATOM      5  N   UNL     1       1.986   4.977  -1.726  0.00  0.00    -0.203 N 
ATOM      6  N   UNL     1       2.252   4.191  -0.596  0.00  0.00    -0.203 N 
ATOM      7  C   UNL     1       3.574   4.109  -0.388  0.00  0.00    +0.153 C 
ATOM      8  S   UNL     1       4.290   3.236   0.898  0.00  0.00    -0.017 S 
ATOM      9  N   UNL     1       4.269   4.797  -1.310  0.00  0.00    -0.302 N 
ATOM     10  C   UNL     1       3.300   5.402  -2.236  0.00  0.00    +0.215 C 
ATOM     11  H   UNL     1      -0.996   4.290  -0.964  0.00  0.00    +0.150 HD
ATOM     12  H   UNL     1       5.234   4.878  -1.357  0.00  0.00    +0.150 HD
ENDROOT
BRANCH   1  18
ATOM     13  C   UNL     1      -0.110   1.622   0.685  0.00  0.00    +0.127 A 
ATOM     14  C   UNL     1      -0.213   0.238   0.656  0.00  0.00    +0.046 A 
ATOM     15  C   UNL     1       0.615  -0.497  -0.171  0.00  0.00    +0.004 A 
ATOM     16  C   UNL     1       1.545   0.144  -0.968  0.00  0.00    +0.001 A 
ATOM     17  C   UNL     1       1.649   1.523  -0.940  0.00  0.00    +0.011 A 
ATOM     18  C   UNL     1       0.824   2.263  -0.115  0.00  0.00    +0.034 A 
BRANCH  13  20
ATOM     19  C   UNL     1      -1.868   1.621   2.286  0.00  0.00    +0.277 C 
ATOM     20  O   UNL     1      -0.926   2.348   1.493  0.00  0.00    -0.495 OA
ENDBRANCH  13  20
ENDBRANCH   1  18
BRANCH  10  21
ATOM     21  C   UNL     1       3.514   4.885  -3.635  0.00  0.00    +0.034 A 
ATOM     22  C   UNL     1       2.852   3.750  -4.061  0.00  0.00    +0.011 A 
ATOM     23  C   UNL     1       3.044   3.277  -5.346  0.00  0.00    +0.001 A 
ATOM     24  C   UNL     1       3.907   3.933  -6.205  0.00  0.00    +0.004 A 
ATOM     25  C   UNL     1       4.575   5.066  -5.782  0.00  0.00    +0.046 A 
ATOM     26  C   UNL     1       4.380   5.545  -4.494  0.00  0.00    +0.127 A 
BRANCH  26  27
ATOM     27  O   UNL     1       5.036   6.659  -4.076  0.00  0.00    -0.495 OA
ATOM     28  C   UNL     1       5.912   7.287  -5.014  0.00  0.00    +0.277 C 
ENDBRANCH  26  27
ENDBRANCH  10  21
TORSDOF 4
