REMARK  Name = ZINC36145981
REMARK  7 active torsions:
REMARK  status: ('A' for Active; 'I' for Inactive)
REMARK    1  A    between atoms: C_1  and  C_2
REMARK    2  A    between atoms: C_5  and  C_9
REMARK    3  A    between atoms: C_7  and  C_8
REMARK    4  A    between atoms: C_10  and  N_15
REMARK    5  A    between atoms: N_15  and  C_16
REMARK    6  A    between atoms: C_21  and  C_26
REMARK    7  A    between atoms: C_23  and  C_25
REMARK                            x       y       z     vdW  Elec       q    Type
REMARK                         _______ _______ _______ _____ _____    ______ ____
ROOT
ATOM      1  C   UNL     1       0.060  -4.248  -0.021  0.00  0.00    +0.057 C 
ATOM      2  C   UNL     1       0.972  -5.224  -0.445  0.00  0.00    +0.090 C 
ATOM      3  C   UNL     1       0.095  -6.339  -0.036  0.00  0.00    +0.247 C 
ATOM      4  O   UNL     1       0.141  -7.553  -0.057  0.00  0.00    -0.282 OA
ATOM      5  C   UNL     1      -0.867  -5.302   0.417  0.00  0.00    +0.237 C 
ATOM      6  O   UNL     1      -1.966  -5.318   0.938  0.00  0.00    -0.283 OA
ENDROOT
BRANCH   1  11
ATOM      7  C   UNL     1      -0.018   1.503   0.010  0.00  0.00    +0.044 C 
ATOM      8  C   UNL     1       0.002  -0.004   0.002  0.00  0.00    -0.048 A 
ATOM      9  C   UNL     1       0.006  -0.686  -1.202  0.00  0.00    +0.004 A 
ATOM     10  C   UNL     1       0.024  -2.065  -1.218  0.00  0.00    +0.009 A 
ATOM     11  C   UNL     1       0.040  -2.774  -0.013  0.00  0.00    -0.012 A 
ATOM     12  C   UNL     1       0.037  -2.078   1.199  0.00  0.00    +0.012 A 
ATOM     13  C   UNL     1       0.023  -0.699   1.199  0.00  0.00    -0.047 A 
ATOM     14  C   UNL     1       0.025   0.053   2.505  0.00  0.00    +0.044 C 
ENDBRANCH   1  11
BRANCH   2  15
ATOM     15  N   UNL     1       2.210  -5.166  -1.021  0.00  0.00    -0.337 N 
ATOM     16  H   UNL     1       2.617  -4.306  -1.211  0.00  0.00    +0.146 HD
BRANCH  15  17
ATOM     17  C   UNL     1       2.923  -6.402  -1.352  0.00  0.00    +0.074 C 
ATOM     18  C   UNL     1       3.681  -6.899  -0.119  0.00  0.00    +0.022 C 
ATOM     19  C   UNL     1       4.426  -8.190  -0.465  0.00  0.00    +0.002 C 
ATOM     20  C   UNL     1       5.417  -7.920  -1.598  0.00  0.00    +0.003 C 
ATOM     21  C   UNL     1       4.659  -7.423  -2.831  0.00  0.00    -0.009 C 
ATOM     22  C   UNL     1       3.915  -6.131  -2.485  0.00  0.00    +0.009 C 
ATOM     23  C   UNL     1       4.919  -5.067  -2.041  0.00  0.00    +0.009 C 
ATOM     24  C   UNL     1       5.651  -7.152  -3.964  0.00  0.00    +0.008 C 
ENDBRANCH  15  17
ENDBRANCH   2  15
TORSDOF 3
