REMARK  Name = ZINC44713610
REMARK  7 active torsions:
REMARK  status: ('A' for Active; 'I' for Inactive)
REMARK    1  A    between atoms: C_1  and  C_2
REMARK    2  A    between atoms: C_3  and  C_9
REMARK    3  A    between atoms: C_4  and  C_8
REMARK    4  A    between atoms: C_9  and  C_11
REMARK    5  A    between atoms: C_9  and  N_12
REMARK    6  A    between atoms: C_13  and  C_15
REMARK    7  A    between atoms: C_26  and  C_28
REMARK                            x       y       z     vdW  Elec       q    Type
REMARK                         _______ _______ _______ _____ _____    ______ ____
ROOT
ATOM      1  C   UNL     1       2.525  -1.347  -5.207  0.00  0.00    +0.100 C 
ATOM      2  C   UNL     1       3.841  -1.490  -4.410  0.00  0.00    +0.121 C 
ATOM      3  N   UNL     1       4.911  -1.384  -5.430  0.00  0.00    -0.296 N 
ATOM      4  C   UNL     1       4.433  -0.330  -6.356  0.00  0.00    +0.115 C 
ATOM      5  C   UNL     1       2.918  -0.584  -6.483  0.00  0.00    -0.004 C 
ATOM      6  C   UNL     1       2.166   0.741  -6.559  0.00  0.00    -0.010 C 
ATOM      7  C   UNL     1       2.528   1.455  -7.865  0.00  0.00    -0.082 C 
ATOM      8  N   UNL     1       2.174   0.602  -9.006  0.00  0.00    +0.379 N 
ATOM      9  C   UNL     1       2.971  -0.631  -8.976  0.00  0.00    -0.082 C 
ATOM     10  C   UNL     1       2.627  -1.433  -7.717  0.00  0.00    -0.010 C 
ATOM     11  C   UNL     1       6.058  -2.088  -5.500  0.00  0.00    +0.248 C 
ATOM     12  O   UNL     1       6.265  -2.994  -4.716  0.00  0.00    -0.270 OA
ATOM     13  H   UNL     1       1.194   0.368  -8.958  0.00  0.00    -0.086 HD
ATOM     14  H   UNL     1       2.357   1.098  -9.865  0.00  0.00    -0.086 HD
ENDROOT
BRANCH  11  15
ATOM     15  C   UNL     1       7.064  -1.758  -6.530  0.00  0.00    +0.055 A 
ATOM     16  C   UNL     1       7.261  -0.431  -6.919  0.00  0.00    +0.016 A 
ATOM     17  C   UNL     1       8.202  -0.130  -7.880  0.00  0.00    +0.021 A 
ATOM     18  C   UNL     1       8.952  -1.140  -8.461  0.00  0.00    +0.042 A 
ATOM     19  C   UNL     1       8.762  -2.457  -8.081  0.00  0.00    +0.040 A 
ATOM     20  C   UNL     1       7.828  -2.772  -7.114  0.00  0.00    +0.054 A 
ATOM     21 CL   UNL     1       7.596  -4.424  -6.633  0.00  0.00    -0.083 Cl
ATOM     22 CL   UNL     1      10.134  -0.751  -9.672  0.00  0.00    -0.083 Cl
ENDBRANCH  11  15
BRANCH   1  24
ATOM     23  N   UNL     1       0.203  -0.659  -4.707  0.00  0.00    -0.308 N 
ATOM     24  C   UNL     1       1.514  -0.559  -4.415  0.00  0.00    +0.219 C 
ATOM     25  O   UNL     1       1.881   0.165  -3.514  0.00  0.00    -0.275 OA
ATOM     26  H   UNL     1      -0.091  -1.239  -5.427  0.00  0.00    +0.149 HD
BRANCH  23  27
ATOM     27  C   UNL     1      -0.780   0.107  -3.936  0.00  0.00    +0.104 C 
ATOM     28  C   UNL     1      -0.906   1.513  -4.526  0.00  0.00    +0.033 C 
BRANCH  27  31
ATOM     29  C   UNL     1      -2.707  -0.395  -1.524  0.00  0.00    +0.065 C 
ATOM     30  C   UNL     1      -2.950  -0.802  -2.954  0.00  0.00    +0.038 A 
ATOM     31  C   UNL     1      -2.117  -0.586  -3.998  0.00  0.00    +0.015 A 
ATOM     32  C   UNL     1      -2.716  -1.118  -5.144  0.00  0.00    +0.065 A 
ATOM     33  N   UNL     1      -3.868  -1.635  -4.801  0.00  0.00    -0.179 NA
ATOM     34  N   UNL     1      -4.036  -1.453  -3.422  0.00  0.00    -0.281 N 
ATOM     35  H   UNL     1      -4.799  -1.742  -2.897  0.00  0.00    +0.189 HD
ATOM     36  C   UNL     1      -2.136  -1.098  -6.535  0.00  0.00    +0.068 C 
ENDBRANCH  27  31
ENDBRANCH  23  27
ENDBRANCH   1  24
TORSDOF 4
