REMARK  Name = ZINC43592476
REMARK  4 active torsions:
REMARK  status: ('A' for Active; 'I' for Inactive)
REMARK    1  A    between atoms: C_3  and  S_9
REMARK    2  A    between atoms: C_6  and  N_7
REMARK    3  A    between atoms: S_9  and  N_12
REMARK    4  A    between atoms: N_12  and  C_13
REMARK                            x       y       z     vdW  Elec       q    Type
REMARK                         _______ _______ _______ _____ _____    ______ ____
ROOT
ATOM      1  S   UNL     1       3.889   2.323  -0.023  0.00  0.00    +0.094 S 
ATOM      2  O   UNL     1       4.688   1.769  -1.059  0.00  0.00    -0.148 OA
ATOM      3  O   UNL     1       3.538   3.700   0.015  0.00  0.00    -0.148 OA
ENDROOT
BRANCH   1   6
ATOM      4  C   UNL     1      -0.017   1.385   0.010  0.00  0.00    +0.025 A 
ATOM      5  C   UNL     1       1.170   2.091   0.002  0.00  0.00    +0.033 A 
ATOM      6  C   UNL     1       2.377   1.418  -0.013  0.00  0.00    +0.145 A 
ATOM      7  C   UNL     1       2.401   0.033  -0.021  0.00  0.00    +0.152 A 
ATOM      8  C   UNL     1       1.216  -0.679  -0.014  0.00  0.00    +0.063 A 
ATOM      9  C   UNL     1       0.002  -0.004   0.002  0.00  0.00    +0.027 A 
ATOM     10  F   UNL     1       3.582  -0.622  -0.036  0.00  0.00    -0.203 F 
BRANCH   9  11
ATOM     11  N   UNL     1      -1.197  -0.720   0.010  0.00  0.00    -0.358 N 
ATOM     12  H   UNL     1      -2.044  -0.247   0.021  0.00  0.00    +0.142 HD
ATOM     13  H   UNL     1      -1.183  -1.690   0.005  0.00  0.00    +0.142 HD
ENDBRANCH   9  11
ENDBRANCH   1   6
BRANCH   1  14
ATOM     14  N   UNL     1       4.666   1.994   1.402  0.00  0.00    -0.095 NA
BRANCH  14  15
ATOM     15  C   UNL     1       5.906   2.580   1.674  0.00  0.00    +0.111 A 
ATOM     16  C   UNL     1       6.484   3.444   0.754  0.00  0.00    +0.049 A 
ATOM     17  C   UNL     1       7.710   4.022   1.026  0.00  0.00    +0.043 A 
ATOM     18  C   UNL     1       8.361   3.742   2.214  0.00  0.00    +0.023 A 
ATOM     19  C   UNL     1       7.789   2.882   3.133  0.00  0.00    +0.042 A 
ATOM     20  C   UNL     1       6.560   2.304   2.870  0.00  0.00    +0.148 A 
ATOM     21  F   UNL     1       5.998   1.469   3.771  0.00  0.00    -0.203 F 
ATOM     22 CL   UNL     1       8.434   5.102  -0.125  0.00  0.00    -0.083 Cl
ENDBRANCH  14  15
ENDBRANCH   1  14
TORSDOF 4
