REMARK  Name = ZINC39856106
REMARK  11 active torsions:
REMARK  status: ('A' for Active; 'I' for Inactive)
REMARK    1  A    between atoms: C_1  and  C_2
REMARK    2  A    between atoms: C_4  and  C_28
REMARK    3  A    between atoms: C_6  and  O_8
REMARK    4  A    between atoms: O_8  and  C_9
REMARK    5  A    between atoms: C_9  and  C_11
REMARK    6  A    between atoms: C_12  and  C_27
REMARK    7  A    between atoms: C_17  and  C_25
REMARK    8  A    between atoms: C_17  and  C_26
REMARK    9  A    between atoms: N_20  and  N_21
REMARK   10  A    between atoms: N_21  and  C_22
REMARK   11  A    between atoms: C_22  and  N_24
REMARK                            x       y       z     vdW  Elec       q    Type
REMARK                         _______ _______ _______ _____ _____    ______ ____
ROOT
ATOM      1  C   UNL     1       0.281  -2.771   4.786  0.00  0.00    +0.215 A 
ATOM      2  C   UNL     1       0.384  -2.177   6.014  0.00  0.00    +0.011 A 
ATOM      3  C   UNL     1       0.488  -3.217   6.944  0.00  0.00    +0.042 A 
ATOM      4  C   UNL     1       0.446  -4.401   6.246  0.00  0.00    +0.116 A 
ATOM      5  O   UNL     1       0.314  -4.113   4.954  0.00  0.00    -0.452 OA
ATOM      6  C   UNL     1       0.537  -5.751   6.913  0.00  0.00    +0.081 C 
ATOM      7  C   UNL     1       1.177  -5.593   8.295  0.00  0.00    -0.023 C 
ATOM      8  C   UNL     1       0.441  -4.527   9.113  0.00  0.00    +0.064 C 
ATOM      9  C   UNL     1       0.621  -3.185   8.418  0.00  0.00    +0.070 C 
ATOM     10  N   UNL     1       0.873  -2.092   9.070  0.00  0.00    -0.185 NA
ATOM     11  C   UNL     1       2.641  -5.179   8.129  0.00  0.00    +0.011 C 
ATOM     12  C   UNL     1       1.113  -6.930   9.036  0.00  0.00    +0.011 C 
ATOM     13  C   UNL     1       0.386  -0.699   6.306  0.00  0.00    +0.048 C 
ENDROOT
BRANCH   1  14
ATOM     14  C   UNL     1       0.151  -2.071   3.505  0.00  0.00    +0.380 C 
ATOM     15  O   UNL     1       0.132  -0.855   3.475  0.00  0.00    -0.241 OA
BRANCH  14  16
ATOM     16  O   UNL     1       0.051  -2.776   2.359  0.00  0.00    -0.420 OA
BRANCH  16  22
ATOM     17  C   UNL     1       2.460  -0.069  -0.911  0.00  0.00    +0.044 C 
ATOM     18  C   UNL     1       1.205  -0.757  -0.440  0.00  0.00    -0.047 A 
ATOM     19  C   UNL     1       0.053  -0.691  -1.202  0.00  0.00    +0.007 A 
ATOM     20  C   UNL     1      -1.099  -1.322  -0.772  0.00  0.00    -0.047 A 
ATOM     21  C   UNL     1      -1.103  -2.021   0.420  0.00  0.00    +0.049 A 
ATOM     22  C   UNL     1       0.052  -2.089   1.186  0.00  0.00    +0.133 A 
ATOM     23  C   UNL     1       1.209  -1.459   0.750  0.00  0.00    +0.049 A 
ATOM     24  C   UNL     1      -2.353  -1.248  -1.605  0.00  0.00    +0.044 C 
ENDBRANCH  16  22
ENDBRANCH  14  16
ENDBRANCH   1  14
BRANCH  10  25
ATOM     25  N   UNL     1       0.988  -2.119  10.466  0.00  0.00    -0.218 N 
ATOM     26  H   UNL     1       0.879  -2.956  10.945  0.00  0.00    +0.176 HD
BRANCH  25  27
ATOM     27  C   UNL     1       1.250  -0.984  11.143  0.00  0.00    +0.147 C 
ATOM     28  S   UNL     1       1.390  -1.018  12.849  0.00  0.00    -0.017 S 
BRANCH  27  29
ATOM     29  N   UNL     1       1.401   0.178  10.478  0.00  0.00    -0.339 N 
ATOM     30  H   UNL     1       1.321   0.197   9.511  0.00  0.00    +0.144 HD
ATOM     31  H   UNL     1       1.589   0.995  10.965  0.00  0.00    +0.144 HD
ENDBRANCH  27  29
ENDBRANCH  25  27
ENDBRANCH  10  25
TORSDOF 6
