REMARK  Name = ZINC11335544
REMARK  5 active torsions:
REMARK  status: ('A' for Active; 'I' for Inactive)
REMARK    1  A    between atoms: C_1  and  N_2
REMARK    2  A    between atoms: N_2  and  C_3
REMARK    3  A    between atoms: C_6  and  C_11
REMARK    4  A    between atoms: C_11  and  C_21
REMARK    5  A    between atoms: C_12  and  C_13
REMARK                            x       y       z     vdW  Elec       q    Type
REMARK                         _______ _______ _______ _____ _____    ______ ____
ROOT
ATOM      1  C   UNL     1      -2.328  -4.119   0.764  0.00  0.00    +0.132 C 
ATOM      2  N   UNL     1      -2.334  -2.678   0.498  0.00  0.00    -0.306 N 
ATOM      3  C   UNL     1      -3.598  -1.989   0.225  0.00  0.00    +0.132 C 
ATOM      4  C   UNL     1      -1.149  -1.970   0.504  0.00  0.00    +0.222 A 
ATOM      5  N   UNL     1      -1.156  -0.662   0.266  0.00  0.00    -0.194 NA
ATOM      6  C   UNL     1      -0.012   0.020   0.266  0.00  0.00    +0.177 A 
ATOM      7  N   UNL     1       1.136  -0.608   0.515  0.00  0.00    -0.194 NA
ATOM      8  C   UNL     1       1.139  -1.915   0.757  0.00  0.00    +0.217 A 
ATOM      9  N   UNL     1      -0.003  -2.595   0.752  0.00  0.00    -0.181 NA
ATOM     10  N   UNL     1       2.329  -2.565   1.015  0.00  0.00    -0.327 N 
ATOM     11  H   UNL     1       3.162  -2.069   1.019  0.00  0.00    +0.145 HD
ATOM     12  H   UNL     1       2.332  -3.519   1.192  0.00  0.00    +0.145 HD
ENDROOT
BRANCH   6  13
ATOM     13  C   UNL     1      -0.017   1.474  -0.003  0.00  0.00    +0.097 C 
ATOM     14  C   UNL     1       1.153   2.172   0.003  0.00  0.00    +0.030 C 
BRANCH  14  15
ATOM     15  C   UNL     1       1.134   3.636  -0.100  0.00  0.00    -0.022 A 
ATOM     16  C   UNL     1       2.144   4.305  -0.803  0.00  0.00    +0.009 A 
ATOM     17  C   UNL     1       2.118   5.679  -0.899  0.00  0.00    +0.022 A 
ATOM     18  C   UNL     1       1.101   6.401  -0.294  0.00  0.00    +0.059 A 
ATOM     19  C   UNL     1       0.100   5.747   0.408  0.00  0.00    +0.060 A 
ATOM     20  C   UNL     1       0.110   4.371   0.509  0.00  0.00    +0.029 A 
ATOM     21 CL   UNL     1      -1.169   6.661   1.162  0.00  0.00    -0.082 Cl
ATOM     22 CL   UNL     1       1.081   8.132  -0.415  0.00  0.00    -0.082 Cl
ENDBRANCH  14  15
BRANCH  13  23
ATOM     23  C   UNL     1      -1.252   2.147  -0.276  0.00  0.00    +0.103 C 
ATOM     24  N   UNL     1      -2.231   2.681  -0.492  0.00  0.00    -0.191 NA
ENDBRANCH  13  23
ENDBRANCH   6  13
TORSDOF 3
