REMARK  Name = ZINC07155408
REMARK  6 active torsions:
REMARK  status: ('A' for Active; 'I' for Inactive)
REMARK    1  A    between atoms: C_1  and  C_2
REMARK    2  A    between atoms: C_2  and  C_19
REMARK    3  A    between atoms: N_9  and  C_18
REMARK    4  A    between atoms: C_11  and  C_12
REMARK    5  A    between atoms: C_13  and  C_14
REMARK    6  A    between atoms: C_13  and  C_16
REMARK                            x       y       z     vdW  Elec       q    Type
REMARK                         _______ _______ _______ _____ _____    ______ ____
ROOT
ATOM      1  C   UNL     1       4.027   2.624  -1.021  0.00  0.00    +0.022 C 
ATOM      2  C   UNL     1       3.746   1.755   0.207  0.00  0.00    +0.030 C 
ATOM      3  C   UNL     1       4.687   0.573   0.248  0.00  0.00    -0.015 A 
ATOM      4  C   UNL     1       6.058   0.474   0.336  0.00  0.00    +0.006 A 
ATOM      5  C   UNL     1       6.662  -0.771   0.348  0.00  0.00    +0.000 A 
ATOM      6  C   UNL     1       5.885  -1.913   0.273  0.00  0.00    +0.002 A 
ATOM      7  C   UNL     1       4.512  -1.818   0.185  0.00  0.00    +0.024 A 
ATOM      8  C   UNL     1       3.896  -0.567   0.172  0.00  0.00    +0.038 A 
ATOM      9  N   UNL     1       2.550  -0.218   0.092  0.00  0.00    -0.306 N 
ATOM     10  C   UNL     1       2.371   1.129   0.110  0.00  0.00    +0.021 C 
ATOM     11  C   UNL     1       1.184   1.790   0.048  0.00  0.00    +0.021 C 
ATOM     12  C   UNL     1       1.456  -1.189  -0.001  0.00  0.00    +0.135 C 
ATOM     13  C   UNL     1       3.871   2.581   1.488  0.00  0.00    +0.022 C 
ENDROOT
BRANCH  11  14
ATOM     14  C   UNL     1      -0.001   1.079  -0.158  0.00  0.00    +0.028 C 
ATOM     15  C   UNL     1      -1.226   1.739  -0.111  0.00  0.00    +0.140 C 
BRANCH  15  16
ATOM     16  C   UNL     1      -2.466   0.995  -0.333  0.00  0.00    +0.397 C 
ATOM     17  O   UNL     1      -2.427  -0.201  -0.557  0.00  0.00    -0.240 OA
ATOM     18  O   UNL     1      -3.654   1.634  -0.288  0.00  0.00    -0.240 OA
ENDBRANCH  15  16
BRANCH  15  19
ATOM     19  C   UNL     1      -1.272   3.145   0.153  0.00  0.00    +0.106 C 
ATOM     20  N   UNL     1      -1.308   4.261   0.363  0.00  0.00    -0.191 NA
ENDBRANCH  15  19
ENDBRANCH  11  14
TORSDOF 3
