REMARK  Name = ZINC39363321
REMARK  12 active torsions:
REMARK  status: ('A' for Active; 'I' for Inactive)
REMARK    1  A    between atoms: C_1  and  C_2
REMARK    2  A    between atoms: C_4  and  C_16
REMARK    3  A    between atoms: C_5  and  C_15
REMARK    4  A    between atoms: N_7  and  C_8
REMARK    5  A    between atoms: C_16  and  N_17
REMARK    6  A    between atoms: N_17  and  C_18
REMARK    7  A    between atoms: C_18  and  C_19
REMARK    8  A    between atoms: C_24  and  C_25
REMARK    9  A    between atoms: C_28  and  O_33
REMARK   10  A    between atoms: C_30  and  O_31
REMARK   11  A    between atoms: O_31  and  C_32
REMARK   12  A    between atoms: O_33  and  C_34
REMARK                            x       y       z     vdW  Elec       q    Type
REMARK                         _______ _______ _______ _____ _____    ______ ____
ROOT
ATOM      1  N   UNL     1      -0.625  -1.278  -3.072  0.00  0.00    +0.382 N 
ATOM      2  H   UNL     1      -0.230  -2.201  -2.978  0.00  0.00    -0.085 HD
ATOM      3  H   UNL     1      -1.447  -1.203  -2.492  0.00  0.00    -0.085 HD
ENDROOT
BRANCH   1   4
ATOM      4  C   UNL     1       0.363  -0.276  -2.653  0.00  0.00    -0.048 C 
BRANCH   4   7
ATOM      5  C   UNL     1      -0.019   1.526   0.010  0.00  0.00    +0.034 C 
ATOM      6  C   UNL     1       0.002  -0.004   0.002  0.00  0.00    +0.117 C 
ATOM      7  C   UNL     1       0.742  -0.515  -1.214  0.00  0.00    -0.047 C 
ATOM      8  C   UNL     1       1.776  -1.208  -0.787  0.00  0.00    +0.018 C 
ATOM      9  N   UNL     1       1.841  -1.238   0.593  0.00  0.00    -0.268 N 
ATOM     10  N   UNL     1       0.773  -0.514   1.148  0.00  0.00    -0.247 N 
ATOM     11  C   UNL     1       2.770  -1.887  -1.693  0.00  0.00    +0.062 C 
ATOM     12  H   UNL     1       2.526  -1.695   1.106  0.00  0.00    +0.170 HD
BRANCH  10  13
ATOM     13  C   UNL     1       0.499  -0.317   2.505  0.00  0.00    +0.048 A 
ATOM     14  C   UNL     1      -0.610   0.427   2.889  0.00  0.00    +0.027 A 
ATOM     15  C   UNL     1      -0.879   0.620   4.230  0.00  0.00    +0.040 A 
ATOM     16  C   UNL     1      -0.045   0.073   5.191  0.00  0.00    +0.124 A 
ATOM     17  C   UNL     1       1.060  -0.668   4.810  0.00  0.00    +0.040 A 
ATOM     18  C   UNL     1       1.331  -0.869   3.470  0.00  0.00    +0.027 A 
ATOM     19  F   UNL     1      -0.310   0.264   6.502  0.00  0.00    -0.205 F 
ENDBRANCH  10  13
ENDBRANCH   4   7
ENDBRANCH   1   4
BRANCH   1  20
ATOM     20  C   UNL     1      -0.994  -1.044  -4.475  0.00  0.00    -0.067 C 
BRANCH  20  21
ATOM     21  C   UNL     1      -2.024  -2.088  -4.912  0.00  0.00    +0.066 C 
ATOM     22  C   UNL     1      -1.393  -3.464  -4.983  0.00  0.00    +0.115 C 
ATOM     23  N   UNL     1      -1.497  -3.845  -6.214  0.00  0.00    -0.161 NA
ATOM     24  N   UNL     1      -2.127  -2.896  -7.014  0.00  0.00    -0.153 NA
ATOM     25  C   UNL     1      -2.475  -1.830  -6.336  0.00  0.00    +0.081 C 
BRANCH  25  26
ATOM     26  C   UNL     1      -3.158  -0.636  -6.846  0.00  0.00    +0.040 A 
ATOM     27  C   UNL     1      -3.456   0.427  -5.984  0.00  0.00    +0.017 A 
ATOM     28  C   UNL     1      -4.096   1.544  -6.467  0.00  0.00    +0.046 A 
ATOM     29  C   UNL     1      -4.450   1.624  -7.811  0.00  0.00    +0.124 A 
ATOM     30  C   UNL     1      -4.161   0.577  -8.674  0.00  0.00    +0.091 A 
ATOM     31  C   UNL     1      -3.512  -0.551  -8.204  0.00  0.00    +0.132 A 
BRANCH  31  32
ATOM     32  O   UNL     1      -3.222  -1.573  -9.048  0.00  0.00    -0.494 OA
ATOM     33  C   UNL     1      -3.612  -1.415 -10.414  0.00  0.00    +0.277 C 
ENDBRANCH  31  32
BRANCH  29  34
ATOM     34  O   UNL     1      -5.083   2.730  -8.278  0.00  0.00    -0.495 OA
ATOM     35  C   UNL     1      -5.351   3.771  -7.337  0.00  0.00    +0.277 C 
ENDBRANCH  29  34
ENDBRANCH  25  26
ENDBRANCH  20  21
ENDBRANCH   1  20
TORSDOF 8
