REMARK  Name = ZINC39325656
REMARK  6 active torsions:
REMARK  status: ('A' for Active; 'I' for Inactive)
REMARK    1  A    between atoms: C_1  and  C_2
REMARK    2  A    between atoms: C_4  and  C_16
REMARK    3  A    between atoms: C_6  and  C_14
REMARK    4  A    between atoms: C_7  and  N_13
REMARK    5  A    between atoms: C_19  and  O_22
REMARK    6  A    between atoms: O_22  and  C_23
REMARK                            x       y       z     vdW  Elec       q    Type
REMARK                         _______ _______ _______ _____ _____    ______ ____
ROOT
ATOM      1  C   UNL     1      -0.281   1.618   0.475  0.00  0.00    +0.067 C 
ATOM      2  C   UNL     1      -0.159   0.117   0.426  0.00  0.00    +0.066 C 
ATOM      3  C   UNL     1      -1.156  -0.709   0.216  0.00  0.00    +0.030 C 
ATOM      4  C   UNL     1      -2.600  -0.517  -0.159  0.00  0.00    +0.098 C 
ATOM      5  C   UNL     1      -2.895  -1.583  -1.198  0.00  0.00    +0.097 C 
ATOM      6  C   UNL     1      -2.013  -2.566  -1.477  0.00  0.00    +0.195 C 
ATOM      7  O   UNL     1      -0.794  -2.730  -0.931  0.00  0.00    -0.448 OA
ATOM      8  C   UNL     1      -0.546  -2.107   0.332  0.00  0.00    +0.343 C 
ATOM      9  N   UNL     1       0.875  -1.803   0.530  0.00  0.00    -0.138 NA
ATOM     10  N   UNL     1       0.999  -0.573   0.588  0.00  0.00    -0.155 NA
ENDROOT
BRANCH   4  11
ATOM     11  C   UNL     1      -2.808   0.856  -0.744  0.00  0.00    -0.035 A 
ATOM     12  C   UNL     1      -2.128   1.229  -1.889  0.00  0.00    +0.008 A 
ATOM     13  C   UNL     1      -2.317   2.487  -2.426  0.00  0.00    +0.046 A 
ATOM     14  C   UNL     1      -3.190   3.377  -1.817  0.00  0.00    +0.121 A 
ATOM     15  C   UNL     1      -3.871   3.000  -0.668  0.00  0.00    +0.046 A 
ATOM     16  C   UNL     1      -3.683   1.738  -0.138  0.00  0.00    +0.008 A 
BRANCH  14  17
ATOM     17  O   UNL     1      -3.378   4.616  -2.343  0.00  0.00    -0.489 OA
BRANCH  17  18
ATOM     18  C   UNL     1      -4.195   5.521  -1.598  0.00  0.00    +0.173 C 
ATOM     19  C   UNL     1      -5.678   5.324  -1.974  0.00  0.00    +0.044 C 
ATOM     20  C   UNL     1      -6.268   6.756  -1.953  0.00  0.00    +0.004 C 
ATOM     21  C   UNL     1      -5.117   7.609  -2.543  0.00  0.00    +0.004 C 
ATOM     22  C   UNL     1      -3.838   6.973  -1.960  0.00  0.00    +0.044 C 
ENDBRANCH  17  18
ENDBRANCH  14  17
ENDBRANCH   4  11
BRANCH   6  23
ATOM     23  N   UNL     1      -2.398  -3.492  -2.413  0.00  0.00    -0.329 N 
ATOM     24  H   UNL     1      -3.268  -3.420  -2.837  0.00  0.00    +0.145 HD
ATOM     25  H   UNL     1      -1.802  -4.219  -2.650  0.00  0.00    +0.145 HD
ENDBRANCH   6  23
BRANCH   5  26
ATOM     26  C   UNL     1      -4.142  -1.546  -1.901  0.00  0.00    +0.101 C 
ATOM     27  N   UNL     1      -5.131  -1.516  -2.459  0.00  0.00    -0.191 NA
ENDBRANCH   5  26
TORSDOF 5
