REMARK  Name = ZINC23307527
REMARK  6 active torsions:
REMARK  status: ('A' for Active; 'I' for Inactive)
REMARK    1  A    between atoms: C_7  and  C_11
REMARK    2  A    between atoms: C_11  and  C_12
REMARK    3  A    between atoms: N_16  and  N_20
REMARK    4  A    between atoms: C_21  and  C_23
REMARK    5  A    between atoms: C_26  and  S_29
REMARK    6  A    between atoms: S_29  and  C_30
REMARK                            x       y       z     vdW  Elec       q    Type
REMARK                         _______ _______ _______ _____ _____    ______ ____
ROOT
ATOM      1  C   UNL     1      -0.398  11.790  -0.752  0.00  0.00    +0.167 C 
ATOM      2  C   UNL     1      -0.786  10.342  -0.980  0.00  0.00    +0.260 C 
ATOM      3  O   UNL     1      -1.615   9.920  -1.758  0.00  0.00    -0.272 OA
ATOM      4  N   UNL     1      -0.019   9.622  -0.138  0.00  0.00    -0.137 N 
ATOM      5  C   UNL     1       0.797  10.405   0.578  0.00  0.00    +0.326 C 
ATOM      6  O   UNL     1       1.586   9.985   1.401  0.00  0.00    -0.251 OA
ATOM      7  N   UNL     1       0.646  11.709   0.284  0.00  0.00    -0.286 N 
ATOM      8  H   UNL     1       1.126  12.627   0.654  0.00  0.00    +0.151 HD
ENDROOT
BRANCH   4   9
ATOM      9  N   UNL     1      -0.066   8.226  -0.029  0.00  0.00    -0.220 N 
ATOM     10  C   UNL     1      -0.661   7.653   1.035  0.00  0.00    +0.261 C 
ATOM     11  O   UNL     1      -1.157   8.347   1.901  0.00  0.00    -0.269 OA
ATOM     12  H   UNL     1       0.384   7.598  -0.813  0.00  0.00    +0.174 HD
BRANCH  10  13
ATOM     13  C   UNL     1      -0.710   6.183   1.149  0.00  0.00    +0.038 A 
ATOM     14  C   UNL     1      -1.327   5.587   2.253  0.00  0.00    +0.014 A 
ATOM     15  C   UNL     1      -1.372   4.221   2.357  0.00  0.00    +0.015 A 
ATOM     16  C   UNL     1      -0.803   3.426   1.364  0.00  0.00    +0.013 A 
ATOM     17  C   UNL     1      -0.182   4.018   0.266  0.00  0.00    +0.015 A 
ATOM     18  C   UNL     1      -0.140   5.384   0.154  0.00  0.00    +0.014 A 
BRANCH  16  19
ATOM     19  S   UNL     1      -0.862   1.671   1.500  0.00  0.00    -0.056 S 
BRANCH  19  20
ATOM     20  C   UNL     1      -0.013   1.086   0.008  0.00  0.00    +0.404 C 
ATOM     21  F   UNL     1       1.300   1.570  -0.002  0.00  0.00    -0.197 F 
ATOM     22  F   UNL     1      -0.689   1.549  -1.125  0.00  0.00    -0.197 F 
ENDBRANCH  19  20
ENDBRANCH  16  19
ENDBRANCH  10  13
ENDBRANCH   4   9
BRANCH   1  23
ATOM     23  C   UNL     1      -1.594  12.600  -0.249  0.00  0.00    +0.069 C 
BRANCH  23  30
ATOM     24  C   UNL     1      -1.318  16.287  -3.130  0.00  0.00    +0.001 A 
ATOM     25  C   UNL     1      -0.876  17.439  -2.494  0.00  0.00    +0.002 A 
ATOM     26  C   UNL     1      -0.569  17.426  -1.151  0.00  0.00    +0.026 A 
ATOM     27  C   UNL     1      -0.702  16.247  -0.423  0.00  0.00    +0.047 A 
ATOM     28  C   UNL     1      -1.144  15.082  -1.075  0.00  0.00    +0.003 A 
ATOM     29  C   UNL     1      -1.456  15.119  -2.435  0.00  0.00    +0.010 A 
ATOM     30  C   UNL     1      -1.181  14.035  -0.050  0.00  0.00    -0.020 A 
ATOM     31  C   UNL     1      -0.772  14.596   1.099  0.00  0.00    +0.087 A 
ATOM     32  N   UNL     1      -0.481  15.917   0.895  0.00  0.00    -0.360 N 
ATOM     33  H   UNL     1      -0.122  16.681   1.601  0.00  0.00    +0.165 HD
ENDBRANCH  23  30
ENDBRANCH   1  23
TORSDOF 6
