REMARK  Name = ZINC21225898
REMARK  9 active torsions:
REMARK  status: ('A' for Active; 'I' for Inactive)
REMARK    1  A    between atoms: C_1  and  C_2
REMARK    2  A    between atoms: C_2  and  C_3
REMARK    3  A    between atoms: C_2  and  C_4
REMARK    4  A    between atoms: C_2  and  C_5
REMARK    5  A    between atoms: C_8  and  C_11
REMARK    6  A    between atoms: C_16  and  C_26
REMARK    7  A    between atoms: C_29  and  N_32
REMARK    8  A    between atoms: N_32  and  C_33
REMARK    9  A    between atoms: N_32  and  C_34
REMARK                            x       y       z     vdW  Elec       q    Type
REMARK                         _______ _______ _______ _____ _____    ______ ____
ROOT
ATOM      1  C   UNL     1      -1.847   2.322   4.282  0.00  0.00    +0.032 C 
ATOM      2  C   UNL     1      -2.216   3.607   3.542  0.00  0.00    +0.059 C 
ATOM      3  C   UNL     1      -1.765   3.520   2.094  0.00  0.00    +0.017 C 
ATOM      4  C   UNL     1      -1.744   2.337   1.455  0.00  0.00    +0.036 C 
ATOM      5  C   UNL     1      -1.333   2.113   0.020  0.00  0.00    +0.136 C 
ATOM      6  N   UNL     1      -1.189   3.322  -0.762  0.00  0.00    -0.331 N 
ATOM      7  C   UNL     1      -0.206   4.261  -0.454  0.00  0.00    +0.049 A 
ATOM      8  C   UNL     1       0.835   4.533  -1.327  0.00  0.00    +0.025 A 
ATOM      9  C   UNL     1       1.814   5.439  -0.957  0.00  0.00    +0.002 A 
ATOM     10  C   UNL     1       1.758   6.067   0.274  0.00  0.00    +0.002 A 
ATOM     11  C   UNL     1       0.709   5.811   1.141  0.00  0.00    +0.025 A 
ATOM     12  C   UNL     1      -0.282   4.922   0.762  0.00  0.00    +0.052 A 
ATOM     13  N   UNL     1      -1.419   4.706   1.532  0.00  0.00    -0.316 N 
ATOM     14  C   UNL     1      -2.128   1.155   2.132  0.00  0.00    +0.163 C 
ATOM     15  O   UNL     1      -2.117   0.102   1.526  0.00  0.00    -0.292 OA
ATOM     16  C   UNL     1      -2.547   1.157   3.572  0.00  0.00    +0.088 C 
ATOM     17  H   UNL     1      -1.861   3.511  -1.612  0.00  0.00    +0.147 HD
ATOM     18  H   UNL     1      -2.061   5.589   1.672  0.00  0.00    +0.152 HD
ENDROOT
BRANCH   1  22
ATOM     19  C   UNL     1      -3.175   2.554   8.335  0.00  0.00    -0.042 A 
ATOM     20  C   UNL     1      -1.832   2.388   8.057  0.00  0.00    +0.004 A 
ATOM     21  C   UNL     1      -1.402   2.313   6.745  0.00  0.00    +0.004 A 
ATOM     22  C   UNL     1      -2.316   2.404   5.712  0.00  0.00    -0.043 A 
ATOM     23  C   UNL     1      -3.659   2.576   5.990  0.00  0.00    +0.004 A 
ATOM     24  C   UNL     1      -4.089   2.647   7.302  0.00  0.00    +0.004 A 
BRANCH  19  26
ATOM     25  C   UNL     1      -2.973   3.825  10.455  0.00  0.00    +0.015 C 
ATOM     26  C   UNL     1      -3.644   2.635   9.765  0.00  0.00    -0.013 C 
ATOM     27  C   UNL     1      -5.163   2.819   9.794  0.00  0.00    +0.015 C 
ATOM     28  C   UNL     1      -3.272   1.345  10.498  0.00  0.00    +0.015 C 
ENDBRANCH  19  26
ENDBRANCH   1  22
BRANCH   5  29
ATOM     29  C   UNL     1      -0.017   1.379   0.010  0.00  0.00    -0.023 A 
ATOM     30  C   UNL     1       0.055   0.099  -0.508  0.00  0.00    +0.007 A 
ATOM     31  C   UNL     1       1.259  -0.579  -0.514  0.00  0.00    +0.023 A 
ATOM     32  C   UNL     1       2.397   0.027   0.001  0.00  0.00    +0.029 A 
ATOM     33  C   UNL     1       2.322   1.313   0.521  0.00  0.00    +0.023 A 
ATOM     34  C   UNL     1       1.115   1.985   0.523  0.00  0.00    +0.007 A 
BRANCH  32  35
ATOM     35  N   UNL     1       3.616  -0.656  -0.003  0.00  0.00    -0.336 N 
ATOM     36  C   UNL     1       4.816  -0.015   0.540  0.00  0.00    +0.129 C 
ATOM     37  C   UNL     1       3.694  -2.012  -0.552  0.00  0.00    +0.129 C 
ENDBRANCH  32  35
ENDBRANCH   5  29
TORSDOF 4
