REMARK  Name = ZINC12572620
REMARK  11 active torsions:
REMARK  status: ('A' for Active; 'I' for Inactive)
REMARK    1  A    between atoms: C_1  and  C_2
REMARK    2  A    between atoms: C_4  and  O_9
REMARK    3  A    between atoms: O_9  and  C_10
REMARK    4  A    between atoms: C_10  and  C_11
REMARK    5  A    between atoms: N_13  and  N_14
REMARK    6  A    between atoms: N_14  and  C_15
REMARK    7  A    between atoms: C_15  and  N_17
REMARK    8  A    between atoms: C_18  and  C_20
REMARK    9  A    between atoms: C_20  and  O_21
REMARK   10  A    between atoms: O_21  and  C_22
REMARK   11  A    between atoms: C_25  and  N_28
REMARK                            x       y       z     vdW  Elec       q    Type
REMARK                         _______ _______ _______ _____ _____    ______ ____
ROOT
ATOM      1  C   UNL     1      -3.183  -3.667   0.013  0.00  0.00    +0.153 C 
ATOM      2  S   UNL     1      -4.789  -4.260   0.025  0.00  0.00    -0.017 S 
ENDROOT
BRANCH   1   3
ATOM      3  N   UNL     1      -2.147  -4.529  -0.002  0.00  0.00    -0.264 N 
ATOM      4  C   UNL     1      -2.375  -5.857  -0.007  0.00  0.00    +0.256 C 
ATOM      5  O   UNL     1      -3.512  -6.277   0.002  0.00  0.00    -0.272 OA
ATOM      6  H   UNL     1      -1.236  -4.193  -0.009  0.00  0.00    +0.157 HD
BRANCH   4   7
ATOM      7  C   UNL     1      -1.216  -6.821  -0.023  0.00  0.00    +0.324 C 
BRANCH   7   8
ATOM      8  O   UNL     1      -1.712  -8.161  -0.025  0.00  0.00    -0.483 OA
BRANCH   8   9
ATOM      9  C   UNL     1      -0.790  -9.160  -0.040  0.00  0.00    +0.121 A 
ATOM     10  C   UNL     1       0.564  -8.855  -0.057  0.00  0.00    +0.048 A 
ATOM     11  C   UNL     1       1.499  -9.872  -0.066  0.00  0.00    +0.036 A 
ATOM     12  C   UNL     1       1.087 -11.192  -0.069  0.00  0.00    +0.126 A 
ATOM     13  C   UNL     1      -0.261 -11.498  -0.058  0.00  0.00    +0.036 A 
ATOM     14  C   UNL     1      -1.200 -10.485  -0.043  0.00  0.00    +0.048 A 
BRANCH  12  15
ATOM     15  N   UNL     1       2.091 -12.279  -0.085  0.00  0.00    +0.056 N 
ATOM     16  O   UNL     1       1.729 -13.442  -0.087  0.00  0.00    -0.126 OA
ATOM     17  O   UNL     1       3.279 -12.011  -0.095  0.00  0.00    -0.126 OA
ENDBRANCH  12  15
ENDBRANCH   8   9
ENDBRANCH   7   8
ENDBRANCH   4   7
ENDBRANCH   1   3
BRANCH   1  18
ATOM     18  N   UNL     1      -2.954  -2.339   0.018  0.00  0.00    -0.245 N 
ATOM     19  H   UNL     1      -3.700  -1.719   0.028  0.00  0.00    +0.172 HD
BRANCH  18  22
ATOM     20  C   UNL     1      -1.412  -0.526   0.013  0.00  0.00    +0.267 C 
ATOM     21  O   UNL     1      -2.344   0.250   0.026  0.00  0.00    -0.271 OA
ATOM     22  N   UNL     1      -1.640  -1.854   0.008  0.00  0.00    -0.232 N 
ATOM     23  H   UNL     1      -0.894  -2.474  -0.003  0.00  0.00    +0.173 HD
BRANCH  20  24
ATOM     24  C   UNL     1       0.002  -0.004   0.002  0.00  0.00    +0.326 C 
BRANCH  24  25
ATOM     25  O   UNL     1      -0.017   1.425   0.010  0.00  0.00    -0.483 OA
BRANCH  25  29
ATOM     26  C   UNL     1       2.524   5.592   0.007  0.00  0.00    +0.045 C 
ATOM     27  C   UNL     1       2.463   4.086   0.000  0.00  0.00    -0.033 A 
ATOM     28  C   UNL     1       1.240   3.444   0.009  0.00  0.00    +0.050 A 
ATOM     29  C   UNL     1       1.185   2.058   0.002  0.00  0.00    +0.122 A 
ATOM     30  C   UNL     1       2.360   1.319  -0.008  0.00  0.00    +0.047 A 
ATOM     31  C   UNL     1       3.580   1.965  -0.022  0.00  0.00    +0.019 A 
ATOM     32  C   UNL     1       3.633   3.348  -0.015  0.00  0.00    +0.021 A 
ATOM     33 BR   UNL     1       5.306   4.229  -0.027  0.00  0.00    -0.050 Br
ENDBRANCH  25  29
ENDBRANCH  24  25
ENDBRANCH  20  24
ENDBRANCH  18  22
ENDBRANCH   1  18
TORSDOF 10
