REMARK  Name = ZINC46874868
REMARK  8 active torsions:
REMARK  status: ('A' for Active; 'I' for Inactive)
REMARK    1  A    between atoms: C_1  and  C_2
REMARK    2  A    between atoms: C_2  and  C_3
REMARK    3  A    between atoms: C_2  and  C_4
REMARK    4  A    between atoms: C_2  and  C_20
REMARK    5  A    between atoms: C_4  and  N_5
REMARK    6  A    between atoms: N_8  and  C_9
REMARK    7  A    between atoms: N_8  and  C_10
REMARK    8  A    between atoms: C_10  and  C_11
REMARK                            x       y       z     vdW  Elec       q    Type
REMARK                         _______ _______ _______ _____ _____    ______ ____
ROOT
ATOM      1  N   UNL     1      -2.119  -0.061   1.218  0.00  0.00    -0.298 N 
ATOM      2  C   UNL     1      -3.403  -0.406   1.442  0.00  0.00    +0.302 C 
ATOM      3  O   UNL     1      -3.992  -1.108   0.643  0.00  0.00    -0.253 OA
ATOM      4  N   UNL     1      -4.034   0.029   2.551  0.00  0.00    -0.284 N 
ATOM      5  C   UNL     1      -3.324   0.876   3.513  0.00  0.00    +0.134 C 
ATOM      6  H   UNL     1      -1.649   0.499   1.855  0.00  0.00    +0.150 HD
ENDROOT
BRANCH   1   7
ATOM      7  C   UNL     1      -1.433  -0.534   0.013  0.00  0.00    +0.116 C 
BRANCH   7   9
ATOM      8  C   UNL     1      -0.019   1.526   0.010  0.00  0.00    +0.017 C 
ATOM      9  C   UNL     1       0.002  -0.004   0.002  0.00  0.00    +0.006 C 
ATOM     10  C   UNL     1       0.742  -0.511   1.242  0.00  0.00    +0.017 C 
BRANCH   9  11
ATOM     11  C   UNL     1       0.707  -0.490  -1.238  0.00  0.00    -0.040 A 
ATOM     12  C   UNL     1       0.036  -1.284  -2.148  0.00  0.00    +0.004 A 
ATOM     13  C   UNL     1       0.683  -1.730  -3.286  0.00  0.00    +0.000 A 
ATOM     14  C   UNL     1       2.001  -1.381  -3.513  0.00  0.00    +0.000 A 
ATOM     15  C   UNL     1       2.672  -0.586  -2.603  0.00  0.00    +0.000 A 
ATOM     16  C   UNL     1       2.024  -0.137  -1.467  0.00  0.00    +0.004 A 
ENDBRANCH   9  11
ENDBRANCH   7   9
ENDBRANCH   1   7
BRANCH   4  17
ATOM     17  C   UNL     1      -5.429  -0.345   2.794  0.00  0.00    +0.144 C 
BRANCH  17  18
ATOM     18  C   UNL     1      -5.475  -1.631   3.577  0.00  0.00    -0.026 A 
ATOM     19  C   UNL     1      -5.501  -2.843   2.913  0.00  0.00    +0.009 A 
ATOM     20  C   UNL     1      -5.543  -4.026   3.627  0.00  0.00    +0.050 A 
ATOM     21  C   UNL     1      -5.559  -4.000   5.012  0.00  0.00    +0.166 A 
ATOM     22  C   UNL     1      -5.532  -2.779   5.682  0.00  0.00    +0.167 A 
ATOM     23  C   UNL     1      -5.484  -1.597   4.959  0.00  0.00    +0.054 A 
ATOM     24  O   UNL     1      -5.555  -3.018   7.025  0.00  0.00    -0.453 OA
ATOM     25  C   UNL     1      -6.007  -4.377   7.167  0.00  0.00    +0.466 C 
ATOM     26  O   UNL     1      -5.598  -5.003   5.936  0.00  0.00    -0.453 OA
ENDBRANCH  17  18
ENDBRANCH   4  17
TORSDOF 5
