REMARK  Name = ZINC39653113
REMARK  9 active torsions:
REMARK  status: ('A' for Active; 'I' for Inactive)
REMARK    1  A    between atoms: C_1  and  O_2
REMARK    2  A    between atoms: O_2  and  C_3
REMARK    3  A    between atoms: C_5  and  C_11
REMARK    4  A    between atoms: C_7  and  O_9
REMARK    5  A    between atoms: O_9  and  C_10
REMARK    6  A    between atoms: C_11  and  C_12
REMARK    7  A    between atoms: C_12  and  N_13
REMARK    8  A    between atoms: C_14  and  C_16
REMARK    9  A    between atoms: C_27  and  C_29
REMARK                            x       y       z     vdW  Elec       q    Type
REMARK                         _______ _______ _______ _____ _____    ______ ____
ROOT
ATOM      1  C   UNL     1      -2.541  -7.843   2.947  0.00  0.00    +0.100 C 
ATOM      2  C   UNL     1      -1.492  -8.526   2.042  0.00  0.00    +0.121 C 
ATOM      3  N   UNL     1      -0.456  -9.023   2.977  0.00  0.00    -0.296 N 
ATOM      4  C   UNL     1      -1.223  -9.524   4.144  0.00  0.00    +0.115 C 
ATOM      5  C   UNL     1      -2.364  -8.503   4.325  0.00  0.00    -0.004 C 
ATOM      6  C   UNL     1      -3.648  -9.214   4.740  0.00  0.00    -0.010 C 
ATOM      7  C   UNL     1      -3.466  -9.812   6.137  0.00  0.00    -0.082 C 
ATOM      8  N   UNL     1      -3.145  -8.744   7.091  0.00  0.00    +0.379 N 
ATOM      9  C   UNL     1      -1.861  -8.127   6.738  0.00  0.00    -0.082 C 
ATOM     10  C   UNL     1      -1.974  -7.457   5.365  0.00  0.00    -0.010 C 
ATOM     11  C   UNL     1       0.881  -9.021   2.807  0.00  0.00    +0.249 C 
ATOM     12  O   UNL     1       1.599  -9.552   3.631  0.00  0.00    -0.270 OA
ATOM     13  H   UNL     1      -3.871  -8.044   7.067  0.00  0.00    -0.086 HD
ATOM     14  H   UNL     1      -3.086  -9.132   8.021  0.00  0.00    -0.086 HD
ENDROOT
BRANCH  11  15
ATOM     15  C   UNL     1       1.472  -8.373   1.619  0.00  0.00    +0.073 A 
ATOM     16  C   UNL     1       0.806  -8.413   0.393  0.00  0.00    +0.036 A 
ATOM     17  C   UNL     1       1.364  -7.805  -0.713  0.00  0.00    +0.042 A 
ATOM     18  C   UNL     1       2.583  -7.155  -0.610  0.00  0.00    +0.023 A 
ATOM     19  C   UNL     1       3.250  -7.111   0.600  0.00  0.00    +0.040 A 
ATOM     20  C   UNL     1       2.700  -7.711   1.718  0.00  0.00    +0.136 A 
ATOM     21  F   UNL     1       3.350  -7.662   2.902  0.00  0.00    -0.205 F 
ATOM     22 CL   UNL     1       0.536  -7.855  -2.238  0.00  0.00    -0.084 Cl
ENDBRANCH  11  15
BRANCH   1  24
ATOM     23  N   UNL     1      -3.287  -5.507   3.274  0.00  0.00    -0.315 N 
ATOM     24  C   UNL     1      -2.273  -6.362   3.036  0.00  0.00    +0.218 C 
ATOM     25  O   UNL     1      -1.144  -5.941   2.894  0.00  0.00    -0.275 OA
ATOM     26  H   UNL     1      -4.189  -5.844   3.387  0.00  0.00    +0.149 HD
BRANCH  23  27
ATOM     27  C   UNL     1      -3.026  -4.068   3.360  0.00  0.00    +0.109 C 
BRANCH  27  28
ATOM     28  C   UNL     1      -4.336  -3.328   3.635  0.00  0.00    +0.054 C 
BRANCH  28  31
ATOM     29  C   UNL     1      -3.886   0.298   2.666  0.00  0.00    +0.124 A 
ATOM     30  C   UNL     1      -4.133  -1.065   2.586  0.00  0.00    +0.049 A 
ATOM     31  C   UNL     1      -4.068  -1.847   3.724  0.00  0.00    -0.039 A 
ATOM     32  C   UNL     1      -3.758  -1.274   4.942  0.00  0.00    +0.049 A 
ATOM     33  C   UNL     1      -3.510   0.088   5.027  0.00  0.00    +0.124 A 
ATOM     34  C   UNL     1      -3.569   0.874   3.886  0.00  0.00    +0.091 A 
BRANCH  29  36
ATOM     35  C   UNL     1      -3.679   2.462   1.702  0.00  0.00    +0.277 C 
ATOM     36  O   UNL     1      -3.950   1.067   1.547  0.00  0.00    -0.495 OA
ENDBRANCH  29  36
BRANCH  33  37
ATOM     37  O   UNL     1      -3.206   0.651   6.226  0.00  0.00    -0.495 OA
ATOM     38  C   UNL     1      -2.963   2.059   6.238  0.00  0.00    +0.277 C 
ENDBRANCH  33  37
ENDBRANCH  28  31
ENDBRANCH  27  28
ENDBRANCH  23  27
ENDBRANCH   1  24
TORSDOF 7
