REMARK  Name = ZINC63373040
REMARK  5 active torsions:
REMARK  status: ('A' for Active; 'I' for Inactive)
REMARK    1  A    between atoms: C_1  and  C_2
REMARK    2  A    between atoms: C_7  and  N_8
REMARK    3  A    between atoms: C_11  and  C_18
REMARK    4  A    between atoms: C_25  and  O_30
REMARK    5  A    between atoms: O_30  and  C_31
REMARK                            x       y       z     vdW  Elec       q    Type
REMARK                         _______ _______ _______ _____ _____    ______ ____
ROOT
ATOM      1  N   UNL     1       0.025  -0.013   2.418  0.00  0.00    -0.228 N 
ATOM      2  C   UNL     1      -1.144   0.296   3.014  0.00  0.00    +0.270 A 
ATOM      3  O   UNL     1      -2.200  -0.024   2.496  0.00  0.00    -0.267 OA
ATOM      4  C   UNL     1      -1.136   0.991   4.237  0.00  0.00    +0.101 A 
ATOM      5  C   UNL     1       0.058   1.337   4.795  0.00  0.00    +0.263 A 
ATOM      6  N   UNL     1       1.225   1.002   4.155  0.00  0.00    -0.274 N 
ATOM      7  H   UNL     1       2.077   1.246   4.548  0.00  0.00    +0.173 HD
ATOM      8  C   UNL     1       1.194   0.332   2.988  0.00  0.00    +0.337 A 
ATOM      9  O   UNL     1       2.238   0.040   2.438  0.00  0.00    -0.246 OA
ATOM     10  O   UNL     1       0.093   2.004   5.968  0.00  0.00    -0.267 OA
ENDROOT
BRANCH   4  11
ATOM     11  C   UNL     1      -2.431   1.347   4.920  0.00  0.00    +0.121 C 
ATOM     12  C   UNL     1      -3.219   2.331   4.051  0.00  0.00    +0.128 C 
ATOM     13  C   UNL     1      -4.575   2.504   4.726  0.00  0.00    -0.035 C 
ATOM     14  C   UNL     1      -4.742   3.806   4.904  0.00  0.00    +0.003 A 
ATOM     15  C   UNL     1      -5.872   4.593   5.422  0.00  0.00    +0.055 A 
ATOM     16  C   UNL     1      -5.700   5.942   5.485  0.00  0.00    +0.121 A 
ATOM     17  C   UNL     1      -4.527   6.602   5.090  0.00  0.00    +0.047 A 
ATOM     18  C   UNL     1      -3.429   5.977   4.594  0.00  0.00    +0.029 A 
ATOM     19  C   UNL     1      -3.496   4.514   4.473  0.00  0.00    +0.043 A 
ATOM     20  N   UNL     1      -2.608   3.659   4.009  0.00  0.00    -0.376 N 
ATOM     21  C   UNL     1      -5.409   1.317   5.144  0.00  0.00    +0.048 C 
ATOM     22  C   UNL     1      -4.457   0.367   5.895  0.00  0.00    +0.086 C 
ATOM     23  N   UNL     1      -3.245   0.136   5.104  0.00  0.00    -0.307 NA
ATOM     24  H   UNL     1      -3.470  -0.287   4.215  0.00  0.00    +0.123 HD
ATOM     25  H   UNL     1      -1.711   3.861   3.699  0.00  0.00    +0.160 HD
BRANCH  16  26
ATOM     26  O   UNL     1      -6.728   6.695   5.958  0.00  0.00    -0.495 OA
ATOM     27  C   UNL     1      -6.524   8.108   6.015  0.00  0.00    +0.277 C 
ENDBRANCH  16  26
ENDBRANCH   4  11
BRANCH   1  34
ATOM     28  C   UNL     1      -0.018   1.503   0.010  0.00  0.00    +0.046 C 
ATOM     29  C   UNL     1       0.002  -0.004   0.002  0.00  0.00    -0.026 A 
ATOM     30  C   UNL     1       0.006  -0.689  -1.198  0.00  0.00    +0.005 A 
ATOM     31  C   UNL     1       0.024  -2.071  -1.206  0.00  0.00    +0.000 A 
ATOM     32  C   UNL     1       0.039  -2.773  -0.014  0.00  0.00    +0.002 A 
ATOM     33  C   UNL     1       0.035  -2.094   1.188  0.00  0.00    +0.026 A 
ATOM     34  C   UNL     1       0.023  -0.705   1.200  0.00  0.00    +0.057 A 
ENDBRANCH   1  34
TORSDOF 3
