REMARK  Name = ZINC40719317
REMARK  9 active torsions:
REMARK  status: ('A' for Active; 'I' for Inactive)
REMARK    1  A    between atoms: C_1  and  O_2
REMARK    2  A    between atoms: O_2  and  C_3
REMARK    3  A    between atoms: C_5  and  C_20
REMARK    4  A    between atoms: C_8  and  O_9
REMARK    5  A    between atoms: O_9  and  C_10
REMARK    6  A    between atoms: C_10  and  C_11
REMARK    7  A    between atoms: C_20  and  N_21
REMARK    8  A    between atoms: N_21  and  C_22
REMARK    9  A    between atoms: C_22  and  C_23
REMARK                            x       y       z     vdW  Elec       q    Type
REMARK                         _______ _______ _______ _____ _____    ______ ____
ROOT
ATOM      1  C   UNL     1       0.606  -0.608  -1.056  0.00  0.00    +0.163 A 
ATOM      2  C   UNL     1       1.173   0.159  -2.062  0.00  0.00    +0.051 A 
ATOM      3  C   UNL     1       1.786  -0.455  -3.138  0.00  0.00    -0.060 A 
ATOM      4  C   UNL     1       1.836  -1.835  -3.214  0.00  0.00    +0.021 A 
ATOM      5  C   UNL     1       1.273  -2.606  -2.213  0.00  0.00    +0.063 A 
ATOM      6  C   UNL     1       0.662  -1.996  -1.129  0.00  0.00    +0.176 A 
ATOM      7 BR   UNL     1       1.342  -4.493  -2.321  0.00  0.00    -0.046 Br
ENDROOT
BRANCH   1   9
ATOM      8  C   UNL     1      -0.017   1.425   0.010  0.00  0.00    +0.277 C 
ATOM      9  O   UNL     1       0.002  -0.004   0.002  0.00  0.00    -0.491 OA
ENDBRANCH   1   9
BRANCH   6  10
ATOM     10  O   UNL     1       0.112  -2.752  -0.141  0.00  0.00    -0.483 OA
BRANCH  10  11
ATOM     11  C   UNL     1      -1.259  -3.125  -0.296  0.00  0.00    +0.266 C 
BRANCH  11  12
ATOM     12  C   UNL     1      -1.691  -3.954   0.885  0.00  0.00    +0.008 A 
ATOM     13  C   UNL     1      -0.794  -4.231   1.900  0.00  0.00    +0.010 A 
ATOM     14  C   UNL     1      -1.189  -4.992   2.984  0.00  0.00    +0.020 A 
ATOM     15  C   UNL     1      -2.484  -5.476   3.055  0.00  0.00    +0.042 A 
ATOM     16  C   UNL     1      -3.382  -5.198   2.040  0.00  0.00    +0.040 A 
ATOM     17  C   UNL     1      -2.987  -4.433   0.958  0.00  0.00    +0.049 A 
ATOM     18 CL   UNL     1      -4.115  -4.079  -0.313  0.00  0.00    -0.083 Cl
ATOM     19 CL   UNL     1      -2.980  -6.431   4.416  0.00  0.00    -0.083 Cl
ENDBRANCH  11  12
ENDBRANCH  10  11
ENDBRANCH   6  10
BRANCH   3  20
ATOM     20  C   UNL     1       2.401   0.380  -4.231  0.00  0.00    -0.047 C 
BRANCH  20  21
ATOM     21  N   UNL     1       3.806   0.659  -3.903  0.00  0.00    +0.382 N 
ATOM     22  H   UNL     1       3.854   1.160  -3.028  0.00  0.00    -0.085 HD
ATOM     23  H   UNL     1       4.311  -0.211  -3.820  0.00  0.00    -0.085 HD
BRANCH  21  24
ATOM     24  C   UNL     1       4.405   1.473  -4.968  0.00  0.00    -0.079 C 
BRANCH  24  25
ATOM     25  C   UNL     1       5.868   1.763  -4.626  0.00  0.00    -0.032 C 
ATOM     26  C   UNL     1       5.938   2.639  -3.372  0.00  0.00    -0.018 C 
ATOM     27  C   UNL     1       7.398   2.990  -3.082  0.00  0.00    -0.082 C 
ATOM     28  N   UNL     1       7.965   3.721  -4.222  0.00  0.00    +0.379 N 
ATOM     29  C   UNL     1       7.968   2.861  -5.412  0.00  0.00    -0.082 C 
ATOM     30  C   UNL     1       6.529   2.505  -5.792  0.00  0.00    -0.018 C 
ATOM     31  H   UNL     1       7.409   4.543  -4.403  0.00  0.00    -0.086 HD
ATOM     32  H   UNL     1       8.911   3.997  -4.006  0.00  0.00    -0.086 HD
ENDBRANCH  24  25
ENDBRANCH  21  24
ENDBRANCH  20  21
ENDBRANCH   3  20
TORSDOF 8
