REMARK  Name = ZINC14457596
REMARK  9 active torsions:
REMARK  status: ('A' for Active; 'I' for Inactive)
REMARK    1  A    between atoms: C_1  and  C_2
REMARK    2  A    between atoms: C_5  and  N_9
REMARK    3  A    between atoms: C_7  and  C_8
REMARK    4  A    between atoms: N_9  and  S_10
REMARK    5  A    between atoms: S_10  and  C_13
REMARK    6  A    between atoms: C_26  and  C_29
REMARK    7  A    between atoms: C_30  and  C_37
REMARK    8  A    between atoms: C_32  and  C_36
REMARK    9  A    between atoms: C_34  and  C_35
REMARK                            x       y       z     vdW  Elec       q    Type
REMARK                         _______ _______ _______ _____ _____    ______ ____
ROOT
ATOM      1  C   UNL     1      -5.408   1.679  -0.801  0.00  0.00    +0.109 A 
ATOM      2  C   UNL     1      -4.773   2.573   0.042  0.00  0.00    +0.030 A 
ATOM      3  C   UNL     1      -4.999   3.928  -0.087  0.00  0.00    +0.025 A 
ATOM      4  C   UNL     1      -5.874   4.404  -1.056  0.00  0.00    +0.031 A 
ATOM      5  C   UNL     1      -6.508   3.494  -1.910  0.00  0.00    -0.018 A 
ATOM      6  C   UNL     1      -6.274   2.143  -1.774  0.00  0.00    +0.034 A 
ATOM      7  C   UNL     1      -7.407   4.044  -2.947  0.00  0.00    +0.049 C 
ATOM      8  C   UNL     1      -8.544   3.263  -3.497  0.00  0.00    -0.023 C 
ATOM      9  C   UNL     1      -9.512   4.106  -3.836  0.00  0.00    -0.030 C 
ATOM     10  C   UNL     1      -9.099   5.540  -3.501  0.00  0.00    +0.033 C 
ATOM     11  C   UNL     1      -8.116   5.298  -2.353  0.00  0.00    +0.029 C 
ATOM     12  C   UNL     1      -7.021   6.335  -2.174  0.00  0.00    +0.105 C 
ATOM     13  N   UNL     1      -6.110   5.781  -1.149  0.00  0.00    -0.336 N 
ATOM     14  H   UNL     1      -5.669   6.383  -0.529  0.00  0.00    +0.147 HD
ENDROOT
BRANCH  12  15
ATOM     15  C   UNL     1      -6.284   6.543  -3.472  0.00  0.00    -0.021 A 
ATOM     16  C   UNL     1      -5.040   5.971  -3.659  0.00  0.00    -0.045 A 
ATOM     17  C   UNL     1      -4.365   6.158  -4.851  0.00  0.00    +0.007 A 
ATOM     18  C   UNL     1      -4.932   6.924  -5.853  0.00  0.00    -0.050 A 
ATOM     19  C   UNL     1      -6.174   7.500  -5.664  0.00  0.00    +0.007 A 
ATOM     20  C   UNL     1      -6.850   7.310  -4.473  0.00  0.00    -0.045 A 
ATOM     21  C   UNL     1      -8.205   7.938  -4.267  0.00  0.00    +0.044 C 
ATOM     22  C   UNL     1      -4.195   7.131  -7.151  0.00  0.00    +0.044 C 
ATOM     23  C   UNL     1      -4.420   5.140  -2.565  0.00  0.00    +0.044 C 
ENDBRANCH  12  15
BRANCH   1  24
ATOM     24  S   UNL     1      -5.119  -0.051  -0.631  0.00  0.00    +0.072 S 
ATOM     25  O   UNL     1      -6.195  -0.709  -1.286  0.00  0.00    -0.150 OA
ATOM     26  O   UNL     1      -4.807  -0.277   0.737  0.00  0.00    -0.150 OA
BRANCH  24  27
ATOM     27  N   UNL     1      -3.752  -0.406  -1.494  0.00  0.00    -0.216 N 
ATOM     28  H   UNL     1      -2.972  -0.764  -1.042  0.00  0.00    +0.174 HD
BRANCH  27  33
ATOM     29  C   UNL     1      -3.620   0.460  -7.096  0.00  0.00    +0.044 C 
ATOM     30  C   UNL     1      -3.656   0.233  -5.607  0.00  0.00    -0.047 A 
ATOM     31  C   UNL     1      -4.747  -0.393  -5.031  0.00  0.00    +0.005 A 
ATOM     32  C   UNL     1      -4.784  -0.603  -3.667  0.00  0.00    +0.025 A 
ATOM     33  C   UNL     1      -3.720  -0.190  -2.873  0.00  0.00    +0.048 A 
ATOM     34  C   UNL     1      -2.629   0.443  -3.455  0.00  0.00    +0.028 A 
ATOM     35  C   UNL     1      -2.599   0.650  -4.820  0.00  0.00    -0.046 A 
ATOM     36  C   UNL     1      -1.413   1.331  -5.452  0.00  0.00    +0.044 C 
ENDBRANCH  27  33
ENDBRANCH  24  27
ENDBRANCH   1  24
TORSDOF 4
