REMARK  Name = ZINC63270294
REMARK  6 active torsions:
REMARK  status: ('A' for Active; 'I' for Inactive)
REMARK    1  A    between atoms: C_1  and  C_2
REMARK    2  A    between atoms: C_3  and  C_34
REMARK    3  A    between atoms: N_11  and  C_26
REMARK    4  A    between atoms: C_12  and  S_15
REMARK    5  A    between atoms: S_15  and  C_16
REMARK    6  A    between atoms: C_16  and  C_17
REMARK                            x       y       z     vdW  Elec       q    Type
REMARK                         _______ _______ _______ _____ _____    ______ ____
ROOT
ATOM      1  C   UNL     1      -0.003   1.502  -0.001  0.00  0.00    +0.041 C 
ATOM      2  C   UNL     1       0.012  -0.005  -0.005  0.00  0.00    -0.049 C 
ATOM      3  C   UNL     1       0.017  -0.667  -1.148  0.00  0.00    -0.016 C 
ATOM      4  S   UNL     1       0.051  -2.396  -0.709  0.00  0.00    -0.110 S 
ATOM      5  C   UNL     1       0.482  -2.215   1.076  0.00  0.00    +0.135 C 
ATOM      6  C   UNL     1       0.028  -0.761   1.282  0.00  0.00    +0.129 C 
ATOM      7  C   UNL     1       0.833  -0.069   2.331  0.00  0.00    +0.231 C 
ATOM      8  O   UNL     1       0.448   1.008   2.737  0.00  0.00    -0.274 OA
ATOM      9  N   UNL     1       1.956  -0.577   2.846  0.00  0.00    -0.245 N 
ATOM     10  C   UNL     1       2.484  -1.875   2.461  0.00  0.00    +0.210 C 
ATOM     11  N   UNL     1       1.921  -2.366   1.218  0.00  0.00    -0.277 NA
ATOM     12  C   UNL     1      -0.004  -0.083  -2.537  0.00  0.00    +0.051 C 
ATOM     13  H   UNL     1       2.204  -3.317   1.034  0.00  0.00    +0.126 HD
ENDROOT
BRANCH   9  14
ATOM     14  C   UNL     1       2.656   0.174   3.798  0.00  0.00    +0.040 A 
ATOM     15  C   UNL     1       3.222   1.392   3.443  0.00  0.00    +0.025 A 
ATOM     16  C   UNL     1       3.911   2.132   4.384  0.00  0.00    +0.023 A 
ATOM     17  C   UNL     1       4.038   1.661   5.679  0.00  0.00    +0.059 A 
ATOM     18  C   UNL     1       3.475   0.448   6.035  0.00  0.00    +0.061 A 
ATOM     19  C   UNL     1       2.779  -0.294   5.099  0.00  0.00    +0.045 A 
ATOM     20 CL   UNL     1       3.637  -0.140   7.661  0.00  0.00    -0.082 Cl
ATOM     21 CL   UNL     1       4.905   2.594   6.859  0.00  0.00    -0.082 Cl
ENDBRANCH   9  14
BRANCH  10  22
ATOM     22  S   UNL     1       4.286  -1.749   2.291  0.00  0.00    -0.119 S 
BRANCH  22  23
ATOM     23  C   UNL     1       4.518  -0.498   0.998  0.00  0.00    +0.119 C 
BRANCH  23  24
ATOM     24  C   UNL     1       6.014  -0.291   0.751  0.00  0.00    +0.184 C 
ATOM     25  N   UNL     1       6.646  -1.566   0.390  0.00  0.00    -0.363 N 
ATOM     26  C   UNL     1       7.550  -1.822   1.291  0.00  0.00    +0.060 A 
ATOM     27  C   UNL     1       8.495  -2.933   1.471  0.00  0.00    +0.027 A 
ATOM     28  C   UNL     1       9.334  -2.929   2.526  0.00  0.00    +0.002 A 
ATOM     29  C   UNL     1       9.348  -1.896   3.480  0.00  0.00    +0.002 A 
ATOM     30  C   UNL     1       8.523  -0.832   3.410  0.00  0.00    +0.027 A 
ATOM     31  C   UNL     1       7.565  -0.728   2.300  0.00  0.00    +0.060 A 
ATOM     32  N   UNL     1       6.670   0.162   1.984  0.00  0.00    -0.363 N 
ATOM     33  H   UNL     1       6.430  -2.116  -0.378  0.00  0.00    +0.162 HD
ATOM     34  H   UNL     1       6.473   0.977   2.473  0.00  0.00    +0.162 HD
ENDBRANCH  23  24
ENDBRANCH  22  23
ENDBRANCH  10  22
TORSDOF 4
