REMARK  Name = ZINC33301993
REMARK  11 active torsions:
REMARK  status: ('A' for Active; 'I' for Inactive)
REMARK    1  A    between atoms: C_1  and  C_2
REMARK    2  A    between atoms: C_2  and  C_3
REMARK    3  A    between atoms: C_6  and  S_9
REMARK    4  A    between atoms: S_9  and  C_12
REMARK    5  A    between atoms: C_17  and  N_18
REMARK    6  A    between atoms: C_22  and  N_25
REMARK    7  A    between atoms: C_26  and  O_28
REMARK    8  A    between atoms: O_28  and  C_29
REMARK    9  A    between atoms: C_29  and  C_30
REMARK   10  A    between atoms: C_29  and  C_31
REMARK   11  A    between atoms: C_29  and  C_32
REMARK                            x       y       z     vdW  Elec       q    Type
REMARK                         _______ _______ _______ _____ _____    ______ ____
ROOT
ATOM      1  C   UNL     1       1.123   4.140   1.795  0.00  0.00    +0.151 A 
ATOM      2  C   UNL     1       2.095   4.935   2.371  0.00  0.00    +0.145 A 
ATOM      3  N   UNL     1       1.850   5.515   3.537  0.00  0.00    -0.221 NA
ATOM      4  C   UNL     1       0.689   5.343   4.153  0.00  0.00    +0.220 A 
ATOM      5  N   UNL     1      -0.268   4.589   3.634  0.00  0.00    -0.198 NA
ATOM      6  C   UNL     1      -0.092   3.982   2.464  0.00  0.00    +0.147 A 
ATOM      7  N   UNL     1       0.472   5.966   5.370  0.00  0.00    -0.299 N 
ATOM      8  C   UNL     1       0.104   4.989   6.402  0.00  0.00    +0.110 C 
ATOM      9  C   UNL     1      -0.269   5.725   7.692  0.00  0.00    +0.041 C 
ATOM     10  C   UNL     1       0.924   6.564   8.158  0.00  0.00    +0.079 C 
ATOM     11  C   UNL     1       1.318   7.539   7.046  0.00  0.00    +0.041 C 
ATOM     12  C   UNL     1       1.645   6.751   5.775  0.00  0.00    +0.110 C 
ENDROOT
BRANCH  10  13
ATOM     13  N   UNL     1       0.555   7.315   9.361  0.00  0.00    -0.278 N 
ATOM     14  C   UNL     1       0.660   6.739  10.574  0.00  0.00    +0.401 C 
ATOM     15  O   UNL     1       1.060   5.596  10.671  0.00  0.00    -0.226 OA
ATOM     16  H   UNL     1       0.193   8.350   9.273  0.00  0.00    +0.152 HD
BRANCH  14  17
ATOM     17  O   UNL     1       0.321   7.429  11.679  0.00  0.00    -0.445 OA
BRANCH  17  18
ATOM     18  C   UNL     1       0.459   6.745  12.952  0.00  0.00    +0.107 C 
ATOM     19  C   UNL     1       1.919   6.336  13.155  0.00  0.00    +0.055 C 
ATOM     20  C   UNL     1       0.030   7.682  14.084  0.00  0.00    +0.055 C 
ATOM     21  C   UNL     1      -0.426   5.498  12.960  0.00  0.00    +0.055 C 
ENDBRANCH  17  18
ENDBRANCH  14  17
ENDBRANCH  10  13
BRANCH   1  22
ATOM     22  S   UNL     1       1.408   3.351   0.245  0.00  0.00    +0.030 S 
ATOM     23  O   UNL     1       2.730   3.692  -0.148  0.00  0.00    -0.164 OA
ATOM     24  O   UNL     1       0.276   3.630  -0.567  0.00  0.00    -0.164 OA
BRANCH  22  28
ATOM     25  C   UNL     1       1.392  -1.113   0.994  0.00  0.00    -0.048 A 
ATOM     26  C   UNL     1       0.238  -0.479   0.574  0.00  0.00    +0.005 A 
ATOM     27  C   UNL     1       0.243   0.884   0.345  0.00  0.00    +0.027 A 
ATOM     28  C   UNL     1       1.401   1.613   0.537  0.00  0.00    +0.094 A 
ATOM     29  C   UNL     1       2.556   0.979   0.956  0.00  0.00    +0.027 A 
ATOM     30  C   UNL     1       2.551  -0.385   1.186  0.00  0.00    +0.005 A 
BRANCH  25  32
ATOM     31  C   UNL     1       1.757  -3.335  -0.045  0.00  0.00    +0.009 C 
ATOM     32  C   UNL     1       1.387  -2.600   1.245  0.00  0.00    +0.032 C 
ENDBRANCH  25  32
ENDBRANCH  22  28
ENDBRANCH   1  22
BRANCH   6  33
ATOM     33  N   UNL     1      -1.097   3.198   1.921  0.00  0.00    -0.341 N 
ATOM     34  H   UNL     1      -2.051   3.079   2.456  0.00  0.00    +0.144 HD
ATOM     35  H   UNL     1      -0.941   2.696   0.955  0.00  0.00    +0.144 HD
ENDBRANCH   6  33
TORSDOF 7
