REMARK  Name = ZINC35768924
REMARK  9 active torsions:
REMARK  status: ('A' for Active; 'I' for Inactive)
REMARK    1  A    between atoms: C_4  and  C_7
REMARK    2  A    between atoms: C_7  and  N_8
REMARK    3  A    between atoms: C_10  and  C_17
REMARK    4  A    between atoms: C_17  and  C_19
REMARK    5  A    between atoms: C_17  and  C_36
REMARK    6  A    between atoms: C_19  and  C_20
REMARK    7  A    between atoms: N_22  and  C_23
REMARK    8  A    between atoms: N_26  and  C_29
REMARK    9  A    between atoms: C_29  and  C_30
REMARK                            x       y       z     vdW  Elec       q    Type
REMARK                         _______ _______ _______ _____ _____    ______ ____
ROOT
ATOM      1  C   UNL     1       6.078  -0.080   4.352  0.00  0.00    +0.060 C 
ENDROOT
BRANCH   1   4
ATOM      2  N   UNL     1       4.152  -0.952   1.338  0.00  0.00    -0.342 N 
ATOM      3  C   UNL     1       5.008  -0.152   2.043  0.00  0.00    +0.091 A 
ATOM      4  C   UNL     1       5.204  -0.660   3.270  0.00  0.00    -0.014 A 
ATOM      5  C   UNL     1       4.408  -1.887   3.358  0.00  0.00    +0.004 A 
ATOM      6  C   UNL     1       3.761  -2.020   2.115  0.00  0.00    +0.050 A 
ATOM      7  C   UNL     1       2.918  -3.105   1.898  0.00  0.00    +0.026 A 
ATOM      8  C   UNL     1       2.724  -4.031   2.900  0.00  0.00    +0.002 A 
ATOM      9  C   UNL     1       3.362  -3.894   4.125  0.00  0.00    +0.001 A 
ATOM     10  C   UNL     1       4.201  -2.840   4.356  0.00  0.00    +0.010 A 
BRANCH   2  11
ATOM     11  C   UNL     1       3.711  -0.707  -0.038  0.00  0.00    +0.157 C 
BRANCH  11  15
ATOM     12  C   UNL     1      -0.017   1.378   0.010  0.00  0.00    +0.000 A 
ATOM     13  C   UNL     1       1.171   2.086   0.002  0.00  0.00    +0.000 A 
ATOM     14  C   UNL     1       2.377   1.411  -0.013  0.00  0.00    +0.005 A 
ATOM     15  C   UNL     1       2.396   0.029  -0.020  0.00  0.00    -0.028 A 
ATOM     16  C   UNL     1       1.208  -0.679  -0.012  0.00  0.00    +0.005 A 
ATOM     17  C   UNL     1       0.002  -0.004   0.002  0.00  0.00    +0.000 A 
ENDBRANCH  11  15
ENDBRANCH   2  11
ENDBRANCH   1   4
BRANCH   1  18
ATOM     18  C   UNL     1       5.589   1.302   4.705  0.00  0.00    -0.039 A 
ATOM     19  C   UNL     1       5.548   2.288   3.738  0.00  0.00    +0.004 A 
ATOM     20  C   UNL     1       5.099   3.555   4.062  0.00  0.00    +0.000 A 
ATOM     21  C   UNL     1       4.692   3.835   5.353  0.00  0.00    +0.000 A 
ATOM     22  C   UNL     1       4.733   2.848   6.320  0.00  0.00    +0.000 A 
ATOM     23  C   UNL     1       5.177   1.580   5.995  0.00  0.00    +0.004 A 
ENDBRANCH   1  18
BRANCH   1  24
ATOM     24  C   UNL     1       7.522   0.002   3.853  0.00  0.00    +0.108 C 
BRANCH  24  25
ATOM     25  C   UNL     1       8.415   0.467   4.974  0.00  0.00    +0.214 C 
ATOM     26  O   UNL     1       7.944   0.709   6.065  0.00  0.00    -0.276 OA
ATOM     27  N   UNL     1       9.739   0.614   4.764  0.00  0.00    -0.313 N 
ATOM     28  H   UNL     1      10.116   0.420   3.891  0.00  0.00    +0.149 HD
BRANCH  27  29
ATOM     29  C   UNL     1      10.607   1.065   5.854  0.00  0.00    +0.069 C 
ATOM     30  C   UNL     1      10.605   2.596   5.910  0.00  0.00    +0.003 C 
ATOM     31  C   UNL     1      11.575   3.062   6.997  0.00  0.00    -0.077 C 
ATOM     32  N   UNL     1      12.928   2.585   6.689  0.00  0.00    +0.382 N 
ATOM     33  C   UNL     1      12.954   1.117   6.704  0.00  0.00    -0.077 C 
ATOM     34  C   UNL     1      12.037   0.576   5.605  0.00  0.00    +0.003 C 
ATOM     35  H   UNL     1      13.200   2.915   5.775  0.00  0.00    -0.081 HD
BRANCH  32  36
ATOM     36  C   UNL     1      13.868   3.100   7.693  0.00  0.00    -0.043 C 
BRANCH  36  37
ATOM     37  C   UNL     1      15.274   2.713   7.310  0.00  0.00    -0.064 A 
ATOM     38  C   UNL     1      15.807   1.518   7.754  0.00  0.00    +0.002 A 
ATOM     39  C   UNL     1      17.096   1.163   7.403  0.00  0.00    +0.000 A 
ATOM     40  C   UNL     1      17.852   2.003   6.608  0.00  0.00    +0.000 A 
ATOM     41  C   UNL     1      17.319   3.199   6.163  0.00  0.00    +0.000 A 
ATOM     42  C   UNL     1      16.028   3.552   6.511  0.00  0.00    +0.002 A 
ENDBRANCH  36  37
ENDBRANCH  32  36
ENDBRANCH  27  29
ENDBRANCH  24  25
ENDBRANCH   1  24
TORSDOF 9
