REMARK  Name = ZINC03819269
REMARK  5 active torsions:
REMARK  status: ('A' for Active; 'I' for Inactive)
REMARK    1  A    between atoms: C_5  and  C_7
REMARK    2  A    between atoms: C_10  and  C_12
REMARK    3  A    between atoms: C_15  and  O_18
REMARK    4  A    between atoms: O_18  and  C_19
REMARK    5  A    between atoms: C_22  and  N_25
REMARK                            x       y       z     vdW  Elec       q    Type
REMARK                         _______ _______ _______ _____ _____    ______ ____
ROOT
ATOM      1  C   UNL     1      -5.734  -2.745   0.139  0.00  0.00    +0.221 A 
ATOM      2  C   UNL     1      -6.856  -3.537   0.342  0.00  0.00    +0.069 A 
ATOM      3  C   UNL     1      -8.095  -2.934   0.467  0.00  0.00    +0.030 A 
ATOM      4  C   UNL     1      -8.167  -1.544   0.383  0.00  0.00    +0.049 A 
ATOM      5  C   UNL     1      -7.003  -0.818   0.179  0.00  0.00    +0.137 A 
ATOM      6  N   UNL     1      -5.838  -1.429   0.070  0.00  0.00    -0.219 NA
ENDROOT
BRANCH   4   7
ATOM      7  N   UNL     1      -9.399  -0.890   0.503  0.00  0.00    -0.308 N 
ATOM      8  C   UNL     1     -10.494  -1.859   0.735  0.00  0.00    +0.107 C 
ATOM      9  C   UNL     1     -11.489  -1.117   1.662  0.00  0.00    +0.022 C 
ATOM     10  C   UNL     1     -10.528  -0.308   2.574  0.00  0.00    +0.046 C 
ATOM     11  C   UNL     1      -9.382   0.062   1.619  0.00  0.00    +0.189 C 
ATOM     12  C   UNL     1      -9.675   1.437   1.066  0.00  0.00    +0.253 C 
ATOM     13  O   UNL     1     -10.694   1.668   0.451  0.00  0.00    -0.272 OA
ATOM     14  N   UNL     1      -8.752   2.400   1.289  0.00  0.00    -0.238 N 
ATOM     15  C   UNL     1      -7.626   2.151   1.968  0.00  0.00    +0.312 C 
ATOM     16  O   UNL     1      -6.851   3.073   2.123  0.00  0.00    -0.252 OA
ATOM     17  N   UNL     1      -7.287   0.967   2.491  0.00  0.00    -0.238 N 
ATOM     18  C   UNL     1      -8.085  -0.118   2.371  0.00  0.00    +0.253 C 
ATOM     19  O   UNL     1      -7.773  -1.189   2.846  0.00  0.00    -0.272 OA
ATOM     20  H   UNL     1      -8.909   3.294   0.947  0.00  0.00    +0.159 HD
ATOM     21  H   UNL     1      -6.446   0.885   2.969  0.00  0.00    +0.159 HD
ENDBRANCH   4   7
BRANCH   1  22
ATOM     22  O   UNL     1      -4.514  -3.328   0.016  0.00  0.00    -0.438 OA
BRANCH  22  26
ATOM     23  C   UNL     1      -1.212  -0.870  -0.297  0.00  0.00    +0.037 A 
ATOM     24  C   UNL     1      -1.723  -1.503  -1.431  0.00  0.00    +0.017 A 
ATOM     25  C   UNL     1      -2.821  -2.328  -1.322  0.00  0.00    +0.047 A 
ATOM     26  C   UNL     1      -3.428  -2.519  -0.087  0.00  0.00    +0.130 A 
ATOM     27  C   UNL     1      -2.926  -1.886   1.043  0.00  0.00    +0.047 A 
ATOM     28  C   UNL     1      -1.824  -1.065   0.943  0.00  0.00    +0.017 A 
BRANCH  23  32
ATOM     29  C   UNL     1       1.642   1.110  -1.224  0.00  0.00    +0.112 A 
ATOM     30  C   UNL     1       1.593   1.365   0.107  0.00  0.00    +0.226 A 
ATOM     31  O   UNL     1       0.548   0.676   0.606  0.00  0.00    -0.443 OA
ATOM     32  C   UNL     1      -0.030   0.010  -0.409  0.00  0.00    +0.228 A 
ATOM     33  N   UNL     1       0.626   0.269  -1.514  0.00  0.00    -0.209 NA
BRANCH  29  38
ATOM     34  C   UNL     1       3.483   1.817  -4.425  0.00  0.00    +0.001 A 
ATOM     35  C   UNL     1       4.476   2.673  -3.984  0.00  0.00    +0.003 A 
ATOM     36  C   UNL     1       4.552   3.023  -2.649  0.00  0.00    +0.039 A 
ATOM     37  C   UNL     1       3.631   2.523  -1.748  0.00  0.00    +0.133 A 
ATOM     38  C   UNL     1       2.631   1.655  -2.187  0.00  0.00    +0.039 A 
ATOM     39  C   UNL     1       2.561   1.307  -3.534  0.00  0.00    +0.013 A 
ATOM     40  F   UNL     1       3.701   2.870  -0.444  0.00  0.00    -0.205 F 
ENDBRANCH  29  38
ENDBRANCH  23  32
ENDBRANCH  22  26
ENDBRANCH   1  22
TORSDOF 5
