REMARK  Name = ZINC13063761
REMARK  14 active torsions:
REMARK  status: ('A' for Active; 'I' for Inactive)
REMARK    1  A    between atoms: C_1  and  C_2
REMARK    2  A    between atoms: C_2  and  C_3
REMARK    3  A    between atoms: C_10  and  C_15
REMARK    4  A    between atoms: C_15  and  N_75
REMARK    5  A    between atoms: C_16  and  C_17
REMARK    6  A    between atoms: C_16  and  N_75
REMARK    7  A    between atoms: C_17  and  C_18
REMARK    8  A    between atoms: C_24  and  C_26
REMARK    9  A    between atoms: C_24  and  C_28
REMARK   10  A    between atoms: C_24  and  N_75
REMARK   11  A    between atoms: C_26  and  C_27
REMARK   12  A    between atoms: N_32  and  C_33
REMARK   13  A    between atoms: C_33  and  C_34
REMARK   14  A    between atoms: C_34  and  C_35
REMARK                            x       y       z     vdW  Elec       q    Type
REMARK                         _______ _______ _______ _____ _____    ______ ____
ROOT
ATOM      1  N   UNL     1       3.943  -0.207  -1.158  0.00  0.00    +0.389 N 
ATOM      2  H   UNL     1       3.687   0.015  -2.127  0.00  0.00    -0.080 HD
ENDROOT
BRANCH   1   3
ATOM      3  C   UNL     1       5.417  -0.218  -1.042  0.00  0.00    -0.037 C 
BRANCH   3  11
ATOM      4  C   UNL     1       7.848  -1.300  -6.628  0.00  0.00    -0.047 A 
ATOM      5  C   UNL     1       7.959  -2.677  -6.485  0.00  0.00    +0.005 A 
ATOM      6  C   UNL     1       7.557  -3.298  -5.323  0.00  0.00    +0.026 A 
ATOM      7  C   UNL     1       7.035  -2.540  -4.280  0.00  0.00    +0.049 A 
ATOM      8  C   UNL     1       6.924  -1.145  -4.428  0.00  0.00    -0.001 A 
ATOM      9  C   UNL     1       7.338  -0.535  -5.617  0.00  0.00    +0.013 A 
ATOM     10  C   UNL     1       6.373  -0.355  -3.325  0.00  0.00    +0.017 A 
ATOM     11  C   UNL     1       5.988  -1.000  -2.196  0.00  0.00    +0.001 A 
ATOM     12  C   UNL     1       6.126  -2.401  -2.096  0.00  0.00    +0.251 A 
ATOM     13  O   UNL     1       5.779  -2.961  -1.070  0.00  0.00    -0.268 OA
ATOM     14  N   UNL     1       6.626  -3.135  -3.106  0.00  0.00    -0.322 N 
ATOM     15  H   UNL     1       6.703  -4.097  -3.005  0.00  0.00    +0.169 HD
BRANCH   4  17
ATOM     16  C   UNL     1       9.771  -0.258  -7.797  0.00  0.00    +0.009 C 
ATOM     17  C   UNL     1       8.294  -0.644  -7.909  0.00  0.00    +0.032 C 
ENDBRANCH   4  17
ENDBRANCH   3  11
ENDBRANCH   1   3
BRANCH   1  18
ATOM     18  C   UNL     1       3.400  -1.536  -0.810  0.00  0.00    -0.073 C 
BRANCH  18  19
ATOM     19  C   UNL     1       1.922  -1.583  -1.204  0.00  0.00    +0.016 C 
BRANCH  19  20
ATOM     20  C   UNL     1       1.341  -2.919  -0.820  0.00  0.00    -0.049 A 
ATOM     21  C   UNL     1       1.454  -3.995  -1.681  0.00  0.00    +0.003 A 
ATOM     22  C   UNL     1       0.925  -5.222  -1.326  0.00  0.00    +0.000 A 
ATOM     23  C   UNL     1       0.276  -5.371  -0.115  0.00  0.00    +0.000 A 
ATOM     24  C   UNL     1       0.158  -4.294   0.743  0.00  0.00    +0.000 A 
ATOM     25  C   UNL     1       0.691  -3.068   0.391  0.00  0.00    +0.003 A 
ENDBRANCH  19  20
ENDBRANCH  18  19
ENDBRANCH   1  18
BRANCH   1  26
ATOM     26  C   UNL     1       3.374   0.822  -0.264  0.00  0.00    +0.003 C 
BRANCH  26  27
ATOM     27  C   UNL     1       3.892   0.647   1.141  0.00  0.00    +0.138 A 
ATOM     28  N   UNL     1       5.148   0.582   1.509  0.00  0.00    -0.115 NA
ATOM     29  N   UNL     1       5.180   0.430   2.788  0.00  0.00    -0.023 NA
ATOM     30  N   UNL     1       3.977   0.396   3.245  0.00  0.00    -0.044 NA
ATOM     31  N   UNL     1       3.154   0.526   2.260  0.00  0.00    -0.231 N 
BRANCH  31  32
ATOM     32  C   UNL     1       1.691   0.541   2.344  0.00  0.00    +0.152 C 
BRANCH  32  33
ATOM     33  C   UNL     1       1.206   1.978   2.543  0.00  0.00    +0.058 C 
BRANCH  33  34
ATOM     34  C   UNL     1      -0.299   1.992   2.630  0.00  0.00    -0.046 A 
ATOM     35  C   UNL     1      -1.055   2.146   1.483  0.00  0.00    +0.004 A 
ATOM     36  C   UNL     1      -2.436   2.154   1.562  0.00  0.00    +0.000 A 
ATOM     37  C   UNL     1      -3.059   2.019   2.788  0.00  0.00    +0.000 A 
ATOM     38  C   UNL     1      -2.302   1.871   3.935  0.00  0.00    +0.000 A 
ATOM     39  C   UNL     1      -0.922   1.857   3.856  0.00  0.00    +0.004 A 
ENDBRANCH  33  34
ENDBRANCH  32  33
ENDBRANCH  31  32
ENDBRANCH  26  27
BRANCH  26  40
ATOM     40  C   UNL     1       3.772   2.205  -0.785  0.00  0.00    -0.011 C 
ATOM     41  C   UNL     1       3.135   2.435  -2.157  0.00  0.00    +0.002 C 
ENDBRANCH  26  40
ENDBRANCH   1  26
TORSDOF 12
