REMARK  Name = ZINC09009908
REMARK  8 active torsions:
REMARK  status: ('A' for Active; 'I' for Inactive)
REMARK    1  A    between atoms: C_1  and  C_2
REMARK    2  A    between atoms: C_14  and  N_27
REMARK    3  A    between atoms: N_27  and  C_28
REMARK    4  A    between atoms: C_28  and  C_29
REMARK    5  A    between atoms: C_29  and  C_30
REMARK    6  A    between atoms: C_30  and  N_70
REMARK    7  A    between atoms: C_34  and  C_36
REMARK    8  A    between atoms: C_34  and  C_37
REMARK                            x       y       z     vdW  Elec       q    Type
REMARK                         _______ _______ _______ _____ _____    ______ ____
ROOT
ATOM      1  C   UNL     1       4.559  -2.329   8.912  0.00  0.00    +0.044 C 
ATOM      2  C   UNL     1       3.985  -1.928   7.578  0.00  0.00    -0.048 A 
ATOM      3  C   UNL     1       4.534  -2.429   6.412  0.00  0.00    +0.007 A 
ATOM      4  C   UNL     1       4.013  -2.066   5.184  0.00  0.00    +0.048 A 
ATOM      5  C   UNL     1       2.936  -1.195   5.117  0.00  0.00    +0.152 A 
ATOM      6  C   UNL     1       2.384  -0.690   6.293  0.00  0.00    +0.083 A 
ATOM      7  C   UNL     1       2.912  -1.058   7.522  0.00  0.00    +0.032 A 
ATOM      8  N   UNL     1       1.297   0.189   6.228  0.00  0.00    -0.349 N 
ATOM      9  H   UNL     1       0.904   0.548   7.040  0.00  0.00    +0.166 HD
ATOM     10  C   UNL     1       0.789   0.540   4.987  0.00  0.00    +0.094 A 
ATOM     11  C   UNL     1       1.372   0.010   3.820  0.00  0.00    +0.154 A 
ATOM     12  O   UNL     1       2.425  -0.840   3.911  0.00  0.00    -0.452 OA
ATOM     13  C   UNL     1       0.871   0.347   2.580  0.00  0.00    +0.072 A 
ATOM     14  C   UNL     1      -0.209   1.223   2.465  0.00  0.00    +0.042 A 
ATOM     15  C   UNL     1      -0.801   1.760   3.615  0.00  0.00    +0.056 A 
ATOM     16  C   UNL     1      -0.295   1.413   4.891  0.00  0.00    +0.062 A 
ATOM     17  C   UNL     1      -0.911   1.971   6.103  0.00  0.00    +0.197 A 
ATOM     18  O   UNL     1      -0.476   1.673   7.200  0.00  0.00    -0.287 OA
ATOM     19  C   UNL     1      -2.058   2.894   5.987  0.00  0.00    +0.033 A 
ATOM     20  C   UNL     1      -2.649   3.428   7.130  0.00  0.00    +0.012 A 
ATOM     21  C   UNL     1      -3.723   4.290   7.011  0.00  0.00    +0.001 A 
ATOM     22  C   UNL     1      -4.216   4.628   5.763  0.00  0.00    +0.001 A 
ATOM     23  C   UNL     1      -3.642   4.108   4.619  0.00  0.00    +0.012 A 
ATOM     24  C   UNL     1      -2.560   3.237   4.719  0.00  0.00    +0.033 A 
ATOM     25  C   UNL     1      -1.940   2.676   3.501  0.00  0.00    +0.196 A 
ATOM     26  O   UNL     1      -2.374   2.974   2.404  0.00  0.00    -0.287 OA
ENDROOT
BRANCH  14  27
ATOM     27  N   UNL     1      -0.698   1.558   1.213  0.00  0.00    -0.343 N 
ATOM     28  H   UNL     1      -1.504   2.093   1.135  0.00  0.00    +0.146 HD
BRANCH  27  29
ATOM     29  C   UNL     1       0.000   1.105   0.008  0.00  0.00    +0.100 C 
BRANCH  29  30
ATOM     30  C   UNL     1      -0.743   1.607  -1.232  0.00  0.00    +0.000 C 
BRANCH  30  31
ATOM     31  C   UNL     1      -0.013   1.134  -2.490  0.00  0.00    -0.077 C 
BRANCH  31  39
ATOM     32  C   UNL     1      -0.666   3.081  -3.772  0.00  0.00    -0.079 C 
ATOM     33  C   UNL     1      -1.290   3.537  -5.093  0.00  0.00    -0.018 C 
ATOM     34  C   UNL     1      -2.745   3.062  -5.155  0.00  0.00    +0.003 C 
ATOM     35  C   UNL     1      -2.783   1.538  -5.009  0.00  0.00    -0.050 C 
ATOM     36  C   UNL     1      -2.115   1.140  -3.691  0.00  0.00    -0.073 C 
ATOM     37  C   UNL     1      -2.032   0.894  -6.176  0.00  0.00    +0.009 C 
ATOM     38  C   UNL     1      -4.237   1.061  -5.011  0.00  0.00    +0.009 C 
ATOM     39  N   UNL     1      -0.712   1.605  -3.704  0.00  0.00    +0.380 N 
ATOM     40  H   UNL     1      -0.241   1.218  -4.531  0.00  0.00    -0.082 HD
ENDBRANCH  31  39
ENDBRANCH  30  31
ENDBRANCH  29  30
ENDBRANCH  27  29
ENDBRANCH  14  27
TORSDOF 5
