REMARK  Name = ZINC36065687
REMARK  11 active torsions:
REMARK  status: ('A' for Active; 'I' for Inactive)
REMARK    1  A    between atoms: C_7  and  C_11
REMARK    2  A    between atoms: C_11  and  C_12
REMARK    3  A    between atoms: C_12  and  N_13
REMARK    4  A    between atoms: N_13  and  C_14
REMARK    5  A    between atoms: N_13  and  C_22
REMARK    6  A    between atoms: C_14  and  C_15
REMARK    7  A    between atoms: C_22  and  C_23
REMARK    8  A    between atoms: C_25  and  C_28
REMARK    9  A    between atoms: N_30  and  C_31
REMARK   10  A    between atoms: C_31  and  C_32
REMARK   11  A    between atoms: C_32  and  C_33
REMARK                            x       y       z     vdW  Elec       q    Type
REMARK                         _______ _______ _______ _____ _____    ______ ____
ROOT
ATOM      1  N   UNL     1      -0.668  -4.947  -1.586  0.00  0.00    +0.388 N 
ATOM      2  H   UNL     1      -1.488  -4.798  -1.018  0.00  0.00    -0.081 HD
ENDROOT
BRANCH   1   3
ATOM      3  C   UNL     1       0.055  -3.678  -1.745  0.00  0.00    -0.073 C 
BRANCH   3   4
ATOM      4  C   UNL     1       0.339  -3.076  -0.367  0.00  0.00    +0.019 C 
BRANCH   4  11
ATOM      5  C   UNL     1      -1.028   1.340  -1.140  0.00  0.00    +0.001 A 
ATOM      6  C   UNL     1       0.035   2.229  -1.220  0.00  0.00    +0.002 A 
ATOM      7  C   UNL     1       1.333   1.788  -1.078  0.00  0.00    +0.026 A 
ATOM      8  C   UNL     1       1.582   0.438  -0.852  0.00  0.00    +0.047 A 
ATOM      9  C   UNL     1       0.501  -0.458  -0.771  0.00  0.00    +0.003 A 
ATOM     10  C   UNL     1      -0.806   0.011  -0.918  0.00  0.00    +0.010 A 
ATOM     11  C   UNL     1       1.088  -1.779  -0.530  0.00  0.00    -0.024 A 
ATOM     12  C   UNL     1       2.419  -1.614  -0.481  0.00  0.00    +0.087 A 
ATOM     13  N   UNL     1       2.733  -0.296  -0.671  0.00  0.00    -0.360 N 
ATOM     14  H   UNL     1       3.632   0.068  -0.678  0.00  0.00    +0.165 HD
ENDBRANCH   4  11
ENDBRANCH   3   4
ENDBRANCH   1   3
BRANCH   1  15
ATOM     15  C   UNL     1       0.207  -5.931  -0.935  0.00  0.00    -0.042 C 
BRANCH  15  16
ATOM     16  C   UNL     1       1.489  -6.058  -1.717  0.00  0.00    -0.061 A 
ATOM     17  C   UNL     1       1.564  -6.935  -2.783  0.00  0.00    +0.002 A 
ATOM     18  C   UNL     1       2.739  -7.053  -3.501  0.00  0.00    +0.003 A 
ATOM     19  C   UNL     1       3.841  -6.295  -3.154  0.00  0.00    +0.038 A 
ATOM     20  C   UNL     1       3.768  -5.417  -2.086  0.00  0.00    +0.124 A 
ATOM     21  C   UNL     1       2.588  -5.295  -1.371  0.00  0.00    +0.040 A 
ATOM     22  F   UNL     1       4.845  -4.676  -1.745  0.00  0.00    -0.205 F 
ENDBRANCH  15  16
ENDBRANCH   1  15
BRANCH   1  23
ATOM     23  C   UNL     1      -1.071  -5.449  -2.906  0.00  0.00    +0.019 C 
BRANCH  23  24
ATOM     24  C   UNL     1      -1.917  -6.685  -2.736  0.00  0.00    +0.179 A 
ATOM     25  N   UNL     1      -3.211  -6.700  -2.619  0.00  0.00    -0.210 NA
ATOM     26  C   UNL     1      -3.617  -7.992  -2.486  0.00  0.00    +0.163 A 
ATOM     27  C   UNL     1      -2.500  -8.768  -2.527  0.00  0.00    +0.230 A 
ATOM     28  O   UNL     1      -1.454  -7.942  -2.688  0.00  0.00    -0.449 OA
BRANCH  26  29
ATOM     29  C   UNL     1      -5.005  -8.462  -2.325  0.00  0.00    +0.266 C 
ATOM     30  O   UNL     1      -5.235  -9.651  -2.215  0.00  0.00    -0.268 OA
ATOM     31  N   UNL     1      -6.019  -7.574  -2.301  0.00  0.00    -0.310 N 
ATOM     32  H   UNL     1      -5.835  -6.626  -2.389  0.00  0.00    +0.149 HD
BRANCH  31  33
ATOM     33  C   UNL     1      -7.398  -8.042  -2.142  0.00  0.00    +0.110 C 
BRANCH  33  34
ATOM     34  C   UNL     1      -8.347  -6.841  -2.147  0.00  0.00    +0.074 C 
BRANCH  34  35
ATOM     35  C   UNL     1      -9.766  -7.322  -1.983  0.00  0.00    +0.043 A 
ATOM     36  C   UNL     1     -10.547  -6.811  -0.964  0.00  0.00    +0.023 A 
ATOM     37  C   UNL     1     -11.851  -7.260  -0.822  0.00  0.00    +0.003 A 
ATOM     38  C   UNL     1     -12.322  -8.210  -1.714  0.00  0.00    +0.020 A 
ATOM     39  C   UNL     1     -11.483  -8.675  -2.709  0.00  0.00    +0.111 A 
ATOM     40  N   UNL     1     -10.249  -8.221  -2.817  0.00  0.00    -0.260 NA
ENDBRANCH  34  35
ENDBRANCH  33  34
ENDBRANCH  31  33
ENDBRANCH  26  29
ENDBRANCH  23  24
ENDBRANCH   1  23
TORSDOF 11
