REMARK  Name = ZINC06198553
REMARK  12 active torsions:
REMARK  status: ('A' for Active; 'I' for Inactive)
REMARK    1  A    between atoms: C_1  and  N_2
REMARK    2  A    between atoms: N_2  and  C_3
REMARK    3  A    between atoms: N_2  and  C_4
REMARK    4  A    between atoms: C_4  and  C_5
REMARK    5  A    between atoms: C_5  and  C_6
REMARK    6  A    between atoms: C_6  and  N_7
REMARK    7  A    between atoms: N_7  and  C_8
REMARK    8  A    between atoms: C_8  and  N_10
REMARK    9  A    between atoms: N_10  and  C_11
REMARK   10  A    between atoms: N_10  and  C_17
REMARK   11  A    between atoms: C_11  and  C_12
REMARK   12  A    between atoms: C_17  and  C_18
REMARK                            x       y       z     vdW  Elec       q    Type
REMARK                         _______ _______ _______ _____ _____    ______ ____
ROOT
ATOM      1  N   UNL     1      -3.846  -6.195  -0.376  0.00  0.00    -0.303 N 
ENDROOT
BRANCH   1   2
ATOM      2  C   UNL     1      -3.716  -4.859  -0.248  0.00  0.00    +0.133 C 
ATOM      3  S   UNL     1      -5.107  -3.878  -0.061  0.00  0.00    -0.019 S 
BRANCH   2   4
ATOM      4  N   UNL     1      -2.492  -4.296  -0.268  0.00  0.00    -0.326 N 
ATOM      5  H   UNL     1      -1.704  -4.852  -0.374  0.00  0.00    +0.148 HD
BRANCH   4   6
ATOM      6  C   UNL     1      -2.351  -2.845  -0.129  0.00  0.00    +0.101 C 
BRANCH   6   7
ATOM      7  C   UNL     1      -0.869  -2.469  -0.184  0.00  0.00    +0.000 C 
BRANCH   7   8
ATOM      8  C   UNL     1      -0.722  -0.953  -0.039  0.00  0.00    -0.078 C 
BRANCH   8  10
ATOM      9  C   UNL     1       0.836   0.871  -0.073  0.00  0.00    -0.097 C 
ATOM     10  N   UNL     1       0.701  -0.592  -0.091  0.00  0.00    +0.376 N 
ATOM     11  C   UNL     1       1.394  -1.162   1.071  0.00  0.00    -0.097 C 
ATOM     12  H   UNL     1       1.110  -0.956  -0.939  0.00  0.00    -0.083 HD
ENDBRANCH   8  10
ENDBRANCH   7   8
ENDBRANCH   6   7
ENDBRANCH   4   6
ENDBRANCH   2   4
ENDBRANCH   1   2
BRANCH   1  13
ATOM     13  C   UNL     1      -2.664  -7.026  -0.614  0.00  0.00    +0.149 C 
BRANCH  13  14
ATOM     14  C   UNL     1      -2.082  -7.462   0.706  0.00  0.00    +0.007 A 
ATOM     15  C   UNL     1      -2.357  -8.572   1.435  0.00  0.00    +0.013 A 
ATOM     16  C   UNL     1      -1.693  -8.769   2.631  0.00  0.00    +0.008 A 
ATOM     17  C   UNL     1      -0.788  -7.847   3.041  0.00  0.00    +0.045 A 
ATOM     18  S   UNL     1      -0.848  -6.656   1.712  0.00  0.00    -0.100 S 
ENDBRANCH  13  14
ENDBRANCH   1  13
BRANCH   1  19
ATOM     19  C   UNL     1      -5.170  -6.815  -0.277  0.00  0.00    +0.147 C 
BRANCH  19  20
ATOM     20  C   UNL     1      -5.715  -7.059  -1.660  0.00  0.00    +0.035 A 
ATOM     21  C   UNL     1      -5.526  -8.263  -2.259  0.00  0.00    +0.020 A 
ATOM     22  C   UNL     1      -6.068  -8.469  -3.601  0.00  0.00    +0.003 A 
ATOM     23  C   UNL     1      -5.902  -9.690  -4.267  0.00  0.00    +0.059 A 
ATOM     24  C   UNL     1      -6.426  -9.856  -5.532  0.00  0.00    +0.163 A 
ATOM     25  C   UNL     1      -7.120  -8.811  -6.150  0.00  0.00    +0.164 A 
ATOM     26  C   UNL     1      -7.286  -7.600  -5.500  0.00  0.00    +0.075 A 
ATOM     27  C   UNL     1      -6.765  -7.417  -4.225  0.00  0.00    +0.053 A 
ATOM     28  N   UNL     1      -6.922  -6.216  -3.562  0.00  0.00    -0.322 N 
ATOM     29  H   UNL     1      -7.402  -5.492  -3.993  0.00  0.00    +0.169 HD
ATOM     30  C   UNL     1      -6.424  -6.039  -2.326  0.00  0.00    +0.254 A 
ATOM     31  O   UNL     1      -6.586  -4.967  -1.768  0.00  0.00    -0.268 OA
ATOM     32  O   UNL     1      -7.646  -8.970  -7.394  0.00  0.00    -0.485 OA
ATOM     33  C   UNL     1      -7.144 -10.061  -8.172  0.00  0.00    +0.270 C 
ATOM     34  C   UNL     1      -7.113 -11.312  -7.283  0.00  0.00    +0.270 C 
ATOM     35  O   UNL     1      -6.254 -11.048  -6.168  0.00  0.00    -0.485 OA
ENDBRANCH  19  20
ENDBRANCH   1  19
TORSDOF 10
