REMARK  Name = ZINC03014087
REMARK  10 active torsions:
REMARK  status: ('A' for Active; 'I' for Inactive)
REMARK    1  A    between atoms: C_1  and  O_2
REMARK    2  A    between atoms: O_2  and  C_3
REMARK    3  A    between atoms: C_5  and  C_20
REMARK    4  A    between atoms: C_7  and  O_18
REMARK    5  A    between atoms: C_8  and  O_9
REMARK    6  A    between atoms: O_9  and  C_10
REMARK    7  A    between atoms: C_10  and  C_12
REMARK    8  A    between atoms: O_18  and  C_19
REMARK    9  A    between atoms: C_34  and  N_38
REMARK   10  A    between atoms: C_35  and  C_36
REMARK                            x       y       z     vdW  Elec       q    Type
REMARK                         _______ _______ _______ _____ _____    ______ ____
ROOT
ATOM      1  C   UNL     1      -4.988  -2.633   0.035  0.00  0.00    +0.105 C 
ATOM      2  C   UNL     1      -4.850  -3.957   0.737  0.00  0.00    +0.092 A 
ATOM      3  C   UNL     1      -5.311  -4.120   2.010  0.00  0.00    +0.152 A 
ATOM      4  C   UNL     1      -5.145  -5.437   2.646  0.00  0.00    +0.060 A 
ATOM      5  C   UNL     1      -5.595  -5.671   3.947  0.00  0.00    +0.015 A 
ATOM      6  C   UNL     1      -5.423  -6.915   4.512  0.00  0.00    +0.001 A 
ATOM      7  C   UNL     1      -4.808  -7.931   3.796  0.00  0.00    +0.004 A 
ATOM      8  C   UNL     1      -4.360  -7.713   2.510  0.00  0.00    +0.047 A 
ATOM      9  C   UNL     1      -4.523  -6.466   1.921  0.00  0.00    +0.143 A 
ATOM     10  O   UNL     1      -4.092  -6.235   0.662  0.00  0.00    -0.422 OA
ATOM     11  C   UNL     1      -4.239  -5.037   0.076  0.00  0.00    +0.345 A 
ATOM     12  O   UNL     1      -3.832  -4.880  -1.062  0.00  0.00    -0.245 OA
ATOM     13  O   UNL     1      -5.903  -3.114   2.679  0.00  0.00    -0.440 OA
ATOM     14  C   UNL     1      -6.395  -2.057   2.007  0.00  0.00    +0.199 C 
ATOM     15  C   UNL     1      -5.999  -1.774   0.743  0.00  0.00    +0.098 C 
ENDROOT
BRANCH   1  18
ATOM     16  C   UNL     1      -1.804  -0.975   1.217  0.00  0.00    +0.166 A 
ATOM     17  C   UNL     1      -3.034  -1.615   1.221  0.00  0.00    +0.054 A 
ATOM     18  C   UNL     1      -3.655  -1.931   0.027  0.00  0.00    -0.027 A 
ATOM     19  C   UNL     1      -3.057  -1.603  -1.176  0.00  0.00    +0.054 A 
ATOM     20  C   UNL     1      -1.830  -0.957  -1.188  0.00  0.00    +0.166 A 
ATOM     21  C   UNL     1      -1.202  -0.638   0.010  0.00  0.00    +0.215 A 
BRANCH  16  23
ATOM     22  C   UNL     1      -1.868  -1.046   3.593  0.00  0.00    +0.277 C 
ATOM     23  O   UNL     1      -1.191  -0.671   2.392  0.00  0.00    -0.491 OA
ENDBRANCH  16  23
BRANCH  20  24
ATOM     24  O   UNL     1      -1.242  -0.635  -2.372  0.00  0.00    -0.491 OA
ATOM     25  C   UNL     1      -1.945  -0.993  -3.563  0.00  0.00    +0.277 C 
ENDBRANCH  20  24
BRANCH  21  26
ATOM     26  O   UNL     1       0.002  -0.004   0.002  0.00  0.00    -0.415 OA
BRANCH  26  27
ATOM     27  C   UNL     1      -0.016   1.343   0.009  0.00  0.00    +0.345 C 
ATOM     28  O   UNL     1      -1.077   1.936   0.018  0.00  0.00    -0.245 OA
BRANCH  27  29
ATOM     29  C   UNL     1       1.253   2.099   0.001  0.00  0.00    +0.059 A 
ATOM     30  C   UNL     1       2.473   1.420  -0.008  0.00  0.00    +0.015 A 
ATOM     31  C   UNL     1       3.655   2.132  -0.021  0.00  0.00    +0.001 A 
ATOM     32  C   UNL     1       3.632   3.516  -0.013  0.00  0.00    +0.000 A 
ATOM     33  C   UNL     1       2.426   4.194   0.002  0.00  0.00    +0.001 A 
ATOM     34  C   UNL     1       1.238   3.495   0.009  0.00  0.00    +0.015 A 
ENDBRANCH  27  29
ENDBRANCH  26  27
ENDBRANCH  21  26
ENDBRANCH   1  18
BRANCH  14  35
ATOM     35  N   UNL     1      -7.319  -1.247   2.617  0.00  0.00    -0.328 N 
ATOM     36  H   UNL     1      -7.730  -0.379   2.080  0.00  0.00    +0.145 HD
ATOM     37  H   UNL     1      -7.650  -1.465   3.643  0.00  0.00    +0.145 HD
ENDBRANCH  14  35
BRANCH  15  38
ATOM     38  C   UNL     1      -6.553  -0.638   0.070  0.00  0.00    +0.101 C 
ATOM     39  N   UNL     1      -6.992   0.263  -0.465  0.00  0.00    -0.191 NA
ENDBRANCH  15  38
TORSDOF 8
