REMARK  Name = ZINC63383590
REMARK  7 active torsions:
REMARK  status: ('A' for Active; 'I' for Inactive)
REMARK    1  A    between atoms: C_1  and  C_2
REMARK    2  A    between atoms: C_16  and  C_19
REMARK    3  A    between atoms: C_19  and  C_20
REMARK    4  A    between atoms: N_31  and  C_34
REMARK    5  A    between atoms: C_34  and  C_35
REMARK    6  A    between atoms: C_35  and  O_36
REMARK    7  A    between atoms: O_36  and  C_37
REMARK                            x       y       z     vdW  Elec       q    Type
REMARK                         _______ _______ _______ _____ _____    ______ ____
ROOT
ATOM      1  C   UNL     1      -0.162   1.413   0.402  0.00  0.00    +0.045 C 
ATOM      2  C   UNL     1      -0.106  -0.088   0.282  0.00  0.00    -0.029 A 
ATOM      3  C   UNL     1      -0.063  -0.677  -0.965  0.00  0.00    +0.005 A 
ATOM      4  C   UNL     1      -0.011  -2.054  -1.085  0.00  0.00    +0.001 A 
ATOM      5  C   UNL     1      -0.003  -2.844   0.051  0.00  0.00    +0.008 A 
ATOM      6  C   UNL     1      -0.047  -2.261   1.297  0.00  0.00    +0.004 A 
ATOM      7  C   UNL     1      -0.093  -0.876   1.430  0.00  0.00    +0.042 A 
ATOM      8  N   UNL     1      -0.123  -0.521   2.781  0.00  0.00    -0.283 N 
ATOM      9  C   UNL     1      -0.096  -1.598   3.590  0.00  0.00    +0.243 C 
ATOM     10  O   UNL     1      -0.111  -1.594   4.802  0.00  0.00    -0.273 OA
ATOM     11  C   UNL     1      -0.055  -2.808   2.696  0.00  0.00    +0.136 C 
ATOM     12  C   UNL     1       1.190  -3.657   2.977  0.00  0.00    +0.122 C 
ATOM     13  C   UNL     1       0.717  -5.125   2.784  0.00  0.00    +0.107 C 
ATOM     14  C   UNL     1      -0.774  -5.011   2.398  0.00  0.00    +0.072 C 
ATOM     15  N   UNL     1      -1.210  -3.696   2.922  0.00  0.00    -0.295 NA
ATOM     16  C   UNL     1       1.518  -5.596   1.592  0.00  0.00    +0.227 C 
ATOM     17  O   UNL     1       1.458  -6.702   1.100  0.00  0.00    -0.275 OA
ATOM     18  N   UNL     1       2.306  -4.601   1.165  0.00  0.00    -0.239 N 
ATOM     19  C   UNL     1       2.207  -3.456   1.877  0.00  0.00    +0.228 C 
ATOM     20  O   UNL     1       2.825  -2.433   1.673  0.00  0.00    -0.275 OA
ATOM     21  H   UNL     1      -0.159   0.394   3.100  0.00  0.00    +0.155 HD
ATOM     22  H   UNL     1      -1.428  -3.764   3.905  0.00  0.00    +0.124 HD
ENDROOT
BRANCH  14  23
ATOM     23  C   UNL     1      -1.576  -6.150   3.031  0.00  0.00    +0.052 C 
BRANCH  23  24
ATOM     24  C   UNL     1      -3.001  -6.091   2.543  0.00  0.00    -0.040 C 
ATOM     25  C   UNL     1      -3.535  -6.780   1.509  0.00  0.00    -0.001 A 
ATOM     26  C   UNL     1      -2.972  -7.751   0.564  0.00  0.00    +0.010 A 
ATOM     27  C   UNL     1      -3.773  -8.282  -0.388  0.00  0.00    +0.001 A 
ATOM     28  C   UNL     1      -5.125  -7.928  -0.493  0.00  0.00    +0.002 A 
ATOM     29  C   UNL     1      -5.715  -7.044   0.338  0.00  0.00    +0.026 A 
ATOM     30  C   UNL     1      -4.966  -6.424   1.377  0.00  0.00    +0.043 A 
ATOM     31  N   UNL     1      -5.303  -5.550   2.293  0.00  0.00    -0.380 N 
ATOM     32  C   UNL     1      -4.124  -5.256   3.116  0.00  0.00    +0.144 C 
ATOM     33  H   UNL     1      -6.186  -5.164   2.411  0.00  0.00    +0.160 HD
ENDBRANCH  23  24
ENDBRANCH  14  23
BRANCH  18  34
ATOM     34  C   UNL     1       3.209  -4.742   0.020  0.00  0.00    +0.144 C 
BRANCH  34  35
ATOM     35  C   UNL     1       4.607  -5.116   0.517  0.00  0.00    +0.179 C 
BRANCH  35  36
ATOM     36  O   UNL     1       4.569  -6.412   1.118  0.00  0.00    -0.381 OA
ATOM     37  C   UNL     1       5.803  -6.811   1.716  0.00  0.00    +0.194 C 
ENDBRANCH  35  36
ENDBRANCH  34  35
ENDBRANCH  18  34
TORSDOF 5
