REMARK  Name = ZINC05993219
REMARK  8 active torsions:
REMARK  status: ('A' for Active; 'I' for Inactive)
REMARK    1  A    between atoms: C_1  and  C_2
REMARK    2  A    between atoms: C_3  and  C_24
REMARK    3  A    between atoms: C_11  and  C_13
REMARK    4  A    between atoms: C_13  and  C_15
REMARK    5  A    between atoms: C_13  and  S_16
REMARK    6  A    between atoms: S_16  and  C_17
REMARK    7  A    between atoms: C_20  and  C_23
REMARK    8  A    between atoms: N_21  and  N_22
REMARK                            x       y       z     vdW  Elec       q    Type
REMARK                         _______ _______ _______ _____ _____    ______ ____
ROOT
ATOM      1  C   UNL     1      10.645   3.420   0.088  0.00  0.00    +0.045 C 
ATOM      2  C   UNL     1       9.439   4.231   0.489  0.00  0.00    -0.026 A 
ATOM      3  C   UNL     1       9.589   5.451   1.029  0.00  0.00    -0.008 A 
ATOM      4  S   UNL     1       7.913   5.983   1.320  0.00  0.00    -0.073 S 
ATOM      5  C   UNL     1       7.060   4.552   0.709  0.00  0.00    +0.116 A 
ATOM      6  C   UNL     1       8.102   3.701   0.296  0.00  0.00    +0.075 A 
ATOM      7  C   UNL     1       7.692   2.443  -0.253  0.00  0.00    +0.260 A 
ATOM      8  O   UNL     1       8.521   1.637  -0.639  0.00  0.00    -0.267 OA
ATOM      9  N   UNL     1       6.378   2.161  -0.329  0.00  0.00    -0.309 N 
ATOM     10  H   UNL     1       6.087   1.281  -0.703  0.00  0.00    +0.170 HD
ATOM     11  C   UNL     1       5.441   3.049   0.091  0.00  0.00    +0.124 A 
ATOM     12  N   UNL     1       5.782   4.205   0.596  0.00  0.00    -0.225 NA
ATOM     13  C   UNL     1      10.869   6.192   1.319  0.00  0.00    +0.052 C 
ENDROOT
BRANCH  11  14
ATOM     14  C   UNL     1       3.981   2.692  -0.021  0.00  0.00    +0.117 C 
ATOM     15  C   UNL     1       3.413   3.268  -1.321  0.00  0.00    +0.027 C 
BRANCH  14  16
ATOM     16  S   UNL     1       3.799   0.891  -0.029  0.00  0.00    -0.074 S 
BRANCH  16  17
ATOM     17  C   UNL     1       2.042   0.761  -0.013  0.00  0.00    +0.209 A 
ATOM     18  N   UNL     1       1.185   1.756   0.000  0.00  0.00    -0.121 NA
ATOM     19  N   UNL     1      -0.016   1.299   0.009  0.00  0.00    -0.132 NA
ATOM     20  C   UNL     1       0.002  -0.004   0.002  0.00  0.00    +0.148 A 
ATOM     21  N   UNL     1       1.313  -0.393  -0.013  0.00  0.00    -0.228 N 
ATOM     22  C   UNL     1      -1.200  -0.913   0.008  0.00  0.00    +0.090 C 
BRANCH  21  23
ATOM     23  N   UNL     1       1.794  -1.672  -0.024  0.00  0.00    -0.295 N 
ATOM     24  H   UNL     1       1.912  -2.005  -0.969  0.00  0.00    +0.163 HD
ATOM     25  H   UNL     1       2.657  -1.738   0.493  0.00  0.00    +0.163 HD
ENDBRANCH  21  23
ENDBRANCH  16  17
ENDBRANCH  14  16
ENDBRANCH  11  14
TORSDOF 4
