REMARK  Name = ZINC13174332
REMARK  8 active torsions:
REMARK  status: ('A' for Active; 'I' for Inactive)
REMARK    1  A    between atoms: C_1  and  C_2
REMARK    2  A    between atoms: C_2  and  C_3
REMARK    3  A    between atoms: C_8  and  N_9
REMARK    4  A    between atoms: C_10  and  C_12
REMARK    5  A    between atoms: C_12  and  S_13
REMARK    6  A    between atoms: S_13  and  C_14
REMARK    7  A    between atoms: C_15  and  C_33
REMARK    8  A    between atoms: C_16  and  C_26
REMARK                            x       y       z     vdW  Elec       q    Type
REMARK                         _______ _______ _______ _____ _____    ______ ____
ROOT
ATOM      1  C   UNL     1      -1.621  -0.310  -7.677  0.00  0.00    +0.112 C 
ATOM      2  C   UNL     1      -2.196  -0.505  -8.921  0.00  0.00    +0.073 C 
ATOM      3  C   UNL     1      -1.347  -0.180 -10.137  0.00  0.00    +0.097 C 
ATOM      4  C   UNL     1       0.053   0.328  -9.851  0.00  0.00    +0.029 C 
ATOM      5  C   UNL     1       0.873   0.643 -10.866  0.00  0.00    +0.162 C 
ATOM      6  C   UNL     1       2.269   1.149 -10.616  0.00  0.00    +0.080 C 
ATOM      7  C   UNL     1       2.304   1.897  -9.280  0.00  0.00    +0.014 C 
ATOM      8  C   UNL     1       1.830   0.954  -8.172  0.00  0.00    +0.056 C 
ATOM      9  C   UNL     1       0.444   0.453  -8.505  0.00  0.00    +0.050 C 
ATOM     10  N   UNL     1      -0.376   0.148  -7.530  0.00  0.00    -0.244 NA
ATOM     11  O   UNL     1       0.438   0.503 -12.134  0.00  0.00    -0.292 OA
ENDROOT
BRANCH   3  12
ATOM     12  C   UNL     1      -2.067   0.866 -10.948  0.00  0.00    -0.035 A 
ATOM     13  C   UNL     1      -2.357   2.096 -10.388  0.00  0.00    +0.006 A 
ATOM     14  C   UNL     1      -3.017   3.057 -11.131  0.00  0.00    +0.020 A 
ATOM     15  C   UNL     1      -3.388   2.786 -12.436  0.00  0.00    +0.041 A 
ATOM     16  C   UNL     1      -3.098   1.555 -12.996  0.00  0.00    +0.020 A 
ATOM     17  C   UNL     1      -2.433   0.598 -12.254  0.00  0.00    +0.006 A 
ATOM     18 CL   UNL     1      -4.218   3.992 -13.370  0.00  0.00    -0.084 Cl
ENDBRANCH   3  12
BRANCH   2  19
ATOM     19  C   UNL     1      -3.535  -0.992  -9.055  0.00  0.00    +0.098 C 
ATOM     20  N   UNL     1      -4.598  -1.379  -9.161  0.00  0.00    -0.191 NA
ENDBRANCH   2  19
BRANCH   1  21
ATOM     21  S   UNL     1      -2.568  -0.672  -6.236  0.00  0.00    -0.096 S 
BRANCH  21  22
ATOM     22  C   UNL     1      -1.451  -0.272  -4.864  0.00  0.00    +0.172 C 
BRANCH  22  24
ATOM     23  N   UNL     1      -1.505  -0.315  -2.391  0.00  0.00    -0.285 N 
ATOM     24  C   UNL     1      -2.147  -0.541  -3.555  0.00  0.00    +0.227 C 
ATOM     25  O   UNL     1      -3.285  -0.961  -3.548  0.00  0.00    -0.275 OA
ATOM     26  H   UNL     1      -0.620   0.082  -2.395  0.00  0.00    +0.155 HD
BRANCH  23  32
ATOM     27  C   UNL     1      -1.349  -1.119  -0.119  0.00  0.00    -0.026 A 
ATOM     28  C   UNL     1      -1.954  -1.445   1.079  0.00  0.00    +0.005 A 
ATOM     29  C   UNL     1      -3.322  -1.313   1.222  0.00  0.00    +0.000 A 
ATOM     30  C   UNL     1      -4.090  -0.854   0.168  0.00  0.00    +0.002 A 
ATOM     31  C   UNL     1      -3.491  -0.525  -1.033  0.00  0.00    +0.023 A 
ATOM     32  C   UNL     1      -2.116  -0.652  -1.178  0.00  0.00    +0.037 A 
BRANCH  27  34
ATOM     33  C   UNL     1       0.819   0.078   0.019  0.00  0.00    +0.009 C 
ATOM     34  C   UNL     1       0.143  -1.263  -0.275  0.00  0.00    +0.033 C 
ENDBRANCH  27  34
ENDBRANCH  23  32
ENDBRANCH  22  24
ENDBRANCH  21  22
ENDBRANCH   1  21
TORSDOF 7
