REMARK  Name = ZINC12880969
REMARK  4 active torsions:
REMARK  status: ('A' for Active; 'I' for Inactive)
REMARK    1  A    between atoms: C_9  and  C_10
REMARK    2  A    between atoms: C_15  and  N_16
REMARK    3  A    between atoms: C_15  and  N_49
REMARK    4  A    between atoms: C_21  and  C_23
REMARK                            x       y       z     vdW  Elec       q    Type
REMARK                         _______ _______ _______ _____ _____    ______ ____
ROOT
ATOM      1  C   UNL     1       0.445   4.513   0.022  0.00  0.00    +0.054 C 
ATOM      2  C   UNL     1       0.637   5.383  -1.224  0.00  0.00    -0.007 C 
ATOM      3  C   UNL     1      -0.334   6.564  -1.171  0.00  0.00    -0.076 C 
ATOM      4  C   UNL     1      -0.311   6.551   1.252  0.00  0.00    -0.076 C 
ATOM      5  C   UNL     1       0.663   5.370   1.272  0.00  0.00    -0.007 C 
ATOM      6  N   UNL     1      -0.056   7.361   0.043  0.00  0.00    +0.393 N 
ATOM      7  H   UNL     1       0.930   7.647   0.035  0.00  0.00    -0.079 HD
ENDROOT
BRANCH   1  16
ATOM      8  C   UNL     1       1.224  -0.698  -0.014  0.00  0.00    +0.005 A 
ATOM      9  C   UNL     1       0.002  -0.004   0.002  0.00  0.00    +0.018 A 
ATOM     10  C   UNL     1      -0.016   1.345   0.009  0.00  0.00    +0.094 A 
ATOM     11  N   UNL     1       1.149   2.054   0.002  0.00  0.00    -0.286 N 
ATOM     12  C   UNL     1       2.359   1.403  -0.013  0.00  0.00    +0.161 A 
ATOM     13  C   UNL     1       2.394  -0.004  -0.021  0.00  0.00    +0.048 A 
ATOM     14  N   UNL     1       3.296   2.337  -0.016  0.00  0.00    -0.129 NA
ATOM     15  N   UNL     1       2.744   3.500  -0.006  0.00  0.00    -0.133 NA
ATOM     16  C   UNL     1       1.441   3.383   0.006  0.00  0.00    +0.141 A 
ENDBRANCH   1  16
BRANCH   6  17
ATOM     17  C   UNL     1      -0.906   8.570   0.057  0.00  0.00    +0.072 C 
BRANCH  17  18
ATOM     18  N   UNL     1      -0.840   9.219  -1.254  0.00  0.00    -0.257 N 
ATOM     19  C   UNL     1      -1.665   8.996  -2.297  0.00  0.00    +0.174 A 
ATOM     20  S   UNL     1      -2.982   7.902  -2.328  0.00  0.00    -0.012 S 
ATOM     21  N   UNL     1      -1.267   9.790  -3.311  0.00  0.00    -0.317 N 
ATOM     22  H   UNL     1      -1.677   9.841  -4.188  0.00  0.00    +0.169 HD
ATOM     23  C   UNL     1      -0.174  10.519  -2.886  0.00  0.00    +0.160 A 
ATOM     24  N   UNL     1       0.089  10.191  -1.652  0.00  0.00    -0.153 NA
BRANCH  23  25
ATOM     25  C   UNL     1       0.570  11.511  -3.693  0.00  0.00    +0.019 A 
ATOM     26  C   UNL     1       0.186  11.774  -5.008  0.00  0.00    +0.012 A 
ATOM     27  C   UNL     1       0.880  12.704  -5.754  0.00  0.00    +0.016 A 
ATOM     28  C   UNL     1       1.963  13.368  -5.204  0.00  0.00    +0.018 A 
ATOM     29  C   UNL     1       2.353  13.107  -3.902  0.00  0.00    +0.016 A 
ATOM     30  C   UNL     1       1.663  12.183  -3.144  0.00  0.00    +0.012 A 
ATOM     31 BR   UNL     1       2.914  14.635  -6.236  0.00  0.00    -0.050 Br
ENDBRANCH  23  25
ENDBRANCH  17  18
ENDBRANCH   6  17
TORSDOF 4
