REMARK  Name = ZINC04280230
REMARK  3 active torsions:
REMARK  status: ('A' for Active; 'I' for Inactive)
REMARK    1  A    between atoms: C_1  and  C_2
REMARK    2  A    between atoms: C_3  and  C_19
REMARK    3  A    between atoms: N_21  and  C_22
REMARK                            x       y       z     vdW  Elec       q    Type
REMARK                         _______ _______ _______ _____ _____    ______ ____
ROOT
ATOM      1  C   UNL     1       0.527   7.685   0.188  0.00  0.00    +0.079 C 
ATOM      2  C   UNL     1       0.925   6.269  -0.234  0.00  0.00    +0.188 C 
ATOM      3  C   UNL     1       2.159   5.827   0.564  0.00  0.00    +0.162 C 
ATOM      4  C   UNL     1       2.587   4.461   0.004  0.00  0.00    +0.123 C 
ATOM      5  C   UNL     1       1.392   3.535   0.051  0.00  0.00    +0.017 A 
ATOM      6  C   UNL     1       1.605   2.168   0.081  0.00  0.00    +0.029 A 
ATOM      7  C   UNL     1       0.530   1.299   0.106  0.00  0.00    +0.042 A 
ATOM      8  C   UNL     1      -0.761   1.797   0.096  0.00  0.00    +0.023 A 
ATOM      9  C   UNL     1      -0.976   3.160   0.077  0.00  0.00    +0.047 A 
ATOM     10  C   UNL     1       0.104   4.038   0.054  0.00  0.00    +0.128 A 
ATOM     11  O   UNL     1      -0.146   5.373   0.047  0.00  0.00    -0.468 OA
ATOM     12 CL   UNL     1       0.800  -0.416   0.144  0.00  0.00    -0.084 Cl
ATOM     13  N   UNL     1       2.945   4.650  -1.399  0.00  0.00    -0.319 N 
ATOM     14  C   UNL     1       2.239   5.505  -2.158  0.00  0.00    +0.134 C 
ATOM     15  S   UNL     1       2.617   5.636  -3.822  0.00  0.00    -0.019 S 
ATOM     16  N   UNL     1       1.250   6.261  -1.658  0.00  0.00    -0.289 N 
ATOM     17  H   UNL     1       3.687   4.156  -1.783  0.00  0.00    +0.148 HD
ATOM     18  H   UNL     1       0.735   6.820  -2.261  0.00  0.00    +0.151 HD
ENDROOT
BRANCH   3  19
ATOM     19  C   UNL     1       1.809   5.698   2.024  0.00  0.00    +0.228 C 
ATOM     20  O   UNL     1       0.680   5.935   2.400  0.00  0.00    -0.275 OA
ATOM     21  N   UNL     1       2.749   5.319   2.912  0.00  0.00    -0.285 N 
ATOM     22  H   UNL     1       3.631   5.056   2.603  0.00  0.00    +0.155 HD
BRANCH  21  23
ATOM     23  C   UNL     1       2.455   5.306   4.280  0.00  0.00    +0.033 A 
ATOM     24  C   UNL     1       1.585   6.247   4.814  0.00  0.00    +0.023 A 
ATOM     25  C   UNL     1       1.291   6.226   6.163  0.00  0.00    +0.002 A 
ATOM     26  C   UNL     1       1.873   5.278   6.985  0.00  0.00    +0.000 A 
ATOM     27  C   UNL     1       2.745   4.344   6.457  0.00  0.00    +0.002 A 
ATOM     28  C   UNL     1       3.038   4.355   5.108  0.00  0.00    +0.023 A 
ENDBRANCH  21  23
ENDBRANCH   3  19
TORSDOF 2
