REMARK  Name = ZINC14246911
REMARK  10 active torsions:
REMARK  status: ('A' for Active; 'I' for Inactive)
REMARK    1  A    between atoms: C_1  and  C_2
REMARK    2  A    between atoms: C_2  and  C_3
REMARK    3  A    between atoms: C_2  and  C_4
REMARK    4  A    between atoms: C_4  and  C_6
REMARK    5  A    between atoms: C_4  and  N_23
REMARK    6  A    between atoms: N_8  and  N_9
REMARK    7  A    between atoms: C_10  and  C_12
REMARK    8  A    between atoms: C_12  and  C_13
REMARK    9  A    between atoms: N_23  and  S_24
REMARK   10  A    between atoms: S_24  and  C_27
REMARK                            x       y       z     vdW  Elec       q    Type
REMARK                         _______ _______ _______ _____ _____    ______ ____
ROOT
ATOM      1  C   UNL     1       0.876   3.747  -0.368  0.00  0.00    +0.248 C 
ATOM      2  O   UNL     1      -0.218   3.871  -0.876  0.00  0.00    -0.273 OA
ATOM      3  N   UNL     1       1.719   4.797  -0.318  0.00  0.00    -0.233 N 
ATOM      4  H   UNL     1       2.619   4.681   0.026  0.00  0.00    +0.173 HD
ENDROOT
BRANCH   3   5
ATOM      5  N   UNL     1       1.295   6.057  -0.761  0.00  0.00    -0.234 N 
ATOM      6  C   UNL     1       2.137   7.108  -0.710  0.00  0.00    +0.233 C 
ATOM      7  O   UNL     1       3.262   6.963  -0.281  0.00  0.00    -0.274 OA
ATOM      8  H   UNL     1       0.395   6.173  -1.104  0.00  0.00    +0.173 HD
BRANCH   6   9
ATOM      9  C   UNL     1       1.681   8.463  -1.187  0.00  0.00    +0.134 C 
BRANCH   9  10
ATOM     10  C   UNL     1       2.803   9.456  -1.024  0.00  0.00    -0.014 A 
ATOM     11  C   UNL     1       2.991  10.286   0.015  0.00  0.00    +0.087 A 
ATOM     12  N   UNL     1       4.115  11.039  -0.187  0.00  0.00    -0.360 N 
ATOM     13  H   UNL     1       4.456  11.708   0.427  0.00  0.00    +0.165 HD
ATOM     14  C   UNL     1       4.688  10.710  -1.395  0.00  0.00    +0.047 A 
ATOM     15  C   UNL     1       3.892   9.704  -1.972  0.00  0.00    +0.003 A 
ATOM     16  C   UNL     1       4.236   9.171  -3.216  0.00  0.00    +0.010 A 
ATOM     17  C   UNL     1       5.347   9.629  -3.866  0.00  0.00    +0.001 A 
ATOM     18  C   UNL     1       6.136  10.621  -3.301  0.00  0.00    +0.002 A 
ATOM     19  C   UNL     1       5.814  11.161  -2.075  0.00  0.00    +0.026 A 
ENDBRANCH   9  10
ENDBRANCH   6   9
ENDBRANCH   3   5
BRANCH   1  20
ATOM     20  C   UNL     1       1.295   2.417   0.205  0.00  0.00    +0.166 C 
BRANCH  20  22
ATOM     21  C   UNL     1      -0.277   2.750   2.118  0.00  0.00    +0.009 C 
ATOM     22  C   UNL     1       1.173   2.458   1.729  0.00  0.00    +0.010 C 
ATOM     23  C   UNL     1       1.596   1.108   2.311  0.00  0.00    +0.009 C 
ENDBRANCH  20  22
BRANCH  20  24
ATOM     24  N   UNL     1       0.428   1.362  -0.326  0.00  0.00    -0.178 NA
ATOM     25  H   UNL     1      -0.428   1.181   0.093  0.00  0.00    +0.149 HD
BRANCH  24  26
ATOM     26  S   UNL     1       0.906   0.482  -1.645  0.00  0.00    +0.059 S 
ATOM     27  O   UNL     1      -0.101  -0.495  -1.868  0.00  0.00    -0.153 OA
ATOM     28  O   UNL     1       1.292   1.420  -2.640  0.00  0.00    -0.153 OA
BRANCH  26  29
ATOM     29  C   UNL     1       2.364  -0.394  -1.185  0.00  0.00    +0.107 A 
ATOM     30  C   UNL     1       2.267  -1.666  -0.651  0.00  0.00    +0.028 A 
ATOM     31  C   UNL     1       3.410  -2.354  -0.292  0.00  0.00    +0.003 A 
ATOM     32  C   UNL     1       4.652  -1.771  -0.465  0.00  0.00    +0.020 A 
ATOM     33  C   UNL     1       4.750  -0.498  -0.999  0.00  0.00    +0.043 A 
ATOM     34  C   UNL     1       3.605   0.188  -1.364  0.00  0.00    +0.048 A 
ATOM     35 CL   UNL     1       6.308   0.234  -1.217  0.00  0.00    -0.083 Cl
ENDBRANCH  26  29
ENDBRANCH  24  26
ENDBRANCH  20  24
ENDBRANCH   1  20
TORSDOF 8
