REMARK  Name = ZINC62238670
REMARK  7 active torsions:
REMARK  status: ('A' for Active; 'I' for Inactive)
REMARK    1  A    between atoms: C_1  and  C_2
REMARK    2  A    between atoms: C_5  and  C_8
REMARK    3  A    between atoms: C_8  and  C_9
REMARK    4  A    between atoms: C_9  and  C_10
REMARK    5  A    between atoms: C_11  and  C_22
REMARK    6  A    between atoms: N_14  and  C_15
REMARK    7  A    between atoms: C_22  and  N_23
REMARK                            x       y       z     vdW  Elec       q    Type
REMARK                         _______ _______ _______ _____ _____    ______ ____
ROOT
ATOM      1  C   UNL     1       1.793  -6.296  -0.163  0.00  0.00    +0.066 A 
ATOM      2  C   UNL     1       1.629  -7.190   0.841  0.00  0.00    +0.069 A 
ATOM      3  N   UNL     1       1.344  -8.363   0.265  0.00  0.00    -0.136 NA
ATOM      4  N   UNL     1       1.331  -8.211  -1.012  0.00  0.00    -0.060 NA
ATOM      5  N   UNL     1       1.590  -6.987  -1.318  0.00  0.00    -0.217 N 
ENDROOT
BRANCH   5   6
ATOM      6  C   UNL     1       1.655  -6.459  -2.616  0.00  0.00    +0.067 A 
ATOM      7  C   UNL     1       1.065  -5.234  -2.897  0.00  0.00    +0.030 A 
ATOM      8  C   UNL     1       1.130  -4.715  -4.176  0.00  0.00    +0.040 A 
ATOM      9  C   UNL     1       1.782  -5.416  -5.176  0.00  0.00    +0.124 A 
ATOM     10  C   UNL     1       2.370  -6.638  -4.897  0.00  0.00    +0.040 A 
ATOM     11  C   UNL     1       2.313  -7.157  -3.619  0.00  0.00    +0.030 A 
ATOM     12  F   UNL     1       1.843  -4.907  -6.426  0.00  0.00    -0.205 F 
ENDBRANCH   5   6
BRANCH   1  13
ATOM     13  C   UNL     1       2.126  -4.833  -0.028  0.00  0.00    +0.062 C 
BRANCH  13  14
ATOM     14  C   UNL     1       3.637  -4.638  -0.172  0.00  0.00    +0.041 C 
BRANCH  14  19
ATOM     15  C   UNL     1       4.926   0.963   0.424  0.00  0.00    +0.044 C 
ATOM     16  C   UNL     1       4.590  -0.498   0.268  0.00  0.00    -0.050 A 
ATOM     17  C   UNL     1       4.567  -1.323   1.377  0.00  0.00    +0.003 A 
ATOM     18  C   UNL     1       4.258  -2.663   1.234  0.00  0.00    +0.004 A 
ATOM     19  C   UNL     1       3.972  -3.177  -0.017  0.00  0.00    -0.047 A 
ATOM     20  C   UNL     1       3.994  -2.351  -1.125  0.00  0.00    +0.004 A 
ATOM     21  C   UNL     1       4.298  -1.011  -0.982  0.00  0.00    +0.003 A 
ENDBRANCH  14  19
ENDBRANCH  13  14
ENDBRANCH   1  13
BRANCH   2  22
ATOM     22  C   UNL     1       1.744  -6.916   2.319  0.00  0.00    -0.026 C 
BRANCH  22  23
ATOM     23  N   UNL     1       0.432  -6.524   2.848  0.00  0.00    +0.382 N 
ATOM     24  H   UNL     1      -0.230  -7.271   2.695  0.00  0.00    -0.090 HD
ATOM     25  H   UNL     1       0.509  -6.341   3.838  0.00  0.00    -0.090 HD
ATOM     26  H   UNL     1       0.114  -5.691   2.376  0.00  0.00    -0.090 HD
ENDBRANCH  22  23
ENDBRANCH   2  22
TORSDOF 6
