REMARK  Name = ZINC39456019
REMARK  5 active torsions:
REMARK  status: ('A' for Active; 'I' for Inactive)
REMARK    1  A    between atoms: C_1  and  C_2
REMARK    2  A    between atoms: C_2  and  O_3
REMARK    3  A    between atoms: O_3  and  C_4
REMARK    4  A    between atoms: C_15  and  C_21
REMARK    5  A    between atoms: C_21  and  C_22
REMARK                            x       y       z     vdW  Elec       q    Type
REMARK                         _______ _______ _______ _____ _____    ______ ____
ROOT
ATOM      1  C   UNL     1       0.746  -1.888  -1.280  0.00  0.00    +0.211 C 
ATOM      2  C   UNL     1       1.769  -2.273  -2.354  0.00  0.00    +0.132 C 
ATOM      3  C   UNL     1       1.680  -3.753  -2.619  0.00  0.00    +0.187 C 
ATOM      4  O   UNL     1       2.670  -4.360  -2.978  0.00  0.00    -0.290 OA
ATOM      5  C   UNL     1       0.457  -4.443  -2.456  0.00  0.00    +0.127 A 
ATOM      6  C   UNL     1      -0.654  -3.768  -1.991  0.00  0.00    +0.084 A 
ATOM      7  C   UNL     1      -1.931  -4.483  -1.825  0.00  0.00    +0.100 A 
ATOM      8  C   UNL     1      -1.967  -5.866  -2.147  0.00  0.00    +0.069 A 
ATOM      9  C   UNL     1      -3.143  -6.588  -2.006  0.00  0.00    +0.025 A 
ATOM     10  C   UNL     1      -4.277  -5.905  -1.539  0.00  0.00    +0.005 A 
ATOM     11  C   UNL     1      -5.511  -6.552  -1.361  0.00  0.00    -0.034 A 
ATOM     12  C   UNL     1      -6.579  -5.841  -0.905  0.00  0.00    +0.004 A 
ATOM     13  C   UNL     1      -6.478  -4.484  -0.610  0.00  0.00    +0.002 A 
ATOM     14  C   UNL     1      -5.311  -3.802  -0.762  0.00  0.00    +0.028 A 
ATOM     15  C   UNL     1      -4.167  -4.478  -1.228  0.00  0.00    +0.072 A 
ATOM     16  N   UNL     1      -3.004  -3.848  -1.389  0.00  0.00    -0.245 NA
ATOM     17  C   UNL     1      -0.736  -6.513  -2.630  0.00  0.00    +0.276 A 
ATOM     18  O   UNL     1      -0.743  -7.697  -2.912  0.00  0.00    -0.266 OA
ATOM     19  N   UNL     1       0.396  -5.798  -2.761  0.00  0.00    -0.213 N 
ATOM     20 CL   UNL     1       1.807  -6.584  -3.321  0.00  0.00    +0.022 Cl
ATOM     21  N   UNL     1      -0.565  -2.425  -1.677  0.00  0.00    -0.315 N 
ATOM     22  H   UNL     1      -1.346  -1.852  -1.719  0.00  0.00    +0.149 HD
ENDROOT
BRANCH   1  23
ATOM     23  O   UNL     1       0.671  -0.465  -1.174  0.00  0.00    -0.359 OA
BRANCH  23  25
ATOM     24  C   UNL     1      -0.019   1.526   0.010  0.00  0.00    +0.034 C 
ATOM     25  C   UNL     1       0.002  -0.004   0.002  0.00  0.00    +0.159 C 
ENDBRANCH  23  25
ENDBRANCH   1  23
BRANCH  11  26
ATOM     26  C   UNL     1      -5.652  -8.020  -1.671  0.00  0.00    +0.071 C 
BRANCH  26  27
ATOM     27  C   UNL     1      -5.221  -8.830  -0.475  0.00  0.00    -0.043 A 
ATOM     28  C   UNL     1      -3.901  -9.216  -0.340  0.00  0.00    +0.004 A 
ATOM     29  C   UNL     1      -3.506  -9.958   0.757  0.00  0.00    +0.000 A 
ATOM     30  C   UNL     1      -4.432 -10.314   1.720  0.00  0.00    +0.000 A 
ATOM     31  C   UNL     1      -5.753  -9.928   1.586  0.00  0.00    +0.000 A 
ATOM     32  C   UNL     1      -6.146  -9.181   0.491  0.00  0.00    +0.004 A 
ENDBRANCH  26  27
ENDBRANCH  11  26
TORSDOF 4
