REMARK  Name = ZINC47329121
REMARK  7 active torsions:
REMARK  status: ('A' for Active; 'I' for Inactive)
REMARK    1  A    between atoms: C_1  and  C_2
REMARK    2  A    between atoms: C_8  and  C_10
REMARK    3  A    between atoms: C_14  and  N_16
REMARK    4  A    between atoms: C_17  and  C_19
REMARK    5  A    between atoms: C_19  and  C_20
REMARK    6  A    between atoms: C_20  and  C_21
REMARK    7  A    between atoms: C_21  and  C_22
REMARK                            x       y       z     vdW  Elec       q    Type
REMARK                         _______ _______ _______ _____ _____    ______ ____
ROOT
ATOM      1  N   UNL     1       6.115  -1.778  -0.028  0.00  0.00    -0.285 N 
ATOM      2  C   UNL     1       7.308  -2.397   0.064  0.00  0.00    +0.217 C 
ATOM      3  O   UNL     1       7.365  -3.609   0.051  0.00  0.00    -0.275 OA
ATOM      4  H   UNL     1       6.074  -0.811  -0.096  0.00  0.00    +0.155 HD
ENDROOT
BRANCH   1   9
ATOM      5  C   UNL     1       3.680  -4.446   0.709  0.00  0.00    +0.019 A 
ATOM      6  C   UNL     1       2.583  -4.006  -0.035  0.00  0.00    +0.011 A 
ATOM      7  C   UNL     1       2.668  -2.839  -0.765  0.00  0.00    +0.002 A 
ATOM      8  C   UNL     1       3.837  -2.100  -0.763  0.00  0.00    +0.023 A 
ATOM      9  C   UNL     1       4.934  -2.529  -0.026  0.00  0.00    +0.034 A 
ATOM     10  C   UNL     1       4.858  -3.698   0.715  0.00  0.00    +0.034 A 
BRANCH   5  18
ATOM     11  C   UNL     1       5.808  -7.640   3.702  0.00  0.00    +0.066 C 
ATOM     12  C   UNL     1       4.598  -7.215   2.912  0.00  0.00    +0.046 A 
ATOM     13  C   UNL     1       3.467  -7.978   2.936  0.00  0.00    +0.093 A 
ATOM     14  C   UNL     1       2.348  -7.559   2.189  0.00  0.00    +0.252 A 
ATOM     15  O   UNL     1       1.320  -8.216   2.188  0.00  0.00    -0.268 OA
ATOM     16  N   UNL     1       2.435  -6.416   1.476  0.00  0.00    -0.307 N 
ATOM     17  H   UNL     1       1.677  -6.108   0.955  0.00  0.00    +0.170 HD
ATOM     18  C   UNL     1       3.592  -5.696   1.492  0.00  0.00    +0.141 A 
ATOM     19  N   UNL     1       4.632  -6.092   2.197  0.00  0.00    -0.234 NA
ENDBRANCH   5  18
ENDBRANCH   1   9
BRANCH   2  20
ATOM     20  C   UNL     1       8.572  -1.585   0.181  0.00  0.00    +0.096 C 
BRANCH  20  21
ATOM     21  C   UNL     1       9.776  -2.525   0.270  0.00  0.00    +0.014 C 
BRANCH  21  22
ATOM     22  C   UNL     1      11.059  -1.700   0.389  0.00  0.00    +0.038 C 
BRANCH  22  23
ATOM     23  C   UNL     1      12.245  -2.626   0.476  0.00  0.00    -0.022 A 
ATOM     24  C   UNL     1      12.837  -3.062   1.599  0.00  0.00    +0.087 A 
ATOM     25  N   UNL     1      13.882  -3.887   1.285  0.00  0.00    -0.360 N 
ATOM     26  H   UNL     1      14.461  -4.324   1.930  0.00  0.00    +0.165 HD
ATOM     27  C   UNL     1      13.991  -4.006  -0.082  0.00  0.00    +0.047 A 
ATOM     28  C   UNL     1      12.966  -3.226  -0.649  0.00  0.00    +0.003 A 
ATOM     29  C   UNL     1      12.828  -3.160  -2.036  0.00  0.00    +0.010 A 
ATOM     30  C   UNL     1      13.687  -3.858  -2.838  0.00  0.00    +0.001 A 
ATOM     31  C   UNL     1      14.697  -4.631  -2.284  0.00  0.00    +0.002 A 
ATOM     32  C   UNL     1      14.858  -4.703  -0.917  0.00  0.00    +0.026 A 
ENDBRANCH  22  23
ENDBRANCH  21  22
ENDBRANCH  20  21
ENDBRANCH   2  20
TORSDOF 6
