REMARK  Name = ZINC09668339
REMARK  5 active torsions:
REMARK  status: ('A' for Active; 'I' for Inactive)
REMARK    1  A    between atoms: C_3  and  C_8
REMARK    2  A    between atoms: N_10  and  N_11
REMARK    3  A    between atoms: C_12  and  C_13
REMARK    4  A    between atoms: C_14  and  C_15
REMARK    5  A    between atoms: C_18  and  N_21
REMARK                            x       y       z     vdW  Elec       q    Type
REMARK                         _______ _______ _______ _____ _____    ______ ____
ROOT
ATOM      1  N   UNL     1      -6.029   1.597   0.040  0.00  0.00    -0.188 NA
ATOM      2  C   UNL     1      -4.896   0.957   0.031  0.00  0.00    +0.130 C 
ENDROOT
BRANCH   1   5
ATOM      3  C   UNL     1      -8.409   1.549   0.051  0.00  0.00    +0.263 C 
ATOM      4  O   UNL     1      -8.421   2.765   0.058  0.00  0.00    -0.268 OA
ATOM      5  N   UNL     1      -7.236   0.886   0.042  0.00  0.00    -0.203 N 
ATOM      6  H   UNL     1      -7.228  -0.084   0.037  0.00  0.00    +0.178 HD
BRANCH   3   9
ATOM      7  C   UNL     1     -10.865  -1.292   0.049  0.00  0.00    +0.002 A 
ATOM      8  C   UNL     1      -9.673  -0.597   0.041  0.00  0.00    +0.013 A 
ATOM      9  C   UNL     1      -9.683   0.799   0.054  0.00  0.00    +0.039 A 
ATOM     10  C   UNL     1     -10.900   1.483   0.063  0.00  0.00    +0.028 A 
ATOM     11  C   UNL     1     -12.085   0.775   0.066  0.00  0.00    +0.019 A 
ATOM     12  C   UNL     1     -12.068  -0.609   0.058  0.00  0.00    +0.015 A 
ATOM     13 BR   UNL     1     -13.735   1.699   0.078  0.00  0.00    -0.050 Br
ENDBRANCH   3   9
ENDBRANCH   1   5
BRANCH   2  14
ATOM     14  C   UNL     1      -3.674   1.677   0.029  0.00  0.00    +0.022 C 
ATOM     15  C   UNL     1      -2.500   1.013   0.020  0.00  0.00    +0.009 C 
BRANCH  15  16
ATOM     16  C   UNL     1      -1.232   1.760   0.017  0.00  0.00    -0.025 A 
ATOM     17  C   UNL     1      -0.013   1.076   0.008  0.00  0.00    +0.010 A 
ATOM     18  C   UNL     1       1.171   1.783   0.001  0.00  0.00    +0.033 A 
ATOM     19  C   UNL     1       1.154   3.167   0.008  0.00  0.00    +0.126 A 
ATOM     20  C   UNL     1      -0.048   3.852   0.022  0.00  0.00    +0.033 A 
ATOM     21  C   UNL     1      -1.240   3.159   0.029  0.00  0.00    +0.010 A 
BRANCH  19  22
ATOM     22  N   UNL     1       2.430   3.919  -0.001  0.00  0.00    +0.056 N 
ATOM     23  O   UNL     1       3.490   3.320  -0.013  0.00  0.00    -0.126 OA
ATOM     24  O   UNL     1       2.419   5.137   0.006  0.00  0.00    -0.126 OA
ENDBRANCH  19  22
ENDBRANCH  15  16
ENDBRANCH   2  14
TORSDOF 5
