REMARK  Name = ZINC38744906
REMARK  3 active torsions:
REMARK  status: ('A' for Active; 'I' for Inactive)
REMARK    1  A    between atoms: C_4  and  C_7
REMARK    2  A    between atoms: C_9  and  C_13
REMARK    3  A    between atoms: C_17  and  C_22
REMARK                            x       y       z     vdW  Elec       q    Type
REMARK                         _______ _______ _______ _____ _____    ______ ____
ROOT
ATOM      1  C   UNL     1       5.763  -2.987  -1.332  0.00  0.00    +0.182 C 
ATOM      2  N   UNL     1       7.232  -3.216  -1.363  0.00  0.00    -0.265 N 
ATOM      3  N   UNL     1       7.804  -3.118  -2.597  0.00  0.00    -0.220 N 
ATOM      4  C   UNL     1       8.972  -3.550  -3.219  0.00  0.00    +0.182 A 
ATOM      5  N   UNL     1       8.967  -3.082  -4.443  0.00  0.00    -0.127 NA
ATOM      6  N   UNL     1       7.892  -2.407  -4.651  0.00  0.00    -0.120 NA
ATOM      7  C   UNL     1       7.156  -2.416  -3.582  0.00  0.00    +0.211 A 
ATOM      8  S   UNL     1       5.621  -1.916  -2.828  0.00  0.00    -0.058 S 
ATOM      9  H   UNL     1       7.704  -2.622  -0.698  0.00  0.00    +0.168 HD
ENDROOT
BRANCH   4  10
ATOM     10  C   UNL     1      10.027  -4.385  -2.609  0.00  0.00    +0.022 A 
ATOM     11  C   UNL     1      10.069  -4.562  -1.225  0.00  0.00    +0.012 A 
ATOM     12  C   UNL     1      11.056  -5.343  -0.661  0.00  0.00    +0.002 A 
ATOM     13  C   UNL     1      12.005  -5.950  -1.464  0.00  0.00    +0.020 A 
ATOM     14  C   UNL     1      11.971  -5.779  -2.837  0.00  0.00    +0.042 A 
ATOM     15  C   UNL     1      10.983  -5.005  -3.415  0.00  0.00    +0.031 A 
ATOM     16 CL   UNL     1      13.166  -6.545  -3.836  0.00  0.00    -0.084 Cl
ENDBRANCH   4  10
BRANCH   1  19
ATOM     17  C   UNL     1       3.699  -0.689  -0.037  0.00  0.00    +0.091 C 
ATOM     18  C   UNL     1       3.832  -2.029  -0.051  0.00  0.00    +0.034 C 
ATOM     19  C   UNL     1       5.335  -2.245  -0.065  0.00  0.00    +0.185 C 
ATOM     20  N   UNL     1       5.871  -0.874  -0.056  0.00  0.00    -0.177 NA
ATOM     21  N   UNL     1       4.919  -0.090  -0.047  0.00  0.00    -0.154 NA
BRANCH  17  25
ATOM     22  C   UNL     1      -0.017   1.379   0.010  0.00  0.00    +0.000 A 
ATOM     23  C   UNL     1       1.169   2.092   0.002  0.00  0.00    +0.001 A 
ATOM     24  C   UNL     1       2.377   1.426  -0.013  0.00  0.00    +0.010 A 
ATOM     25  C   UNL     1       2.402   0.033  -0.021  0.00  0.00    +0.002 A 
ATOM     26  C   UNL     1       1.205  -0.680  -0.013  0.00  0.00    +0.010 A 
ATOM     27  C   UNL     1       0.002  -0.004   0.002  0.00  0.00    +0.001 A 
ENDBRANCH  17  25
ENDBRANCH   1  19
TORSDOF 3
