REMARK  Name = ZINC49508676
REMARK  8 active torsions:
REMARK  status: ('A' for Active; 'I' for Inactive)
REMARK    1  A    between atoms: C_1  and  N_2
REMARK    2  A    between atoms: C_10  and  C_12
REMARK    3  A    between atoms: C_12  and  C_14
REMARK    4  A    between atoms: C_12  and  N_33
REMARK    5  A    between atoms: C_14  and  N_15
REMARK    6  A    between atoms: C_16  and  C_18
REMARK    7  A    between atoms: N_20  and  C_21
REMARK    8  A    between atoms: C_25  and  N_27
REMARK                            x       y       z     vdW  Elec       q    Type
REMARK                         _______ _______ _______ _____ _____    ______ ____
ROOT
ATOM      1  C   UNL     1       5.047  -2.689  -1.698  0.00  0.00    +0.094 C 
ENDROOT
BRANCH   1   2
ATOM      2  N   UNL     1       4.118  -3.572  -2.406  0.00  0.00    -0.309 N 
ATOM      3  C   UNL     1       4.262  -3.780  -3.730  0.00  0.00    +0.299 C 
ATOM      4  O   UNL     1       5.162  -3.235  -4.336  0.00  0.00    -0.265 OA
ATOM      5  H   UNL     1       3.399  -4.008  -1.923  0.00  0.00    +0.149 HD
BRANCH   3   6
ATOM      6  C   UNL     1       3.315  -4.681  -4.453  0.00  0.00    +0.303 C 
ATOM      7  O   UNL     1       2.415  -5.226  -3.847  0.00  0.00    -0.265 OA
ATOM      8  N   UNL     1       3.459  -4.888  -5.776  0.00  0.00    -0.278 N 
ATOM      9  H   UNL     1       4.224  -4.520  -6.245  0.00  0.00    +0.155 HD
BRANCH   8  10
ATOM     10  C   UNL     1       2.505  -5.634  -6.475  0.00  0.00    +0.036 A 
ATOM     11  C   UNL     1       1.165  -5.560  -6.115  0.00  0.00    +0.023 A 
ATOM     12  C   UNL     1       0.222  -6.297  -6.805  0.00  0.00    +0.004 A 
ATOM     13  C   UNL     1       0.608  -7.110  -7.854  0.00  0.00    +0.023 A 
ATOM     14  C   UNL     1       1.946  -7.189  -8.217  0.00  0.00    +0.038 A 
ATOM     15  C   UNL     1       2.895  -6.445  -7.531  0.00  0.00    +0.046 A 
BRANCH  14  16
ATOM     16  N   UNL     1       2.336  -8.013  -9.279  0.00  0.00    -0.271 N 
ATOM     17  C   UNL     1       1.403  -8.735 -10.152  0.00  0.00    +0.114 C 
ATOM     18  C   UNL     1       2.228  -9.133 -11.397  0.00  0.00    +0.029 C 
ATOM     19  C   UNL     1       3.663  -9.172 -10.824  0.00  0.00    +0.098 C 
ATOM     20  C   UNL     1       3.612  -8.240  -9.634  0.00  0.00    +0.220 C 
ATOM     21  O   UNL     1       4.582  -7.769  -9.078  0.00  0.00    -0.275 OA
ENDBRANCH  14  16
ENDBRANCH   8  10
ENDBRANCH   3   6
ENDBRANCH   1   2
BRANCH   1  22
ATOM     22  C   UNL     1       4.591  -2.527  -0.247  0.00  0.00    -0.020 C 
BRANCH  22  32
ATOM     23  C   UNL     1      -0.690   1.298  -0.006  0.00  0.00    +0.129 C 
ATOM     24  N   UNL     1      -0.560  -0.156  -0.132  0.00  0.00    -0.333 N 
ATOM     25  C   UNL     1      -1.754  -1.006  -0.237  0.00  0.00    +0.105 C 
ATOM     26  C   UNL     1      -1.554  -2.211   0.692  0.00  0.00    +0.024 C 
ATOM     27  C   UNL     1      -0.356  -3.022   0.199  0.00  0.00    +0.038 C 
ATOM     28  C   UNL     1       0.840  -2.128   0.003  0.00  0.00    -0.026 A 
ATOM     29  C   UNL     1       0.703  -0.757  -0.161  0.00  0.00    +0.033 A 
ATOM     30  C   UNL     1       1.827   0.039  -0.349  0.00  0.00    +0.023 A 
ATOM     31  C   UNL     1       3.083  -0.535  -0.378  0.00  0.00    +0.004 A 
ATOM     32  C   UNL     1       3.221  -1.901  -0.218  0.00  0.00    -0.059 A 
ATOM     33  C   UNL     1       2.103  -2.695  -0.019  0.00  0.00    +0.007 A 
ENDBRANCH  22  32
BRANCH  22  34
ATOM     34  N   UNL     1       5.539  -1.664   0.471  0.00  0.00    +0.385 N 
ATOM     35  C   UNL     1       6.893  -2.216   0.345  0.00  0.00    -0.078 C 
ATOM     36  C   UNL     1       7.895  -1.278   1.022  0.00  0.00    -0.019 C 
ATOM     37  C   UNL     1       7.535  -1.139   2.504  0.00  0.00    -0.004 C 
ATOM     38  C   UNL     1       6.095  -0.633   2.624  0.00  0.00    -0.019 C 
ATOM     39  C   UNL     1       5.159  -1.595   1.887  0.00  0.00    -0.078 C 
ATOM     40  H   UNL     1       5.517  -0.738   0.072  0.00  0.00    -0.081 HD
ENDBRANCH  22  34
ENDBRANCH   1  22
TORSDOF 7
