REMARK  Name = ZINC36610079
REMARK  9 active torsions:
REMARK  status: ('A' for Active; 'I' for Inactive)
REMARK    1  A    between atoms: C_4  and  N_7
REMARK    2  A    between atoms: N_7  and  C_8
REMARK    3  A    between atoms: C_8  and  C_10
REMARK    4  A    between atoms: C_8  and  C_17
REMARK    5  A    between atoms: C_15  and  O_16
REMARK    6  A    between atoms: N_19  and  C_20
REMARK    7  A    between atoms: C_26  and  C_28
REMARK    8  A    between atoms: C_29  and  O_35
REMARK    9  A    between atoms: C_33  and  O_34
REMARK                            x       y       z     vdW  Elec       q    Type
REMARK                         _______ _______ _______ _____ _____    ______ ____
ROOT
ATOM      1  N   UNL     1       3.641  -0.762   0.284  0.00  0.00    -0.251 N 
ATOM      2  C   UNL     1       4.821  -0.131   0.446  0.00  0.00    +0.259 C 
ATOM      3  O   UNL     1       5.862  -0.735   0.271  0.00  0.00    -0.269 OA
ENDROOT
BRANCH   1   7
ATOM      4  C   UNL     1       0.076   1.365   0.630  0.00  0.00    +0.000 A 
ATOM      5  C   UNL     1       0.737   0.935   1.767  0.00  0.00    +0.002 A 
ATOM      6  C   UNL     1       1.919   0.230   1.655  0.00  0.00    +0.023 A 
ATOM      7  C   UNL     1       2.444  -0.048   0.400  0.00  0.00    +0.038 A 
ATOM      8  C   UNL     1       1.778   0.385  -0.739  0.00  0.00    +0.023 A 
ATOM      9  C   UNL     1       0.597   1.090  -0.621  0.00  0.00    +0.002 A 
ENDBRANCH   1   7
BRANCH   2  10
ATOM     10  C   UNL     1       4.849   1.288   0.836  0.00  0.00    +0.120 A 
ATOM     11  C   UNL     1       5.001   1.648   2.183  0.00  0.00    +0.133 A 
ATOM     12  C   UNL     1       5.027   2.987   2.538  0.00  0.00    +0.046 A 
ATOM     13  C   UNL     1       4.902   3.966   1.571  0.00  0.00    +0.007 A 
ATOM     14  C   UNL     1       4.751   3.623   0.240  0.00  0.00    +0.046 A 
ATOM     15  C   UNL     1       4.729   2.290  -0.138  0.00  0.00    +0.133 A 
BRANCH  15  16
ATOM     16  O   UNL     1       4.586   1.956  -1.445  0.00  0.00    -0.506 OA
ATOM     17  H   UNL     1       3.667   1.849  -1.726  0.00  0.00    +0.292 HD
ENDBRANCH  15  16
BRANCH  11  18
ATOM     18  O   UNL     1       5.123   0.688   3.134  0.00  0.00    -0.506 OA
ATOM     19  H   UNL     1       6.035   0.420   3.308  0.00  0.00    +0.292 HD
ENDBRANCH  11  18
ENDBRANCH   2  10
BRANCH   1  20
ATOM     20  C   UNL     1       3.612  -2.196  -0.015  0.00  0.00    +0.201 C 
BRANCH  20  21
ATOM     21  C   UNL     1       2.791  -2.435  -1.256  0.00  0.00    +0.024 A 
ATOM     22  C   UNL     1       1.511  -2.945  -1.150  0.00  0.00    +0.009 A 
ATOM     23  C   UNL     1       0.757  -3.164  -2.287  0.00  0.00    +0.001 A 
ATOM     24  C   UNL     1       1.280  -2.874  -3.534  0.00  0.00    +0.004 A 
ATOM     25  C   UNL     1       2.559  -2.363  -3.645  0.00  0.00    +0.046 A 
ATOM     26  C   UNL     1       3.316  -2.137  -2.504  0.00  0.00    +0.122 A 
BRANCH  26  27
ATOM     27  O   UNL     1       4.572  -1.630  -2.611  0.00  0.00    -0.506 OA
ATOM     28  H   UNL     1       5.253  -2.296  -2.777  0.00  0.00    +0.292 HD
ENDBRANCH  26  27
ENDBRANCH  20  21
BRANCH  20  29
ATOM     29  C   UNL     1       2.999  -2.939   1.144  0.00  0.00    +0.239 C 
ATOM     30  O   UNL     1       2.331  -2.342   1.962  0.00  0.00    -0.273 OA
ATOM     31  N   UNL     1       3.193  -4.266   1.272  0.00  0.00    -0.311 N 
ATOM     32  H   UNL     1       3.786  -4.731   0.662  0.00  0.00    +0.149 HD
BRANCH  31  33
ATOM     33  C   UNL     1       2.508  -5.007   2.334  0.00  0.00    +0.073 C 
ATOM     34  C   UNL     1       3.320  -4.912   3.628  0.00  0.00    +0.022 C 
ATOM     35  C   UNL     1       2.604  -5.686   4.737  0.00  0.00    +0.002 C 
ATOM     36  C   UNL     1       2.467  -7.154   4.328  0.00  0.00    +0.000 C 
ATOM     37  C   UNL     1       1.655  -7.249   3.034  0.00  0.00    +0.002 C 
ATOM     38  C   UNL     1       2.371  -6.475   1.925  0.00  0.00    +0.022 C 
ENDBRANCH  31  33
ENDBRANCH  20  29
ENDBRANCH   1  20
TORSDOF 9
