REMARK  Name = ZINC47904530
REMARK  10 active torsions:
REMARK  status: ('A' for Active; 'I' for Inactive)
REMARK    1  A    between atoms: C_1  and  O_2
REMARK    2  A    between atoms: O_2  and  C_3
REMARK    3  A    between atoms: C_3  and  C_5
REMARK    4  A    between atoms: C_5  and  C_6
REMARK    5  A    between atoms: C_5  and  N_17
REMARK    6  A    between atoms: C_6  and  C_7
REMARK    7  A    between atoms: C_18  and  C_20
REMARK    8  A    between atoms: C_20  and  N_21
REMARK    9  A    between atoms: N_21  and  C_22
REMARK   10  A    between atoms: N_21  and  C_28
REMARK                            x       y       z     vdW  Elec       q    Type
REMARK                         _______ _______ _______ _____ _____    ______ ____
ROOT
ATOM      1  C   UNL     1       0.650  -1.790  -1.200  0.00  0.00    +0.186 C 
ENDROOT
BRANCH   1   2
ATOM      2  N   UNL     1       1.336  -2.328  -2.378  0.00  0.00    -0.304 N 
ATOM      3  C   UNL     1       0.675  -2.449  -3.546  0.00  0.00    +0.197 C 
ATOM      4  O   UNL     1      -0.488  -2.112  -3.622  0.00  0.00    -0.278 OA
ATOM      5  H   UNL     1       2.266  -2.597  -2.317  0.00  0.00    +0.149 HD
BRANCH   3   6
ATOM      6  C   UNL     1       1.380  -3.001  -4.758  0.00  0.00    +0.019 C 
BRANCH   6   7
ATOM      7  N   UNL     1       0.418  -3.156  -5.857  0.00  0.00    +0.389 N 
ATOM      8  H   UNL     1       0.895  -3.504  -6.675  0.00  0.00    -0.080 HD
BRANCH   7   9
ATOM      9  C   UNL     1      -0.630  -4.106  -5.460  0.00  0.00    -0.068 C 
ATOM     10  C   UNL     1       0.014  -5.425  -5.029  0.00  0.00    -0.015 C 
ATOM     11  C   UNL     1      -1.078  -6.414  -4.616  0.00  0.00    -0.002 C 
ATOM     12  C   UNL     1      -2.014  -6.666  -5.801  0.00  0.00    -0.000 C 
ATOM     13  C   UNL     1      -2.657  -5.346  -6.231  0.00  0.00    -0.002 C 
ATOM     14  C   UNL     1      -1.566  -4.357  -6.644  0.00  0.00    -0.015 C 
ENDBRANCH   7   9
BRANCH   7  15
ATOM     15  C   UNL     1      -0.191  -1.854  -6.161  0.00  0.00    -0.068 C 
ATOM     16  C   UNL     1      -0.084  -1.343  -7.599  0.00  0.00    -0.017 C 
ATOM     17  C   UNL     1       0.750  -0.695  -6.494  0.00  0.00    -0.017 C 
ENDBRANCH   7  15
ENDBRANCH   6   7
ENDBRANCH   3   6
ENDBRANCH   1   2
BRANCH   1  18
ATOM     18  C   UNL     1       0.713  -0.285  -1.226  0.00  0.00    +0.328 C 
ATOM     19  O   UNL     1       1.274   0.281  -2.134  0.00  0.00    -0.249 OA
BRANCH  18  21
ATOM     20  C   UNL     1       0.245   1.850  -0.327  0.00  0.00    +0.280 C 
ATOM     21  O   UNL     1       0.147   0.427  -0.239  0.00  0.00    -0.467 OA
ENDBRANCH  18  21
ENDBRANCH   1  18
BRANCH   1  22
ATOM     22  C   UNL     1       1.333  -2.308   0.068  0.00  0.00    +0.071 C 
BRANCH  22  23
ATOM     23  C   UNL     1       1.163  -3.803   0.155  0.00  0.00    -0.020 A 
ATOM     24  C   UNL     1       0.203  -4.460   0.825  0.00  0.00    +0.087 A 
ATOM     25  N   UNL     1       0.369  -5.810   0.675  0.00  0.00    -0.360 N 
ATOM     26  H   UNL     1      -0.202  -6.489   1.067  0.00  0.00    +0.165 HD
ATOM     27  C   UNL     1       1.469  -6.061  -0.115  0.00  0.00    +0.047 A 
ATOM     28  C   UNL     1       2.010  -4.815  -0.481  0.00  0.00    +0.003 A 
ATOM     29  C   UNL     1       3.142  -4.760  -1.296  0.00  0.00    +0.010 A 
ATOM     30  C   UNL     1       3.717  -5.918  -1.738  0.00  0.00    +0.001 A 
ATOM     31  C   UNL     1       3.184  -7.149  -1.383  0.00  0.00    +0.002 A 
ATOM     32  C   UNL     1       2.073  -7.227  -0.572  0.00  0.00    +0.026 A 
ENDBRANCH  22  23
ENDBRANCH   1  22
TORSDOF 9
