REMARK  Name = ZINC12907870
REMARK  9 active torsions:
REMARK  status: ('A' for Active; 'I' for Inactive)
REMARK    1  A    between atoms: C_1  and  C_2
REMARK    2  A    between atoms: C_2  and  C_3
REMARK    3  A    between atoms: C_2  and  C_4
REMARK    4  A    between atoms: C_2  and  C_5
REMARK    5  A    between atoms: C_12  and  C_14
REMARK    6  A    between atoms: N_16  and  N_17
REMARK    7  A    between atoms: C_18  and  C_20
REMARK    8  A    between atoms: C_20  and  N_21
REMARK    9  A    between atoms: C_22  and  C_24
REMARK                            x       y       z     vdW  Elec       q    Type
REMARK                         _______ _______ _______ _____ _____    ______ ____
ROOT
ATOM      1  N   UNL     1       8.213  -3.671   4.476  0.00  0.00    -0.233 N 
ATOM      2  C   UNL     1       7.042  -3.337   3.897  0.00  0.00    +0.246 C 
ATOM      3  O   UNL     1       6.159  -4.162   3.796  0.00  0.00    -0.273 OA
ATOM      4  H   UNL     1       8.919  -3.011   4.556  0.00  0.00    +0.173 HD
ENDROOT
BRANCH   1   7
ATOM      5  C   UNL     1       9.579  -5.304   5.540  0.00  0.00    +0.267 C 
ATOM      6  O   UNL     1      10.466  -4.476   5.641  0.00  0.00    -0.268 OA
ATOM      7  N   UNL     1       8.409  -4.970   4.960  0.00  0.00    -0.230 N 
ATOM      8  H   UNL     1       7.703  -5.630   4.880  0.00  0.00    +0.173 HD
BRANCH   5  15
ATOM      9  C   UNL     1      11.486 -10.488   8.450  0.00  0.00    -0.001 C 
ATOM     10  C   UNL     1      10.701 -11.348   7.456  0.00  0.00    +0.009 C 
ATOM     11  C   UNL     1       9.383 -10.637   7.121  0.00  0.00    +0.043 C 
ATOM     12  C   UNL     1       9.687  -9.206   6.799  0.00  0.00    -0.006 A 
ATOM     13  C   UNL     1      10.845  -8.532   7.060  0.00  0.00    -0.036 A 
ATOM     14  C   UNL     1      10.896  -7.204   6.667  0.00  0.00    +0.024 A 
ATOM     15  C   UNL     1       9.785  -6.663   6.047  0.00  0.00    +0.076 A 
ATOM     16  S   UNL     1       8.663  -8.052   6.034  0.00  0.00    -0.088 S 
ATOM     17  C   UNL     1      12.011  -9.233   7.752  0.00  0.00    +0.040 C 
BRANCH   9  19
ATOM     18  C   UNL     1      13.444 -10.441  10.002  0.00  0.00    +0.011 C 
ATOM     19  C   UNL     1      12.665 -11.294   8.999  0.00  0.00    -0.035 C 
ATOM     20  C   UNL     1      12.142 -12.551   9.697  0.00  0.00    +0.011 C 
ATOM     21  C   UNL     1      13.588 -11.698   7.847  0.00  0.00    +0.011 C 
ENDBRANCH   9  19
ENDBRANCH   5  15
ENDBRANCH   1   7
BRANCH   2  22
ATOM     22  C   UNL     1       6.831  -1.939   3.375  0.00  0.00    +0.202 C 
BRANCH  22  23
ATOM     23  N   UNL     1       5.489  -1.831   2.797  0.00  0.00    -0.303 N 
ATOM     24  C   UNL     1       5.076  -0.664   2.265  0.00  0.00    +0.245 C 
ATOM     25  O   UNL     1       5.817   0.300   2.265  0.00  0.00    -0.270 OA
ATOM     26  H   UNL     1       4.898  -2.600   2.797  0.00  0.00    +0.150 HD
BRANCH  24  27
ATOM     27  C   UNL     1       3.724  -0.555   1.683  0.00  0.00    +0.040 A 
ATOM     28  C   UNL     1       2.871  -1.662   1.682  0.00  0.00    +0.017 A 
ATOM     29  C   UNL     1       1.609  -1.558   1.138  0.00  0.00    +0.050 A 
ATOM     30  C   UNL     1       1.181  -0.356   0.590  0.00  0.00    +0.166 A 
ATOM     31  C   UNL     1       2.028   0.752   0.588  0.00  0.00    +0.167 A 
ATOM     32  C   UNL     1       3.294   0.654   1.131  0.00  0.00    +0.062 A 
ATOM     33  O   UNL     1       1.376   1.797  -0.001  0.00  0.00    -0.453 OA
ATOM     34  C   UNL     1      -0.017   1.435   0.010  0.00  0.00    +0.466 C 
ATOM     35  O   UNL     1       0.002  -0.004   0.002  0.00  0.00    -0.453 OA
ENDBRANCH  24  27
ENDBRANCH  22  23
ENDBRANCH   2  22
TORSDOF 6
