REMARK  Name = ZINC35636158
REMARK  12 active torsions:
REMARK  status: ('A' for Active; 'I' for Inactive)
REMARK    1  A    between atoms: C_1  and  C_2
REMARK    2  A    between atoms: C_5  and  C_8
REMARK    3  A    between atoms: N_13  and  C_16
REMARK    4  A    between atoms: C_16  and  C_18
REMARK    5  A    between atoms: C_16  and  C_21
REMARK    6  A    between atoms: C_18  and  C_19
REMARK    7  A    between atoms: C_18  and  C_20
REMARK    8  A    between atoms: N_23  and  C_24
REMARK    9  A    between atoms: C_24  and  C_25
REMARK   10  A    between atoms: C_25  and  C_26
REMARK   11  A    between atoms: C_25  and  C_27
REMARK   12  A    between atoms: N_28  and  C_32
REMARK                            x       y       z     vdW  Elec       q    Type
REMARK                         _______ _______ _______ _____ _____    ______ ____
ROOT
ATOM      1  C   UNL     1      -0.054  -5.886   0.989  0.00  0.00    +0.142 C 
ATOM      2  C   UNL     1      -1.538  -6.008   0.711  0.00  0.00    +0.058 C 
ATOM      3  C   UNL     1      -2.227  -6.951   1.385  0.00  0.00    +0.042 C 
ATOM      4  C   UNL     1      -3.661  -6.847   0.917  0.00  0.00    +0.160 C 
ATOM      5  N   UNL     1      -3.659  -5.758  -0.070  0.00  0.00    -0.280 N 
ATOM      6  C   UNL     1      -2.396  -5.300  -0.155  0.00  0.00    +0.247 C 
ATOM      7  O   UNL     1      -2.041  -4.392  -0.885  0.00  0.00    -0.270 OA
ATOM      8  N   UNL     1      -1.609  -7.769   2.288  0.00  0.00    -0.260 N 
ATOM      9  C   UNL     1      -0.302  -7.705   2.572  0.00  0.00    +0.307 C 
ATOM     10  O   UNL     1       0.161  -8.476   3.390  0.00  0.00    -0.252 OA
ATOM     11  N   UNL     1       0.517  -6.814   1.980  0.00  0.00    -0.288 N 
ATOM     12  C   UNL     1      -2.421  -8.770   2.984  0.00  0.00    +0.139 C 
ATOM     13  H   UNL     1       1.461  -6.785   2.201  0.00  0.00    +0.151 HD
ENDROOT
BRANCH   1  18
ATOM     14  C   UNL     1       0.982  -0.494   2.789  0.00  0.00    +0.044 C 
ATOM     15  C   UNL     1       0.712  -1.900   2.320  0.00  0.00    -0.050 A 
ATOM     16  C   UNL     1       0.901  -2.234   0.992  0.00  0.00    +0.004 A 
ATOM     17  C   UNL     1       0.654  -3.524   0.561  0.00  0.00    +0.006 A 
ATOM     18  C   UNL     1       0.217  -4.480   1.458  0.00  0.00    -0.023 A 
ATOM     19  C   UNL     1       0.029  -4.147   2.787  0.00  0.00    +0.006 A 
ATOM     20  C   UNL     1       0.281  -2.858   3.218  0.00  0.00    +0.004 A 
ENDBRANCH   1  18
BRANCH   5  21
ATOM     21  C   UNL     1      -4.815  -5.263  -0.821  0.00  0.00    +0.165 C 
BRANCH  21  22
ATOM     22  C   UNL     1      -4.604  -5.515  -2.292  0.00  0.00    +0.234 C 
ATOM     23  O   UNL     1      -3.495  -5.771  -2.711  0.00  0.00    -0.274 OA
ATOM     24  N   UNL     1      -5.649  -5.456  -3.142  0.00  0.00    -0.314 N 
ATOM     25  H   UNL     1      -6.521  -5.180  -2.820  0.00  0.00    +0.149 HD
BRANCH  24  26
ATOM     26  C   UNL     1      -5.466  -5.808  -4.552  0.00  0.00    +0.107 C 
BRANCH  26  27
ATOM     27  C   UNL     1      -6.796  -5.658  -5.292  0.00  0.00    -0.000 C 
ATOM     28  C   UNL     1      -7.215  -4.186  -5.293  0.00  0.00    +0.009 C 
ATOM     29  C   UNL     1      -6.636  -6.144  -6.734  0.00  0.00    +0.009 C 
ENDBRANCH  26  27
ENDBRANCH  24  26
ENDBRANCH  21  22
BRANCH  21  30
ATOM     30  C   UNL     1      -4.975  -3.760  -0.579  0.00  0.00    +0.012 C 
ATOM     31  C   UNL     1      -6.234  -3.260  -1.290  0.00  0.00    +0.009 C 
ATOM     32  C   UNL     1      -5.098  -3.496   0.923  0.00  0.00    +0.009 C 
ENDBRANCH  21  30
ENDBRANCH   5  21
TORSDOF 6
