REMARK  Name = ZINC21672574
REMARK  9 active torsions:
REMARK  status: ('A' for Active; 'I' for Inactive)
REMARK    1  A    between atoms: C_1  and  C_2
REMARK    2  A    between atoms: C_5  and  C_7
REMARK    3  A    between atoms: C_7  and  C_8
REMARK    4  A    between atoms: N_10  and  N_11
REMARK    5  A    between atoms: C_12  and  C_14
REMARK    6  A    between atoms: C_14  and  N_15
REMARK    7  A    between atoms: N_18  and  C_21
REMARK    8  A    between atoms: C_21  and  C_22
REMARK    9  A    between atoms: C_21  and  C_29
REMARK                            x       y       z     vdW  Elec       q    Type
REMARK                         _______ _______ _______ _____ _____    ______ ____
ROOT
ATOM      1  N   UNL     1      -0.956   2.842  -1.248  0.00  0.00    +0.387 N 
ATOM      2  C   UNL     1      -1.156   1.397  -1.429  0.00  0.00    -0.063 C 
ATOM      3  C   UNL     1      -0.564   0.649  -0.232  0.00  0.00    +0.067 C 
ATOM      4  N   UNL     1      -1.209   1.116   1.003  0.00  0.00    -0.295 NA
ATOM      5  C   UNL     1      -1.010   2.561   1.184  0.00  0.00    +0.067 C 
ATOM      6  C   UNL     1      -1.602   3.309  -0.013  0.00  0.00    -0.063 C 
ATOM      7  H   UNL     1       0.124   3.026  -1.157  0.00  0.00    -0.081 HD
ENDROOT
BRANCH   1   8
ATOM      8  C   UNL     1      -1.445   3.591  -2.413  0.00  0.00    +0.020 C 
BRANCH   8  10
ATOM      9  N   UNL     1      -0.930   3.741  -4.828  0.00  0.00    -0.236 N 
ATOM     10  C   UNL     1      -0.592   3.266  -3.612  0.00  0.00    +0.213 C 
ATOM     11  O   UNL     1       0.397   2.576  -3.484  0.00  0.00    -0.276 OA
ATOM     12  H   UNL     1      -1.827   4.367  -4.944  0.00  0.00    +0.173 HD
BRANCH   9  15
ATOM     13  C   UNL     1      -0.474   3.914  -7.158  0.00  0.00    +0.235 C 
ATOM     14  O   UNL     1      -1.464   4.604  -7.286  0.00  0.00    -0.274 OA
ATOM     15  N   UNL     1      -0.137   3.439  -5.943  0.00  0.00    -0.234 N 
ATOM     16  H   UNL     1       0.760   2.813  -5.827  0.00  0.00    +0.173 HD
BRANCH  13  17
ATOM     17  C   UNL     1       0.378   3.589  -8.357  0.00  0.00    +0.160 C 
BRANCH  17  22
ATOM     18  C   UNL     1      -0.296   7.217 -11.735  0.00  0.00    +0.066 C 
ATOM     19  C   UNL     1      -0.580   5.848 -11.174  0.00  0.00    +0.046 A 
ATOM     20  C   UNL     1      -1.466   5.018 -11.781  0.00  0.00    +0.070 A 
ATOM     21  S   UNL     1      -1.382   3.599 -10.698  0.00  0.00    -0.080 S 
ATOM     22  C   UNL     1      -0.213   4.236  -9.584  0.00  0.00    +0.087 A 
ATOM     23  N   UNL     1       0.021   5.429 -10.080  0.00  0.00    -0.249 NA
ENDBRANCH  17  22
ENDBRANCH  13  17
ENDBRANCH   9  15
ENDBRANCH   8  10
ENDBRANCH   1   8
BRANCH   4  24
ATOM     24  C   UNL     1      -0.721   0.367   2.168  0.00  0.00    +0.117 C 
BRANCH  24  25
ATOM     25  C   UNL     1      -1.309   0.953   3.425  0.00  0.00    -0.026 A 
ATOM     26  C   UNL     1      -2.627   1.369   3.442  0.00  0.00    +0.008 A 
ATOM     27  C   UNL     1      -3.170   1.903   4.596  0.00  0.00    +0.038 A 
ATOM     28  C   UNL     1      -2.389   2.029   5.732  0.00  0.00    +0.123 A 
ATOM     29  C   UNL     1      -1.068   1.616   5.713  0.00  0.00    +0.038 A 
ATOM     30  C   UNL     1      -0.529   1.079   4.560  0.00  0.00    +0.008 A 
ATOM     31  F   UNL     1      -2.917   2.555   6.859  0.00  0.00    -0.205 F 
ENDBRANCH  24  25
BRANCH  24  32
ATOM     32  C   UNL     1      -1.133  -1.077   2.046  0.00  0.00    -0.026 A 
ATOM     33  C   UNL     1      -2.392  -1.398   1.571  0.00  0.00    +0.008 A 
ATOM     34  C   UNL     1      -2.770  -2.722   1.454  0.00  0.00    +0.038 A 
ATOM     35  C   UNL     1      -1.892  -3.728   1.822  0.00  0.00    +0.123 A 
ATOM     36  C   UNL     1      -0.633  -3.405   2.302  0.00  0.00    +0.038 A 
ATOM     37  C   UNL     1      -0.256  -2.080   2.413  0.00  0.00    +0.008 A 
ATOM     38  F   UNL     1      -2.262  -5.022   1.713  0.00  0.00    -0.205 F 
ENDBRANCH  24  32
ENDBRANCH   4  24
TORSDOF 8
