REMARK  Name = ZINC08649152
REMARK  3 active torsions:
REMARK  status: ('A' for Active; 'I' for Inactive)
REMARK    1  A    between atoms: C_4  and  C_7
REMARK    2  A    between atoms: C_7  and  S_8
REMARK    3  A    between atoms: S_8  and  C_9
REMARK                            x       y       z     vdW  Elec       q    Type
REMARK                         _______ _______ _______ _____ _____    ______ ____
ROOT
ATOM      1  C   UNL     1       5.786  -1.866   1.477  0.00  0.00    +0.184 A 
ATOM      2  C   UNL     1       6.523  -2.284   2.620  0.00  0.00    +0.286 A 
ATOM      3  O   UNL     1       6.115  -2.061   3.747  0.00  0.00    -0.265 OA
ATOM      4  N   UNL     1       7.690  -2.938   2.417  0.00  0.00    -0.270 N 
ATOM      5  H   UNL     1       8.225  -3.241   3.167  0.00  0.00    +0.174 HD
ATOM      6  C   UNL     1       8.098  -3.161   1.136  0.00  0.00    +0.367 A 
ATOM      7  O   UNL     1       9.260  -3.811   0.908  0.00  0.00    -0.243 OA
ATOM      8  N   UNL     1       7.372  -2.750   0.120  0.00  0.00    -0.089 NA
ATOM      9  N   UNL     1       6.258  -2.131   0.278  0.00  0.00    -0.133 NA
ENDROOT
BRANCH   1  10
ATOM     10  S   UNL     1       4.257  -1.011   1.666  0.00  0.00    -0.094 S 
BRANCH  10  11
ATOM     11  C   UNL     1       3.711  -0.707  -0.038  0.00  0.00    +0.111 C 
BRANCH  11  15
ATOM     12  C   UNL     1      -0.017   1.378   0.010  0.00  0.00    +0.000 A 
ATOM     13  C   UNL     1       1.171   2.086   0.002  0.00  0.00    +0.000 A 
ATOM     14  C   UNL     1       2.377   1.411  -0.013  0.00  0.00    +0.004 A 
ATOM     15  C   UNL     1       2.396   0.029  -0.020  0.00  0.00    -0.037 A 
ATOM     16  C   UNL     1       1.208  -0.679  -0.012  0.00  0.00    +0.004 A 
ATOM     17  C   UNL     1       0.002  -0.004   0.002  0.00  0.00    +0.000 A 
ENDBRANCH  11  15
ENDBRANCH  10  11
ENDBRANCH   1  10
TORSDOF 3
