REMARK  Name = ZINC06583577
REMARK  7 active torsions:
REMARK  status: ('A' for Active; 'I' for Inactive)
REMARK    1  A    between atoms: C_1  and  C_2
REMARK    2  A    between atoms: C_5  and  N_8
REMARK    3  A    between atoms: C_12  and  C_15
REMARK    4  A    between atoms: C_16  and  C_25
REMARK    5  A    between atoms: C_17  and  C_22
REMARK    6  A    between atoms: C_18  and  C_21
REMARK    7  A    between atoms: C_22  and  C_24
REMARK                            x       y       z     vdW  Elec       q    Type
REMARK                         _______ _______ _______ _____ _____    ______ ____
ROOT
ATOM      1  N   UNL     1      -0.022  -4.246   0.159  0.00  0.00    -0.225 NA
ATOM      2  C   UNL     1       0.892  -4.904   0.837  0.00  0.00    +0.174 C 
ATOM      3  N   UNL     1       1.751  -4.280   1.731  0.00  0.00    -0.215 N 
ATOM      4  N   UNL     1       3.064  -4.728   1.847  0.00  0.00    -0.183 NA
ATOM      5  C   UNL     1       3.595  -5.763   1.329  0.00  0.00    +0.093 C 
ATOM      6  C   UNL     1       2.922  -6.755   0.422  0.00  0.00    +0.136 C 
ATOM      7  S   UNL     1       1.116  -6.660   0.685  0.00  0.00    -0.083 S 
ATOM      8  H   UNL     1       1.439  -3.536   2.270  0.00  0.00    +0.176 HD
ENDROOT
BRANCH   5   9
ATOM      9  C   UNL     1       5.006  -6.012   1.648  0.00  0.00    +0.067 A 
ATOM     10  C   UNL     1       5.789  -5.240   2.451  0.00  0.00    -0.013 A 
ATOM     11  C   UNL     1       7.073  -5.844   2.484  0.00  0.00    +0.041 A 
ATOM     12  C   UNL     1       7.008  -6.973   1.687  0.00  0.00    +0.024 A 
ATOM     13  N   UNL     1       5.760  -7.070   1.193  0.00  0.00    -0.356 N 
ATOM     14  H   UNL     1       5.442  -7.774   0.606  0.00  0.00    +0.166 HD
ATOM     15  C   UNL     1       8.139  -7.933   1.422  0.00  0.00    +0.064 C 
ATOM     16  C   UNL     1       5.371  -3.981   3.167  0.00  0.00    +0.047 C 
BRANCH  11  17
ATOM     17  C   UNL     1       8.245  -5.362   3.221  0.00  0.00    +0.162 C 
ATOM     18  O   UNL     1       9.003  -4.568   2.704  0.00  0.00    -0.292 OA
ATOM     19  C   UNL     1       8.509  -5.854   4.621  0.00  0.00    +0.091 C 
ENDBRANCH  11  17
ENDBRANCH   5   9
BRANCH   1  24
ATOM     20  C   UNL     1      -0.233   1.388   0.433  0.00  0.00    +0.044 C 
ATOM     21  C   UNL     1      -0.177  -0.116   0.359  0.00  0.00    -0.050 A 
ATOM     22  C   UNL     1       1.014  -0.746   0.043  0.00  0.00    +0.005 A 
ATOM     23  C   UNL     1       1.073  -2.122  -0.026  0.00  0.00    +0.028 A 
ATOM     24  C   UNL     1      -0.073  -2.880   0.225  0.00  0.00    +0.067 A 
ATOM     25  C   UNL     1      -1.272  -2.237   0.544  0.00  0.00    +0.028 A 
ATOM     26  C   UNL     1      -1.315  -0.861   0.614  0.00  0.00    +0.005 A 
ENDBRANCH   1  24
TORSDOF 3
