REMARK  Name = ZINC25406720
REMARK  6 active torsions:
REMARK  status: ('A' for Active; 'I' for Inactive)
REMARK    1  A    between atoms: C_1  and  C_2
REMARK    2  A    between atoms: C_2  and  C_4
REMARK    3  A    between atoms: C_2  and  N_24
REMARK    4  A    between atoms: N_6  and  C_7
REMARK    5  A    between atoms: C_11  and  S_13
REMARK    6  A    between atoms: S_13  and  N_16
REMARK                            x       y       z     vdW  Elec       q    Type
REMARK                         _______ _______ _______ _____ _____    ______ ____
ROOT
ATOM      1  C   UNL     1      -5.794   2.347  -1.141  0.00  0.00    +0.035 A 
ATOM      2  C   UNL     1      -5.466   3.626  -1.571  0.00  0.00    +0.023 A 
ATOM      3  C   UNL     1      -6.453   4.471  -2.039  0.00  0.00    +0.004 A 
ATOM      4  C   UNL     1      -7.769   4.048  -2.070  0.00  0.00    +0.029 A 
ATOM      5  C   UNL     1      -8.101   2.777  -1.638  0.00  0.00    +0.114 A 
ATOM      6  C   UNL     1      -7.117   1.925  -1.174  0.00  0.00    +0.052 A 
ENDROOT
BRANCH   1   9
ATOM      7  C   UNL     1      -3.557   1.539  -1.201  0.00  0.00    +0.237 C 
ATOM      8  O   UNL     1      -3.333   2.263  -2.148  0.00  0.00    -0.273 OA
ATOM      9  N   UNL     1      -4.796   1.487  -0.672  0.00  0.00    -0.284 N 
ATOM     10  H   UNL     1      -5.021   0.767   0.130  0.00  0.00    +0.155 HD
BRANCH   7  12
ATOM     11  C   UNL     1      -2.243   1.079   0.851  0.00  0.00    +0.038 C 
ATOM     12  C   UNL     1      -2.452   0.699  -0.616  0.00  0.00    +0.158 C 
BRANCH  12  13
ATOM     13  N   UNL     1      -1.213   0.933  -1.362  0.00  0.00    -0.289 N 
ATOM     14  C   UNL     1      -0.253  -0.012  -1.388  0.00  0.00    +0.298 C 
ATOM     15  O   UNL     1      -0.414  -1.059  -0.792  0.00  0.00    -0.253 OA
ATOM     16  N   UNL     1       0.885   0.202  -2.079  0.00  0.00    -0.313 N 
ATOM     17  H   UNL     1      -1.067   1.881  -1.902  0.00  0.00    +0.151 HD
ATOM     18  H   UNL     1       1.669  -0.570  -2.100  0.00  0.00    +0.146 HD
ATOM     19  H   UNL     1       1.029   1.147  -2.622  0.00  0.00    +0.146 HD
ENDBRANCH  12  13
ENDBRANCH   7  12
ENDBRANCH   1   9
BRANCH   5  20
ATOM     20  S   UNL     1      -9.779   2.243  -1.680  0.00  0.00    +0.100 S 
ATOM     21  O   UNL     1     -10.431   3.031  -2.667  0.00  0.00    -0.146 OA
ATOM     22  O   UNL     1      -9.753   0.823  -1.734  0.00  0.00    -0.146 OA
BRANCH  20  23
ATOM     23  N   UNL     1     -10.458   2.649  -0.225  0.00  0.00    -0.118 NA
ATOM     24  C   UNL     1     -11.698   2.367   0.011  0.00  0.00    +0.117 C 
ATOM     25  C   UNL     1     -12.540   1.666  -1.053  0.00  0.00    +0.073 C 
ATOM     26  C   UNL     1     -12.818   0.261  -0.545  0.00  0.00    +0.008 C 
ATOM     27  C   UNL     1     -14.079   0.165   0.315  0.00  0.00    +0.002 C 
ATOM     28  C   UNL     1     -14.215   1.317   1.311  0.00  0.00    +0.019 C 
ATOM     29  C   UNL     1     -12.915   1.666   2.001  0.00  0.00    +0.102 C 
ATOM     30  N   UNL     1     -12.241   2.689   1.168  0.00  0.00    -0.331 N 
ATOM     31  H   UNL     1     -12.189   3.732   1.514  0.00  0.00    +0.147 HD
ENDBRANCH  20  23
ENDBRANCH   5  20
TORSDOF 5
