REMARK  Name = ZINC21260254
REMARK  6 active torsions:
REMARK  status: ('A' for Active; 'I' for Inactive)
REMARK    1  A    between atoms: C_1  and  O_2
REMARK    2  A    between atoms: O_2  and  C_3
REMARK    3  A    between atoms: C_8  and  C_9
REMARK    4  A    between atoms: C_14  and  C_24
REMARK    5  A    between atoms: C_27  and  O_31
REMARK    6  A    between atoms: O_31  and  C_32
REMARK                            x       y       z     vdW  Elec       q    Type
REMARK                         _______ _______ _______ _____ _____    ______ ____
ROOT
ATOM      1  C   UNL     1      -0.326   5.333   0.630  0.00  0.00    +0.035 C 
ATOM      2  C   UNL     1      -0.999   5.714  -0.688  0.00  0.00    +0.060 C 
ATOM      3  C   UNL     1      -0.952   7.221  -0.876  0.00  0.00    +0.017 C 
ATOM      4  C   UNL     1      -1.003   8.043   0.187  0.00  0.00    +0.036 C 
ATOM      5  C   UNL     1      -0.970   9.552   0.143  0.00  0.00    +0.136 C 
ATOM      6  N   UNL     1      -1.139  10.118  -1.178  0.00  0.00    -0.331 N 
ATOM      7  C   UNL     1      -0.193   9.903  -2.179  0.00  0.00    +0.049 A 
ATOM      8  C   UNL     1       0.554  10.944  -2.706  0.00  0.00    +0.025 A 
ATOM      9  C   UNL     1       1.514  10.674  -3.665  0.00  0.00    +0.002 A 
ATOM     10  C   UNL     1       1.732   9.377  -4.093  0.00  0.00    +0.002 A 
ATOM     11  C   UNL     1       0.975   8.336  -3.580  0.00  0.00    +0.025 A 
ATOM     12  C   UNL     1      -0.001   8.608  -2.638  0.00  0.00    +0.052 A 
ATOM     13  N   UNL     1      -0.870   7.632  -2.167  0.00  0.00    -0.316 N 
ATOM     14  C   UNL     1      -1.083   7.510   1.495  0.00  0.00    +0.163 C 
ATOM     15  O   UNL     1      -1.153   8.276   2.437  0.00  0.00    -0.292 OA
ATOM     16  C   UNL     1      -1.084   6.035   1.763  0.00  0.00    +0.088 C 
ATOM     17  H   UNL     1      -2.025  10.730  -1.405  0.00  0.00    +0.147 HD
ATOM     18  H   UNL     1      -1.524   7.183  -2.929  0.00  0.00    +0.152 HD
ENDROOT
BRANCH   5  19
ATOM     19  C   UNL     1       0.353  10.016   0.696  0.00  0.00    -0.021 A 
ATOM     20  C   UNL     1       1.528   9.682   0.048  0.00  0.00    +0.009 A 
ATOM     21  C   UNL     1       2.741  10.110   0.549  0.00  0.00    +0.047 A 
ATOM     22  C   UNL     1       2.782  10.868   1.710  0.00  0.00    +0.134 A 
ATOM     23  C   UNL     1       1.602  11.198   2.362  0.00  0.00    +0.060 A 
ATOM     24  C   UNL     1       0.390  10.771   1.853  0.00  0.00    +0.024 A 
ATOM     25 BR   UNL     1       1.653  12.232   3.945  0.00  0.00    -0.047 Br
BRANCH  22  26
ATOM     26  O   UNL     1       3.975  11.286   2.209  0.00  0.00    -0.494 OA
ATOM     27  C   UNL     1       5.149  10.909   1.486  0.00  0.00    +0.277 C 
ENDBRANCH  22  26
ENDBRANCH   5  19
BRANCH   1  33
ATOM     28  C   UNL     1       0.781   3.107   0.956  0.00  0.00    +0.124 A 
ATOM     29  C   UNL     1       0.719   1.732   1.132  0.00  0.00    +0.046 A 
ATOM     30  C   UNL     1      -0.506   1.096   1.173  0.00  0.00    +0.004 A 
ATOM     31  C   UNL     1      -1.671   1.828   1.033  0.00  0.00    +0.001 A 
ATOM     32  C   UNL     1      -1.613   3.199   0.863  0.00  0.00    +0.007 A 
ATOM     33  C   UNL     1      -0.389   3.839   0.822  0.00  0.00    -0.002 A 
BRANCH  28  35
ATOM     34  C   UNL     1       3.148   2.916   1.061  0.00  0.00    +0.277 C 
ATOM     35  O   UNL     1       1.985   3.734   0.916  0.00  0.00    -0.495 OA
ENDBRANCH  28  35
ENDBRANCH   1  33
TORSDOF 4
