REMARK  Name = ZINC49382741
REMARK  6 active torsions:
REMARK  status: ('A' for Active; 'I' for Inactive)
REMARK    1  A    between atoms: C_4  and  C_7
REMARK    2  A    between atoms: C_7  and  N_8
REMARK    3  A    between atoms: C_11  and  N_14
REMARK    4  A    between atoms: C_15  and  C_17
REMARK    5  A    between atoms: C_17  and  N_18
REMARK    6  A    between atoms: N_21  and  C_24
REMARK                            x       y       z     vdW  Elec       q    Type
REMARK                         _______ _______ _______ _____ _____    ______ ____
ROOT
ATOM      1  N   UNL     1       5.453  -2.750   4.947  0.00  0.00    -0.311 N 
ATOM      2  C   UNL     1       6.373  -3.677   5.282  0.00  0.00    +0.231 C 
ATOM      3  O   UNL     1       6.846  -4.398   4.428  0.00  0.00    -0.274 OA
ATOM      4  H   UNL     1       5.075  -2.174   5.630  0.00  0.00    +0.149 HD
ENDROOT
BRANCH   1   8
ATOM      5  N   UNL     1       4.162  -0.882   1.397  0.00  0.00    +0.382 N 
ATOM      6  C   UNL     1       3.210  -1.791   2.048  0.00  0.00    -0.077 C 
ATOM      7  C   UNL     1       3.620  -2.005   3.507  0.00  0.00    +0.003 C 
ATOM      8  C   UNL     1       5.024  -2.614   3.553  0.00  0.00    +0.069 C 
ATOM      9  C   UNL     1       5.994  -1.694   2.807  0.00  0.00    +0.003 C 
ATOM     10  C   UNL     1       5.497  -1.492   1.374  0.00  0.00    -0.077 C 
ATOM     11  H   UNL     1       4.198  -0.014   1.909  0.00  0.00    -0.081 HD
BRANCH   5  12
ATOM     12  C   UNL     1       3.721  -0.620   0.020  0.00  0.00    -0.043 C 
BRANCH  12  16
ATOM     13  C   UNL     1      -0.005   1.468   0.089  0.00  0.00    +0.000 A 
ATOM     14  C   UNL     1       1.183   2.174   0.091  0.00  0.00    +0.000 A 
ATOM     15  C   UNL     1       2.389   1.499   0.069  0.00  0.00    +0.002 A 
ATOM     16  C   UNL     1       2.406   0.117   0.045  0.00  0.00    -0.064 A 
ATOM     17  C   UNL     1       1.218  -0.590   0.044  0.00  0.00    +0.002 A 
ATOM     18  C   UNL     1       0.012   0.086   0.065  0.00  0.00    +0.000 A 
ENDBRANCH  12  16
ENDBRANCH   5  12
ENDBRANCH   1   8
BRANCH   2  19
ATOM     19  C   UNL     1       6.814  -3.817   6.716  0.00  0.00    +0.205 C 
BRANCH  19  20
ATOM     20  N   UNL     1       7.812  -4.885   6.817  0.00  0.00    -0.275 N 
ATOM     21  C   UNL     1       7.519  -6.305   7.061  0.00  0.00    +0.129 C 
ATOM     22  C   UNL     1       8.908  -6.972   7.073  0.00  0.00    +0.134 C 
ATOM     23  N   UNL     1       9.836  -5.857   6.835  0.00  0.00    -0.254 N 
ATOM     24  C   UNL     1       9.136  -4.723   6.697  0.00  0.00    +0.310 C 
ATOM     25  O   UNL     1       9.656  -3.645   6.486  0.00  0.00    -0.252 OA
BRANCH  23  26
ATOM     26  C   UNL     1      11.230  -5.964   6.758  0.00  0.00    +0.038 A 
ATOM     27  C   UNL     1      11.995  -4.857   6.417  0.00  0.00    +0.025 A 
ATOM     28  C   UNL     1      13.370  -4.965   6.342  0.00  0.00    +0.022 A 
ATOM     29  C   UNL     1      13.985  -6.176   6.606  0.00  0.00    +0.041 A 
ATOM     30  C   UNL     1      13.225  -7.281   6.947  0.00  0.00    +0.022 A 
ATOM     31  C   UNL     1      11.851  -7.177   7.029  0.00  0.00    +0.025 A 
ATOM     32 CL   UNL     1      15.713  -6.309   6.511  0.00  0.00    -0.084 Cl
ENDBRANCH  23  26
ENDBRANCH  19  20
ENDBRANCH   2  19
TORSDOF 6
