REMARK  Name = ZINC39640538
REMARK  9 active torsions:
REMARK  status: ('A' for Active; 'I' for Inactive)
REMARK    1  A    between atoms: C_6  and  N_7
REMARK    2  A    between atoms: C_8  and  C_10
REMARK    3  A    between atoms: C_10  and  N_11
REMARK    4  A    between atoms: C_12  and  C_14
REMARK    5  A    between atoms: C_14  and  O_15
REMARK    6  A    between atoms: O_15  and  C_16
REMARK    7  A    between atoms: C_16  and  C_18
REMARK    8  A    between atoms: C_18  and  N_19
REMARK    9  A    between atoms: C_20  and  C_22
REMARK                            x       y       z     vdW  Elec       q    Type
REMARK                         _______ _______ _______ _____ _____    ______ ____
ROOT
ATOM      1  C   UNL     1      -7.199   0.572   0.599  0.00  0.00    +0.327 C 
ENDROOT
BRANCH   1   3
ATOM      2  N   UNL     1      -4.785   0.085   0.362  0.00  0.00    -0.304 N 
ATOM      3  C   UNL     1      -6.042  -0.387   0.483  0.00  0.00    +0.251 C 
ATOM      4  O   UNL     1      -6.241  -1.583   0.497  0.00  0.00    -0.272 OA
ATOM      5  H   UNL     1      -4.625   1.042   0.350  0.00  0.00    +0.149 HD
BRANCH   2   6
ATOM      6  C   UNL     1      -3.660  -0.846   0.249  0.00  0.00    +0.200 C 
BRANCH   6   8
ATOM      7  N   UNL     1      -1.201  -0.722   0.010  0.00  0.00    -0.282 N 
ATOM      8  C   UNL     1      -2.375  -0.070   0.127  0.00  0.00    +0.234 C 
ATOM      9  O   UNL     1      -2.396   1.143   0.134  0.00  0.00    -0.274 OA
ATOM     10  H   UNL     1      -1.190  -1.688  -0.076  0.00  0.00    +0.155 HD
BRANCH   7  16
ATOM     11  C   UNL     1       0.069   1.238   0.627  0.00  0.00    +0.029 A 
ATOM     12  C   UNL     1       1.257   1.944   0.630  0.00  0.00    +0.043 A 
ATOM     13  C   UNL     1       2.382   1.415   0.021  0.00  0.00    +0.161 A 
ATOM     14  C   UNL     1       2.320   0.173  -0.593  0.00  0.00    +0.195 A 
ATOM     15  C   UNL     1       1.132  -0.538  -0.598  0.00  0.00    +0.182 A 
ATOM     16  C   UNL     1       0.003  -0.005   0.013  0.00  0.00    +0.072 A 
ATOM     17  F   UNL     1       1.070  -1.748  -1.196  0.00  0.00    -0.200 F 
ATOM     18  F   UNL     1       3.418  -0.343  -1.187  0.00  0.00    -0.199 F 
ATOM     19  F   UNL     1       3.541   2.108   0.026  0.00  0.00    -0.202 F 
ENDBRANCH   7  16
ENDBRANCH   6   8
ENDBRANCH   2   6
ENDBRANCH   1   3
BRANCH   1  20
ATOM     20  O   UNL     1      -8.418  -0.165   0.715  0.00  0.00    -0.454 OA
BRANCH  20  21
ATOM     21  C   UNL     1      -9.551   0.545   0.828  0.00  0.00    +0.325 C 
ATOM     22  O   UNL     1      -9.509   1.753   0.829  0.00  0.00    -0.249 OA
BRANCH  21  23
ATOM     23  C   UNL     1     -10.875  -0.163   0.954  0.00  0.00    +0.224 C 
BRANCH  23  24
ATOM     24  N   UNL     1     -11.950   0.827   1.063  0.00  0.00    -0.304 N 
ATOM     25  C   UNL     1     -13.229   0.421   1.186  0.00  0.00    +0.220 C 
ATOM     26  O   UNL     1     -13.491  -0.763   1.206  0.00  0.00    -0.275 OA
ATOM     27  H   UNL     1     -11.741   1.774   1.046  0.00  0.00    +0.149 HD
BRANCH  25  28
ATOM     28  C   UNL     1     -14.335   1.439   1.298  0.00  0.00    +0.048 C 
ATOM     29  C   UNL     1     -14.103   2.311   2.534  0.00  0.00    +0.019 C 
ATOM     30  C   UNL     1     -15.225   3.344   2.647  0.00  0.00    -0.009 C 
ATOM     31  C   UNL     1     -16.570   2.625   2.775  0.00  0.00    +0.007 C 
ATOM     32  C   UNL     1     -16.802   1.754   1.539  0.00  0.00    -0.009 C 
ATOM     33  C   UNL     1     -15.679   0.720   1.425  0.00  0.00    +0.019 C 
ATOM     34  C   UNL     1     -16.812   2.635   0.288  0.00  0.00    +0.007 C 
ATOM     35  C   UNL     1     -15.467   3.354   0.160  0.00  0.00    -0.009 C 
ATOM     36  C   UNL     1     -15.235   4.225   1.396  0.00  0.00    +0.007 C 
ATOM     37  C   UNL     1     -14.345   2.321   0.047  0.00  0.00    +0.019 C 
ENDBRANCH  25  28
ENDBRANCH  23  24
ENDBRANCH  21  23
ENDBRANCH  20  21
ENDBRANCH   1  20
TORSDOF 9
