REMARK  Name = ZINC02820276
REMARK  9 active torsions:
REMARK  status: ('A' for Active; 'I' for Inactive)
REMARK    1  A    between atoms: C_4  and  C_7
REMARK    2  A    between atoms: C_7  and  O_8
REMARK    3  A    between atoms: O_8  and  C_9
REMARK    4  A    between atoms: C_14  and  C_15
REMARK    5  A    between atoms: N_16  and  N_17
REMARK    6  A    between atoms: C_18  and  C_20
REMARK    7  A    between atoms: C_20  and  C_21
REMARK    8  A    between atoms: C_20  and  C_27
REMARK    9  A    between atoms: C_20  and  O_33
REMARK                            x       y       z     vdW  Elec       q    Type
REMARK                         _______ _______ _______ _____ _____    ______ ____
ROOT
ATOM      1  N   UNL     1       2.169   2.624  -4.772  0.00  0.00    -0.204 N 
ATOM      2  C   UNL     1       1.240   2.211  -5.657  0.00  0.00    +0.273 C 
ATOM      3  O   UNL     1       0.510   3.019  -6.191  0.00  0.00    -0.270 OA
ATOM      4  H   UNL     1       2.753   1.978  -4.345  0.00  0.00    +0.177 HD
ENDROOT
BRANCH   1   6
ATOM      5  C   UNL     1       3.187   4.385  -3.619  0.00  0.00    +0.142 C 
ATOM      6  N   UNL     1       2.292   3.987  -4.471  0.00  0.00    -0.188 NA
BRANCH   5  12
ATOM      7  C   UNL     1       2.474   6.755  -3.916  0.00  0.00    +0.130 A 
ATOM      8  C   UNL     1       2.607   8.100  -3.615  0.00  0.00    +0.047 A 
ATOM      9  C   UNL     1       3.558   8.516  -2.702  0.00  0.00    +0.019 A 
ATOM     10  C   UNL     1       4.393   7.594  -2.092  0.00  0.00    +0.019 A 
ATOM     11  C   UNL     1       4.278   6.250  -2.385  0.00  0.00    +0.028 A 
ATOM     12  C   UNL     1       3.316   5.818  -3.301  0.00  0.00    +0.037 A 
ATOM     13 BR   UNL     1       5.695   8.179  -0.852  0.00  0.00    -0.050 Br
BRANCH   7  14
ATOM     14  O   UNL     1       1.536   6.345  -4.809  0.00  0.00    -0.487 OA
BRANCH  14  15
ATOM     15  C   UNL     1       0.714   7.356  -5.396  0.00  0.00    +0.264 C 
BRANCH  15  19
ATOM     16  C   UNL     1      -2.048   5.550  -8.107  0.00  0.00    +0.000 A 
ATOM     17  C   UNL     1      -0.810   5.969  -8.559  0.00  0.00    +0.000 A 
ATOM     18  C   UNL     1       0.083   6.553  -7.681  0.00  0.00    +0.007 A 
ATOM     19  C   UNL     1      -0.260   6.719  -6.352  0.00  0.00    -0.010 A 
ATOM     20  C   UNL     1      -1.498   6.300  -5.901  0.00  0.00    +0.007 A 
ATOM     21  C   UNL     1      -2.392   5.715  -6.779  0.00  0.00    +0.000 A 
ENDBRANCH  15  19
ENDBRANCH  14  15
ENDBRANCH   7  14
ENDBRANCH   5  12
ENDBRANCH   1   6
BRANCH   2  22
ATOM     22  C   UNL     1       1.108   0.745  -5.981  0.00  0.00    +0.194 C 
BRANCH  22  23
ATOM     23  C   UNL     1      -0.293   0.461  -6.459  0.00  0.00    -0.003 A 
ATOM     24  C   UNL     1      -1.121  -0.362  -5.718  0.00  0.00    +0.007 A 
ATOM     25  C   UNL     1      -2.408  -0.619  -6.154  0.00  0.00    +0.000 A 
ATOM     26  C   UNL     1      -2.863  -0.062  -7.334  0.00  0.00    +0.000 A 
ATOM     27  C   UNL     1      -2.032   0.756  -8.077  0.00  0.00    +0.000 A 
ATOM     28  C   UNL     1      -0.747   1.018  -7.639  0.00  0.00    +0.007 A 
ENDBRANCH  22  23
BRANCH  22  29
ATOM     29  C   UNL     1       2.091   0.380  -7.064  0.00  0.00    -0.003 A 
ATOM     30  C   UNL     1       2.305   1.243  -8.123  0.00  0.00    +0.007 A 
ATOM     31  C   UNL     1       3.211   0.910  -9.113  0.00  0.00    +0.000 A 
ATOM     32  C   UNL     1       3.895  -0.290  -9.049  0.00  0.00    +0.000 A 
ATOM     33  C   UNL     1       3.676  -1.155  -7.993  0.00  0.00    +0.000 A 
ATOM     34  C   UNL     1       2.774  -0.820  -7.000  0.00  0.00    +0.007 A 
ENDBRANCH  22  29
BRANCH  22  35
ATOM     35  O   UNL     1       1.379  -0.028  -4.811  0.00  0.00    -0.371 OA
ATOM     36  H   UNL     1       0.783   0.155  -4.072  0.00  0.00    +0.212 HD
ENDBRANCH  22  35
ENDBRANCH   2  22
TORSDOF 9
