REMARK  Name = ZINC00690802
REMARK  7 active torsions:
REMARK  status: ('A' for Active; 'I' for Inactive)
REMARK    1  A    between atoms: C_1  and  N_2
REMARK    2  A    between atoms: N_2  and  C_3
REMARK    3  A    between atoms: N_2  and  N_4
REMARK    4  A    between atoms: C_7  and  C_14
REMARK    5  A    between atoms: C_9  and  C_12
REMARK    6  A    between atoms: C_10  and  N_11
REMARK    7  A    between atoms: C_24  and  C_27
REMARK                            x       y       z     vdW  Elec       q    Type
REMARK                         _______ _______ _______ _____ _____    ______ ____
ROOT
ATOM      1  N   UNL     1       4.639   5.379   2.126  0.00  0.00    -0.223 N 
ATOM      2  C   UNL     1       4.060   4.977   0.953  0.00  0.00    +0.037 C 
ATOM      3  C   UNL     1       4.215   5.702  -0.175  0.00  0.00    +0.026 C 
ATOM      4  C   UNL     1       5.011   6.982  -0.170  0.00  0.00    +0.097 C 
ATOM      5  C   UNL     1       5.901   7.061   1.035  0.00  0.00    +0.078 C 
ATOM      6  C   UNL     1       5.684   6.272   2.120  0.00  0.00    +0.117 C 
ATOM      7  C   UNL     1       3.636   5.288  -1.387  0.00  0.00    +0.162 C 
ATOM      8  O   UNL     1       3.787   5.968  -2.383  0.00  0.00    -0.292 OA
ATOM      9  C   UNL     1       2.833   4.019  -1.476  0.00  0.00    +0.088 C 
ATOM     10  C   UNL     1       3.336   3.035  -0.415  0.00  0.00    +0.032 C 
ATOM     11  C   UNL     1       3.243   3.708   0.956  0.00  0.00    +0.061 C 
ENDROOT
BRANCH   4  12
ATOM     12  C   UNL     1       4.064   8.154  -0.160  0.00  0.00    -0.035 A 
ATOM     13  C   UNL     1       3.163   8.305   0.877  0.00  0.00    +0.006 A 
ATOM     14  C   UNL     1       2.297   9.383   0.889  0.00  0.00    +0.020 A 
ATOM     15  C   UNL     1       2.325  10.304  -0.143  0.00  0.00    +0.041 A 
ATOM     16  C   UNL     1       3.223  10.148  -1.184  0.00  0.00    +0.020 A 
ATOM     17  C   UNL     1       4.092   9.073  -1.192  0.00  0.00    +0.006 A 
ATOM     18 CL   UNL     1       1.233  11.653  -0.132  0.00  0.00    -0.084 Cl
ENDBRANCH   4  12
BRANCH  10  19
ATOM     19  C   UNL     1       2.481   1.794  -0.430  0.00  0.00    -0.044 A 
ATOM     20  C   UNL     1       3.053   0.563  -0.694  0.00  0.00    +0.004 A 
ATOM     21  C   UNL     1       2.268  -0.575  -0.706  0.00  0.00    +0.000 A 
ATOM     22  C   UNL     1       0.911  -0.482  -0.459  0.00  0.00    +0.000 A 
ATOM     23  C   UNL     1       0.340   0.748  -0.191  0.00  0.00    +0.000 A 
ATOM     24  C   UNL     1       1.125   1.886  -0.178  0.00  0.00    +0.004 A 
ENDBRANCH  10  19
BRANCH   1  26
ATOM     25  C   UNL     1       5.162   3.996   3.937  0.00  0.00    +0.128 C 
ATOM     26  N   UNL     1       4.175   4.888   3.314  0.00  0.00    -0.227 NA
ATOM     27  C   UNL     1       3.803   5.979   4.224  0.00  0.00    +0.128 C 
ENDBRANCH   1  26
BRANCH   6  28
ATOM     28  N   UNL     1       6.510   6.368   3.214  0.00  0.00    -0.344 N 
ATOM     29  H   UNL     1       6.186   6.109   4.091  0.00  0.00    +0.144 HD
ATOM     30  H   UNL     1       7.417   6.695   3.109  0.00  0.00    +0.144 HD
ENDBRANCH   6  28
BRANCH   5  31
ATOM     31  C   UNL     1       6.998   7.981   1.042  0.00  0.00    +0.099 C 
ATOM     32  N   UNL     1       7.868   8.711   1.047  0.00  0.00    -0.191 NA
ENDBRANCH   5  31
TORSDOF 5
