REMARK  Name = ZINC09307580
REMARK  7 active torsions:
REMARK  status: ('A' for Active; 'I' for Inactive)
REMARK    1  A    between atoms: C_1  and  N_60
REMARK    2  A    between atoms: C_2  and  C_3
REMARK    3  A    between atoms: C_2  and  N_60
REMARK    4  A    between atoms: C_4  and  C_14
REMARK    5  A    between atoms: N_16  and  N_17
REMARK    6  A    between atoms: C_18  and  C_19
REMARK    7  A    between atoms: C_26  and  N_60
REMARK                            x       y       z     vdW  Elec       q    Type
REMARK                         _______ _______ _______ _____ _____    ______ ____
ROOT
ATOM      1  C   UNL     1       6.790   7.343   2.584  0.00  0.00    +0.063 A 
ATOM      2  C   UNL     1       6.043   6.691   1.645  0.00  0.00    +0.170 A 
ATOM      3  N   UNL     1       6.626   6.857   0.446  0.00  0.00    -0.124 NA
ATOM      4  N   UNL     1       7.684   7.578   0.577  0.00  0.00    -0.058 NA
ATOM      5  N   UNL     1       7.830   7.909   1.931  0.00  0.00    -0.194 N 
ATOM      6  C   UNL     1       8.854   8.676   2.498  0.00  0.00    +0.240 A 
ATOM      7  C   UNL     1       9.977   9.277   1.774  0.00  0.00    +0.206 A 
ATOM      8  N   UNL     1      10.722   9.919   2.631  0.00  0.00    -0.032 NA
ATOM      9  O   UNL     1      10.141   9.761   3.914  0.00  0.00    -0.239 OA
ATOM     10  N   UNL     1       8.974   8.973   3.761  0.00  0.00    -0.027 NA
ATOM     11  N   UNL     1      10.207   9.182   0.406  0.00  0.00    -0.337 N 
ATOM     12  H   UNL     1       9.594   8.683  -0.156  0.00  0.00    +0.144 HD
ATOM     13  H   UNL     1      10.981   9.616   0.013  0.00  0.00    +0.144 HD
ENDROOT
BRANCH   2  14
ATOM     14  C   UNL     1       4.808   5.928   1.905  0.00  0.00    +0.285 C 
ATOM     15  O   UNL     1       4.374   5.840   3.038  0.00  0.00    -0.267 OA
ATOM     16  N   UNL     1       4.160   5.327   0.887  0.00  0.00    -0.202 N 
ATOM     17  H   UNL     1       4.506   5.397  -0.017  0.00  0.00    +0.178 HD
BRANCH  16  18
ATOM     18  N   UNL     1       2.986   4.602   1.133  0.00  0.00    -0.192 NA
ATOM     19  C   UNL     1       2.371   4.032   0.166  0.00  0.00    +0.107 C 
BRANCH  19  20
ATOM     20  C   UNL     1       1.109   3.252   0.432  0.00  0.00    +0.036 C 
ATOM     21  C   UNL     1      -0.047   3.850  -0.381  0.00  0.00    +0.013 C 
ATOM     22  C   UNL     1      -1.344   3.157   0.041  0.00  0.00    +0.027 C 
ATOM     23  C   UNL     1      -1.164   1.667   0.017  0.00  0.00    -0.031 C 
ATOM     24  C   UNL     1      -0.013   1.076   0.008  0.00  0.00    -0.030 C 
ATOM     25  C   UNL     1       1.303   1.797  -0.001  0.00  0.00    +0.036 C 
ENDBRANCH  19  20
ENDBRANCH  16  18
ENDBRANCH   2  14
BRANCH   1  26
ATOM     26  C   UNL     1       6.511   7.417   4.063  0.00  0.00    -0.020 C 
BRANCH  26  28
ATOM     27  C   UNL     1       4.338   8.437   3.744  0.00  0.00    -0.095 C 
ATOM     28  N   UNL     1       5.683   8.611   4.333  0.00  0.00    +0.383 N 
ATOM     29  H   UNL     1       6.130   9.430   3.905  0.00  0.00    -0.081 HD
BRANCH  28  30
ATOM     30  C   UNL     1       5.572   8.830   5.790  0.00  0.00    -0.068 C 
ATOM     31  C   UNL     1       4.841   7.662   6.454  0.00  0.00    -0.015 C 
ATOM     32  C   UNL     1       4.738   7.914   7.960  0.00  0.00    -0.002 C 
ATOM     33  C   UNL     1       3.962   9.209   8.208  0.00  0.00    -0.000 C 
ATOM     34  C   UNL     1       4.693  10.377   7.544  0.00  0.00    -0.002 C 
ATOM     35  C   UNL     1       4.795  10.125   6.039  0.00  0.00    -0.015 C 
ENDBRANCH  28  30
ENDBRANCH  26  28
ENDBRANCH   1  26
TORSDOF 6
