REMARK  Name = ZINC15673239
REMARK  10 active torsions:
REMARK  status: ('A' for Active; 'I' for Inactive)
REMARK    1  A    between atoms: C_1  and  C_2
REMARK    2  A    between atoms: C_2  and  C_3
REMARK    3  A    between atoms: C_12  and  C_25
REMARK    4  A    between atoms: C_12  and  C_26
REMARK    5  A    between atoms: N_13  and  C_16
REMARK    6  A    between atoms: C_16  and  C_17
REMARK    7  A    between atoms: C_17  and  N_77
REMARK    8  A    between atoms: C_18  and  N_77
REMARK    9  A    between atoms: C_19  and  N_77
REMARK   10  A    between atoms: N_28  and  C_29
REMARK                            x       y       z     vdW  Elec       q    Type
REMARK                         _______ _______ _______ _____ _____    ______ ____
ROOT
ATOM      1  C   UNL     1      -6.960  -3.882   0.094  0.00  0.00    -0.008 A 
ATOM      2  C   UNL     1      -5.843  -3.442  -0.521  0.00  0.00    +0.037 A 
ATOM      3  C   UNL     1      -4.888  -2.703   0.193  0.00  0.00    +0.057 A 
ATOM      4  C   UNL     1      -5.188  -2.471   1.544  0.00  0.00    +0.038 A 
ATOM      5  S   UNL     1      -6.752  -3.278   1.760  0.00  0.00    -0.092 S 
ATOM      6  C   UNL     1      -4.167  -1.728   2.125  0.00  0.00    +0.048 A 
ATOM      7  C   UNL     1      -3.239  -1.492   1.155  0.00  0.00    +0.106 A 
ATOM      8  N   UNL     1      -3.667  -2.091  -0.025  0.00  0.00    -0.333 N 
ATOM      9  C   UNL     1      -2.873  -2.035  -1.255  0.00  0.00    +0.157 C 
ATOM     10  C   UNL     1      -2.047  -0.749  -1.258  0.00  0.00    +0.128 C 
ATOM     11  N   UNL     1      -1.372  -0.511   0.012  0.00  0.00    -0.282 N 
ATOM     12  C   UNL     1      -1.974  -0.750   1.201  0.00  0.00    +0.264 C 
ATOM     13  O   UNL     1      -1.494  -0.366   2.252  0.00  0.00    -0.268 OA
ATOM     14  C   UNL     1      -0.996  -0.839  -2.366  0.00  0.00    +0.043 C 
ENDROOT
BRANCH  10  15
ATOM     15  C   UNL     1      -2.961   0.414  -1.549  0.00  0.00    +0.238 C 
ATOM     16  O   UNL     1      -3.124   0.786  -2.691  0.00  0.00    -0.273 OA
ATOM     17  N   UNL     1      -3.598   1.039  -0.539  0.00  0.00    -0.311 N 
ATOM     18  H   UNL     1      -3.468   0.741   0.375  0.00  0.00    +0.149 HD
BRANCH  17  19
ATOM     19  C   UNL     1      -4.487   2.169  -0.821  0.00  0.00    +0.073 C 
ATOM     20  C   UNL     1      -3.664   3.456  -0.904  0.00  0.00    +0.022 C 
ATOM     21  C   UNL     1      -4.592   4.636  -1.199  0.00  0.00    +0.002 C 
ATOM     22  C   UNL     1      -5.627   4.764  -0.079  0.00  0.00    +0.000 C 
ATOM     23  C   UNL     1      -6.449   3.476   0.004  0.00  0.00    +0.002 C 
ATOM     24  C   UNL     1      -5.521   2.296   0.299  0.00  0.00    +0.022 C 
ENDBRANCH  17  19
ENDBRANCH  10  15
BRANCH   1  26
ATOM     25  C   UNL     1      -7.804  -6.177  -0.319  0.00  0.00    +0.009 C 
ATOM     26  C   UNL     1      -8.098  -4.685  -0.482  0.00  0.00    +0.039 C 
ENDBRANCH   1  26
BRANCH  11  27
ATOM     27  C   UNL     1       0.002  -0.004   0.002  0.00  0.00    +0.091 C 
BRANCH  27  28
ATOM     28  C   UNL     1      -0.019   1.526   0.010  0.00  0.00    -0.060 C 
BRANCH  28  30
ATOM     29  C   UNL     1       2.058   1.687   1.245  0.00  0.00    -0.096 C 
ATOM     30  N   UNL     1       1.373   2.022  -0.022  0.00  0.00    +0.381 N 
ATOM     31  H   UNL     1       1.870   1.570  -0.799  0.00  0.00    -0.082 HD
BRANCH  30  32
ATOM     32  C   UNL     1       1.384   3.485  -0.231  0.00  0.00    -0.069 C 
ATOM     33  C   UNL     1       0.735   3.797  -1.581  0.00  0.00    -0.015 C 
ATOM     34  C   UNL     1       0.760   5.308  -1.821  0.00  0.00    -0.002 C 
ATOM     35  C   UNL     1       2.209   5.800  -1.825  0.00  0.00    -0.000 C 
ATOM     36  C   UNL     1       2.858   5.487  -0.475  0.00  0.00    -0.002 C 
ATOM     37  C   UNL     1       2.833   3.977  -0.235  0.00  0.00    -0.015 C 
ENDBRANCH  30  32
ENDBRANCH  28  30
ENDBRANCH  27  28
ENDBRANCH  11  27
TORSDOF 7
