REMARK  Name = ZINC63142031
REMARK  6 active torsions:
REMARK  status: ('A' for Active; 'I' for Inactive)
REMARK    1  A    between atoms: C_4  and  C_7
REMARK    2  A    between atoms: C_7  and  C_9
REMARK    3  A    between atoms: C_7  and  O_41
REMARK    4  A    between atoms: C_9  and  N_10
REMARK    5  A    between atoms: C_30  and  C_32
REMARK    6  A    between atoms: C_36  and  N_38
REMARK                            x       y       z     vdW  Elec       q    Type
REMARK                         _______ _______ _______ _____ _____    ______ ____
ROOT
ATOM      1  N   UNL     1       5.358  -1.774  -1.497  0.00  0.00    -0.288 N 
ATOM      2  C   UNL     1       6.643  -1.059  -1.610  0.00  0.00    +0.203 C 
ATOM      3  C   UNL     1       7.602  -1.630  -0.588  0.00  0.00    +0.234 C 
ATOM      4  O   UNL     1       8.305  -0.914   0.093  0.00  0.00    -0.274 OA
ATOM      5  N   UNL     1       7.639  -2.998  -0.466  0.00  0.00    -0.279 N 
ATOM      6  C   UNL     1       6.806  -3.728  -1.398  0.00  0.00    +0.167 C 
ATOM      7  C   UNL     1       5.420  -3.135  -1.403  0.00  0.00    +0.237 C 
ATOM      8  O   UNL     1       4.423  -3.823  -1.332  0.00  0.00    -0.274 OA
ATOM      9  C   UNL     1       6.785  -5.232  -1.313  0.00  0.00    +0.065 C 
ATOM     10  C   UNL     1       7.505  -5.684  -0.072  0.00  0.00    -0.034 C 
ATOM     11  C   UNL     1       7.239  -6.634   0.814  0.00  0.00    -0.001 A 
ATOM     12  C   UNL     1       6.159  -7.632   0.888  0.00  0.00    +0.010 A 
ATOM     13  C   UNL     1       6.184  -8.466   1.961  0.00  0.00    +0.001 A 
ATOM     14  C   UNL     1       7.163  -8.407   2.958  0.00  0.00    +0.002 A 
ATOM     15  C   UNL     1       8.194  -7.525   2.968  0.00  0.00    +0.026 A 
ATOM     16  C   UNL     1       8.278  -6.599   1.888  0.00  0.00    +0.043 A 
ATOM     17  N   UNL     1       9.151  -5.668   1.645  0.00  0.00    -0.375 N 
ATOM     18  C   UNL     1       8.799  -5.011   0.380  0.00  0.00    +0.131 C 
ATOM     19  C   UNL     1       8.463  -3.545   0.603  0.00  0.00    +0.133 C 
ATOM     20  H   UNL     1       9.909  -5.444   2.207  0.00  0.00    +0.160 HD
ENDROOT
BRANCH  19  21
ATOM     21  C   UNL     1       7.707  -3.447   1.903  0.00  0.00    -0.023 A 
ATOM     22  C   UNL     1       6.352  -3.720   1.937  0.00  0.00    +0.005 A 
ATOM     23  C   UNL     1       5.659  -3.631   3.130  0.00  0.00    +0.003 A 
ATOM     24  C   UNL     1       6.321  -3.268   4.288  0.00  0.00    +0.033 A 
ATOM     25  C   UNL     1       7.676  -2.996   4.254  0.00  0.00    +0.127 A 
ATOM     26  C   UNL     1       8.370  -3.090   3.062  0.00  0.00    +0.038 A 
BRANCH  25  27
ATOM     27  N   UNL     1       8.384  -2.608   5.495  0.00  0.00    +0.056 N 
ATOM     28  O   UNL     1       7.777  -2.529   6.537  0.00  0.00    -0.126 OA
ATOM     29  O   UNL     1       9.569  -2.370   5.465  0.00  0.00    -0.126 OA
ENDBRANCH  25  27
ENDBRANCH  19  21
BRANCH   1  30
ATOM     30  C   UNL     1       4.080  -1.059  -1.480  0.00  0.00    +0.144 C 
BRANCH  30  31
ATOM     31  C   UNL     1       3.711  -0.707  -0.038  0.00  0.00    +0.162 C 
BRANCH  31  35
ATOM     32  C   UNL     1      -0.017   1.378   0.010  0.00  0.00    +0.000 A 
ATOM     33  C   UNL     1       1.171   2.086   0.002  0.00  0.00    +0.000 A 
ATOM     34  C   UNL     1       2.377   1.411  -0.013  0.00  0.00    +0.006 A 
ATOM     35  C   UNL     1       2.396   0.029  -0.020  0.00  0.00    -0.018 A 
ATOM     36  C   UNL     1       1.208  -0.679  -0.012  0.00  0.00    +0.006 A 
ATOM     37  C   UNL     1       0.002  -0.004   0.002  0.00  0.00    +0.000 A 
ENDBRANCH  31  35
BRANCH  31  38
ATOM     38  O   UNL     1       3.596  -1.907   0.731  0.00  0.00    -0.386 OA
ATOM     39  H   UNL     1       2.922  -2.519   0.405  0.00  0.00    +0.210 HD
ENDBRANCH  31  38
ENDBRANCH  30  31
ENDBRANCH   1  30
TORSDOF 6
