REMARK  Name = ZINC01075907
REMARK  6 active torsions:
REMARK  status: ('A' for Active; 'I' for Inactive)
REMARK    1  A    between atoms: C_4  and  C_7
REMARK    2  A    between atoms: C_13  and  N_16
REMARK    3  A    between atoms: C_17  and  C_19
REMARK    4  A    between atoms: C_19  and  S_20
REMARK    5  A    between atoms: S_20  and  C_21
REMARK    6  A    between atoms: C_27  and  N_31
REMARK                            x       y       z     vdW  Elec       q    Type
REMARK                         _______ _______ _______ _____ _____    ______ ____
ROOT
ATOM      1  N   UNL     1       5.965   4.242  -0.031  0.00  0.00    -0.282 N 
ATOM      2  C   UNL     1       5.521   3.107   0.544  0.00  0.00    +0.228 C 
ATOM      3  O   UNL     1       6.307   2.342   1.061  0.00  0.00    -0.275 OA
ATOM      4  H   UNL     1       5.345   4.822  -0.501  0.00  0.00    +0.155 HD
ENDROOT
BRANCH   1  11
ATOM      5  C   UNL     1       7.858   8.103   0.291  0.00  0.00    +0.090 A 
ATOM      6  C   UNL     1       9.130   7.617   0.316  0.00  0.00    +0.121 A 
ATOM      7  N   UNL     1       9.041   6.256   0.227  0.00  0.00    -0.305 N 
ATOM      8  C   UNL     1       9.989   5.271   0.207  0.00  0.00    +0.093 A 
ATOM      9  C   UNL     1       9.633   3.973   0.111  0.00  0.00    +0.020 A 
ATOM     10  C   UNL     1       8.278   3.612   0.030  0.00  0.00    +0.028 A 
ATOM     11  C   UNL     1       7.318   4.584   0.049  0.00  0.00    +0.077 A 
ATOM     12  C   UNL     1       7.710   5.941   0.144  0.00  0.00    +0.160 A 
ATOM     13  N   UNL     1       7.013   7.065   0.190  0.00  0.00    -0.226 NA
BRANCH   5  17
ATOM     14  C   UNL     1       6.754  12.204   0.502  0.00  0.00    +0.000 A 
ATOM     15  C   UNL     1       5.776  11.232   0.398  0.00  0.00    +0.001 A 
ATOM     16  C   UNL     1       6.128   9.899   0.330  0.00  0.00    +0.010 A 
ATOM     17  C   UNL     1       7.473   9.534   0.365  0.00  0.00    +0.002 A 
ATOM     18  C   UNL     1       8.453  10.518   0.475  0.00  0.00    +0.010 A 
ATOM     19  C   UNL     1       8.090  11.848   0.537  0.00  0.00    +0.001 A 
ENDBRANCH   5  17
ENDBRANCH   1  11
BRANCH   2  20
ATOM     20  C   UNL     1       4.048   2.789   0.545  0.00  0.00    +0.173 C 
BRANCH  20  21
ATOM     21  S   UNL     1       3.772   1.210   1.386  0.00  0.00    -0.079 S 
BRANCH  21  22
ATOM     22  C   UNL     1       2.020   1.089   1.244  0.00  0.00    +0.168 A 
ATOM     23  N   UNL     1       1.263   0.059   1.725  0.00  0.00    -0.333 N 
ATOM     24  H   UNL     1       1.599  -0.748   2.210  0.00  0.00    +0.168 HD
ATOM     25  C   UNL     1      -0.058   0.340   1.413  0.00  0.00    +0.067 A 
ATOM     26  C   UNL     1      -1.258  -0.318   1.634  0.00  0.00    +0.030 A 
ATOM     27  C   UNL     1      -2.439   0.239   1.187  0.00  0.00    +0.035 A 
ATOM     28  C   UNL     1      -2.433   1.453   0.516  0.00  0.00    +0.128 A 
ATOM     29  C   UNL     1      -1.250   2.122   0.292  0.00  0.00    +0.062 A 
ATOM     30  C   UNL     1      -0.046   1.569   0.735  0.00  0.00    +0.092 A 
ATOM     31  N   UNL     1       1.249   1.975   0.663  0.00  0.00    -0.222 NA
BRANCH  28  32
ATOM     32  N   UNL     1      -3.708   2.037   0.042  0.00  0.00    +0.056 N 
ATOM     33  O   UNL     1      -4.757   1.451   0.241  0.00  0.00    -0.126 OA
ATOM     34  O   UNL     1      -3.708   3.102  -0.548  0.00  0.00    -0.126 OA
ENDBRANCH  28  32
ENDBRANCH  21  22
ENDBRANCH  20  21
ENDBRANCH   2  20
TORSDOF 6
