REMARK  Name = ZINC02336407
REMARK  13 active torsions:
REMARK  status: ('A' for Active; 'I' for Inactive)
REMARK    1  A    between atoms: C_1  and  C_2
REMARK    2  A    between atoms: C_2  and  C_3
REMARK    3  A    between atoms: C_2  and  C_4
REMARK    4  A    between atoms: C_2  and  C_5
REMARK    5  A    between atoms: C_8  and  C_11
REMARK    6  A    between atoms: C_14  and  S_22
REMARK    7  A    between atoms: N_15  and  C_16
REMARK    8  A    between atoms: S_22  and  C_23
REMARK    9  A    between atoms: C_23  and  C_24
REMARK   10  A    between atoms: N_26  and  N_27
REMARK   11  A    between atoms: C_28  and  C_29
REMARK   12  A    between atoms: C_32  and  O_36
REMARK   13  A    between atoms: C_34  and  O_35
REMARK                            x       y       z     vdW  Elec       q    Type
REMARK                         _______ _______ _______ _____ _____    ______ ____
ROOT
ATOM      1  C   UNL     1      -6.978   9.858   0.088  0.00  0.00    +0.169 A 
ATOM      2  N   UNL     1      -7.342   8.597   0.084  0.00  0.00    -0.128 NA
ATOM      3  N   UNL     1      -6.305   7.839   0.075  0.00  0.00    -0.122 NA
ATOM      4  C   UNL     1      -5.211   8.569   0.073  0.00  0.00    +0.197 A 
ATOM      5  N   UNL     1      -5.600   9.880   0.088  0.00  0.00    -0.270 N 
ENDROOT
BRANCH   1   9
ATOM      6  C   UNL     1      -9.558  13.232   0.116  0.00  0.00    -0.042 A 
ATOM      7  C   UNL     1     -10.059  11.980   0.423  0.00  0.00    +0.005 A 
ATOM      8  C   UNL     1      -9.226  10.880   0.416  0.00  0.00    +0.012 A 
ATOM      9  C   UNL     1      -7.876  11.032   0.098  0.00  0.00    +0.020 A 
ATOM     10  C   UNL     1      -7.375  12.300  -0.205  0.00  0.00    +0.012 A 
ATOM     11  C   UNL     1      -8.220  13.391  -0.199  0.00  0.00    +0.005 A 
BRANCH   6  13
ATOM     12  C   UNL     1     -11.073  14.601   1.523  0.00  0.00    +0.015 C 
ATOM     13  C   UNL     1     -10.473  14.429   0.126  0.00  0.00    -0.013 C 
ATOM     14  C   UNL     1      -9.678  15.683  -0.245  0.00  0.00    +0.015 C 
ATOM     15  C   UNL     1     -11.598  14.220  -0.890  0.00  0.00    +0.015 C 
ENDBRANCH   6  13
ENDBRANCH   1   9
BRANCH   5  16
ATOM     16  C   UNL     1      -4.771  11.011   0.097  0.00  0.00    +0.051 A 
ATOM     17  C   UNL     1      -4.769  11.863   1.193  0.00  0.00    +0.026 A 
ATOM     18  C   UNL     1      -3.947  12.973   1.201  0.00  0.00    +0.002 A 
ATOM     19  C   UNL     1      -3.133  13.241   0.116  0.00  0.00    +0.000 A 
ATOM     20  C   UNL     1      -3.137  12.396  -0.979  0.00  0.00    +0.002 A 
ATOM     21  C   UNL     1      -3.953  11.282  -0.992  0.00  0.00    +0.026 A 
ENDBRANCH   5  16
BRANCH   4  22
ATOM     22  S   UNL     1      -3.554   7.970   0.062  0.00  0.00    -0.076 S 
BRANCH  22  23
ATOM     23  C   UNL     1      -3.865   6.187   0.054  0.00  0.00    +0.174 C 
BRANCH  23  24
ATOM     24  C   UNL     1      -2.552   5.448   0.044  0.00  0.00    +0.242 C 
ATOM     25  O   UNL     1      -1.508   6.066   0.042  0.00  0.00    -0.273 OA
ATOM     26  N   UNL     1      -2.537   4.100   0.036  0.00  0.00    -0.206 N 
ATOM     27  H   UNL     1      -3.371   3.606   0.038  0.00  0.00    +0.177 HD
BRANCH  26  28
ATOM     28  N   UNL     1      -1.315   3.413   0.027  0.00  0.00    -0.188 NA
ATOM     29  C   UNL     1      -1.301   2.115   0.020  0.00  0.00    +0.142 C 
BRANCH  29  30
ATOM     30  C   UNL     1      -0.017   1.393   0.010  0.00  0.00    +0.036 A 
ATOM     31  C   UNL     1       0.002  -0.004   0.002  0.00  0.00    +0.016 A 
ATOM     32  C   UNL     1       1.205  -0.675  -0.013  0.00  0.00    +0.046 A 
ATOM     33  C   UNL     1       2.401   0.032  -0.021  0.00  0.00    +0.120 A 
ATOM     34  C   UNL     1       2.393   1.419  -0.014  0.00  0.00    +0.091 A 
ATOM     35  C   UNL     1       1.191   2.105   0.002  0.00  0.00    +0.129 A 
BRANCH  35  36
ATOM     36  O   UNL     1       1.182   3.463   0.009  0.00  0.00    -0.506 OA
ATOM     37  H   UNL     1       1.187   3.852   0.894  0.00  0.00    +0.292 HD
ENDBRANCH  35  36
BRANCH  33  38
ATOM     38  O   UNL     1       3.583  -0.637  -0.037  0.00  0.00    -0.507 OA
ATOM     39  H   UNL     1       3.916  -0.826  -0.925  0.00  0.00    +0.292 HD
ENDBRANCH  33  38
ENDBRANCH  29  30
ENDBRANCH  26  28
ENDBRANCH  23  24
ENDBRANCH  22  23
ENDBRANCH   4  22
TORSDOF 10
