REMARK  Name = ZINC13727996
REMARK  5 active torsions:
REMARK  status: ('A' for Active; 'I' for Inactive)
REMARK    1  A    between atoms: C_6  and  C_7
REMARK    2  A    between atoms: N_9  and  C_10
REMARK    3  A    between atoms: C_10  and  C_11
REMARK    4  A    between atoms: C_11  and  C_12
REMARK    5  A    between atoms: C_25  and  C_27
REMARK                            x       y       z     vdW  Elec       q    Type
REMARK                         _______ _______ _______ _____ _____    ______ ____
ROOT
ATOM      1  C   UNL     1      -1.267  -0.758   0.010  0.00  0.00    +0.244 C 
ATOM      2  O   UNL     1      -1.252  -1.974   0.003  0.00  0.00    -0.270 OA
ATOM      3  N   UNL     1      -2.442  -0.099   0.025  0.00  0.00    -0.311 N 
ATOM      4  H   UNL     1      -2.454   0.871   0.030  0.00  0.00    +0.149 HD
ENDROOT
BRANCH   1  10
ATOM      5  C   UNL     1      -0.017   1.397   0.010  0.00  0.00    +0.015 A 
ATOM      6  C   UNL     1       1.147   2.105   0.002  0.00  0.00    +0.030 A 
ATOM      7  C   UNL     1       2.376   1.434  -0.013  0.00  0.00    +0.089 A 
ATOM      8  C   UNL     1       2.402   0.027  -0.021  0.00  0.00    +0.067 A 
ATOM      9  C   UNL     1       1.217  -0.687  -0.013  0.00  0.00    +0.040 A 
ATOM     10  C   UNL     1       0.002  -0.004   0.002  0.00  0.00    +0.039 A 
ATOM     11  N   UNL     1       3.738  -0.328  -0.037  0.00  0.00    -0.335 N 
ATOM     12  H   UNL     1       4.093  -1.231  -0.045  0.00  0.00    +0.167 HD
ATOM     13  C   UNL     1       4.461   0.822  -0.038  0.00  0.00    +0.213 A 
ATOM     14  N   UNL     1       3.665   1.853  -0.024  0.00  0.00    -0.224 NA
BRANCH  13  15
ATOM     15  C   UNL     1       5.966   0.894  -0.053  0.00  0.00    +0.450 C 
ATOM     16  F   UNL     1       6.374   2.188   0.291  0.00  0.00    -0.163 F 
ATOM     17  F   UNL     1       6.486  -0.020   0.869  0.00  0.00    -0.163 F 
ATOM     18  F   UNL     1       6.435   0.583  -1.334  0.00  0.00    -0.163 F 
ENDBRANCH  13  15
ENDBRANCH   1  10
BRANCH   3  19
ATOM     19  C   UNL     1      -3.702  -0.847   0.033  0.00  0.00    +0.109 C 
BRANCH  19  20
ATOM     20  C   UNL     1      -4.877   0.133   0.049  0.00  0.00    +0.056 C 
BRANCH  20  21
ATOM     21  C   UNL     1      -6.173  -0.637   0.058  0.00  0.00    -0.021 A 
ATOM     22  C   UNL     1      -6.914  -0.964  -1.012  0.00  0.00    +0.087 A 
ATOM     23  N   UNL     1      -8.022  -1.663  -0.617  0.00  0.00    -0.360 N 
ATOM     24  H   UNL     1      -8.706  -2.006  -1.212  0.00  0.00    +0.165 HD
ATOM     25  C   UNL     1      -8.020  -1.808   0.753  0.00  0.00    +0.047 A 
ATOM     26  C   UNL     1      -6.858  -1.177   1.235  0.00  0.00    +0.004 A 
ATOM     27  C   UNL     1      -6.585  -1.170   2.604  0.00  0.00    +0.030 A 
ATOM     28  C   UNL     1      -7.457  -1.785   3.475  0.00  0.00    +0.042 A 
ATOM     29  C   UNL     1      -8.601  -2.411   2.998  0.00  0.00    +0.022 A 
ATOM     30  C   UNL     1      -8.888  -2.418   1.651  0.00  0.00    +0.027 A 
ATOM     31 CL   UNL     1      -7.122  -1.779   5.179  0.00  0.00    -0.084 Cl
ENDBRANCH  20  21
ENDBRANCH  19  20
ENDBRANCH   3  19
TORSDOF 5
