REMARK  Name = ZINC12434925
REMARK  8 active torsions:
REMARK  status: ('A' for Active; 'I' for Inactive)
REMARK    1  A    between atoms: N_9  and  C_10
REMARK    2  A    between atoms: C_10  and  C_11
REMARK    3  A    between atoms: C_11  and  C_12
REMARK    4  A    between atoms: C_12  and  N_13
REMARK    5  A    between atoms: C_14  and  C_16
REMARK    6  A    between atoms: C_16  and  C_17
REMARK    7  A    between atoms: C_24  and  C_25
REMARK    8  A    between atoms: C_24  and  N_60
REMARK                            x       y       z     vdW  Elec       q    Type
REMARK                         _______ _______ _______ _____ _____    ______ ____
ROOT
ATOM      1  C   UNL     1      -2.346   6.396  -1.419  0.00  0.00    +0.089 C 
ENDROOT
BRANCH   1   2
ATOM      2  C   UNL     1      -2.439   4.955  -1.923  0.00  0.00    +0.028 C 
ATOM      3  C   UNL     1      -3.179   4.121  -0.915  0.00  0.00    +0.200 C 
ATOM      4  O   UNL     1      -4.172   4.583  -0.396  0.00  0.00    -0.278 OA
ATOM      5  N   UNL     1      -2.787   2.890  -0.567  0.00  0.00    -0.318 N 
ATOM      6  C   UNL     1      -1.587   2.258  -1.106  0.00  0.00    +0.085 C 
ATOM      7  C   UNL     1      -1.146   2.972  -2.385  0.00  0.00    -0.058 C 
ATOM      8  H   UNL     1      -3.324   2.396   0.071  0.00  0.00    +0.149 HD
ATOM      9  N   UNL     1      -1.076   4.419  -2.100  0.00  0.00    +0.391 N 
ATOM     10  H   UNL     1      -0.543   4.565  -1.234  0.00  0.00    -0.080 HD
BRANCH   9  11
ATOM     11  C   UNL     1      -0.395   5.124  -3.210  0.00  0.00    -0.042 C 
BRANCH  11  12
ATOM     12  C   UNL     1      -1.192   4.989  -4.481  0.00  0.00    -0.064 A 
ATOM     13  C   UNL     1      -1.040   3.869  -5.276  0.00  0.00    +0.004 A 
ATOM     14  C   UNL     1      -1.768   3.746  -6.445  0.00  0.00    +0.038 A 
ATOM     15  C   UNL     1      -2.656   4.742  -6.815  0.00  0.00    +0.123 A 
ATOM     16  C   UNL     1      -2.811   5.861  -6.015  0.00  0.00    +0.038 A 
ATOM     17  C   UNL     1      -2.079   5.984  -4.849  0.00  0.00    +0.004 A 
ATOM     18  F   UNL     1      -3.371   4.621  -7.955  0.00  0.00    -0.205 F 
ENDBRANCH  11  12
ENDBRANCH   9  11
ENDBRANCH   1   2
BRANCH   1  20
ATOM     19  N   UNL     1      -1.255   7.612   0.439  0.00  0.00    -0.315 N 
ATOM     20  C   UNL     1      -1.540   6.431  -0.145  0.00  0.00    +0.212 C 
ATOM     21  O   UNL     1      -1.149   5.398   0.354  0.00  0.00    -0.276 OA
ATOM     22  H   UNL     1      -1.568   8.439   0.040  0.00  0.00    +0.149 HD
BRANCH  19  23
ATOM     23  C   UNL     1      -0.472   7.647   1.677  0.00  0.00    +0.105 C 
BRANCH  23  24
ATOM     24  C   UNL     1      -0.292   9.098   2.126  0.00  0.00    +0.037 C 
BRANCH  24  25
ATOM     25  C   UNL     1       0.526   9.134   3.419  0.00  0.00    +0.106 C 
BRANCH  25  34
ATOM     26  C   UNL     1       1.999  13.229   0.988  0.00  0.00    +0.000 A 
ATOM     27  C   UNL     1       2.615  11.991   1.013  0.00  0.00    +0.002 A 
ATOM     28  C   UNL     1       2.230  11.042   1.936  0.00  0.00    +0.023 A 
ATOM     29  C   UNL     1       1.217  11.323   2.851  0.00  0.00    +0.033 A 
ATOM     30  C   UNL     1       0.600  12.568   2.814  0.00  0.00    -0.025 A 
ATOM     31  C   UNL     1       0.991  13.515   1.891  0.00  0.00    +0.005 A 
ATOM     32  C   UNL     1      -0.459  12.598   3.898  0.00  0.00    +0.056 C 
ATOM     33  C   UNL     1      -0.634  11.102   4.247  0.00  0.00    +0.110 C 
ATOM     34  N   UNL     1       0.674  10.525   3.866  0.00  0.00    -0.329 N 
ENDBRANCH  25  34
ENDBRANCH  24  25
ENDBRANCH  23  24
ENDBRANCH  19  23
ENDBRANCH   1  20
TORSDOF 8
