REMARK  Name = ZINC39631637
REMARK  12 active torsions:
REMARK  status: ('A' for Active; 'I' for Inactive)
REMARK    1  A    between atoms: C_1  and  C_2
REMARK    2  A    between atoms: C_4  and  C_9
REMARK    3  A    between atoms: C_13  and  C_22
REMARK    4  A    between atoms: N_24  and  C_25
REMARK    5  A    between atoms: C_25  and  C_27
REMARK    6  A    between atoms: C_25  and  C_28
REMARK    7  A    between atoms: C_28  and  C_29
REMARK    8  A    between atoms: C_29  and  C_30
REMARK    9  A    between atoms: C_30  and  C_31
REMARK   10  A    between atoms: C_31  and  C_32
REMARK   11  A    between atoms: C_31  and  C_33
REMARK   12  A    between atoms: C_31  and  O_34
REMARK                            x       y       z     vdW  Elec       q    Type
REMARK                         _______ _______ _______ _____ _____    ______ ____
ROOT
ATOM      1  C   UNL     1      -0.053  -2.861  -2.724  0.00  0.00    +0.247 C 
ATOM      2  O   UNL     1      -0.197  -2.333  -3.809  0.00  0.00    -0.270 OA
ATOM      3  N   UNL     1       0.097  -4.197  -2.639  0.00  0.00    -0.296 N 
ATOM      4  C   UNL     1       0.153  -5.029  -1.414  0.00  0.00    +0.121 C 
ATOM      5  C   UNL     1      -0.645  -6.304  -1.770  0.00  0.00    +0.100 C 
ATOM      6  C   UNL     1      -0.581  -6.390  -3.304  0.00  0.00    -0.004 C 
ATOM      7  C   UNL     1       0.236  -5.169  -3.750  0.00  0.00    +0.115 C 
ATOM      8  C   UNL     1      -1.985  -6.323  -3.897  0.00  0.00    -0.010 C 
ATOM      9  C   UNL     1      -1.900  -6.468  -5.419  0.00  0.00    -0.082 C 
ATOM     10  N   UNL     1      -1.266  -7.749  -5.755  0.00  0.00    +0.379 N 
ATOM     11  C   UNL     1       0.117  -7.768  -5.262  0.00  0.00    -0.082 C 
ATOM     12  C   UNL     1       0.117  -7.678  -3.733  0.00  0.00    -0.010 C 
ATOM     13  H   UNL     1      -1.784  -8.502  -5.328  0.00  0.00    -0.086 HD
ATOM     14  H   UNL     1      -1.266  -7.870  -6.757  0.00  0.00    -0.086 HD
ENDROOT
BRANCH   1  18
ATOM     15  C   UNL     1      -1.235   1.368  -0.354  0.00  0.00    +0.045 C 
ATOM     16  C   UNL     1      -0.609  -0.003  -0.352  0.00  0.00    -0.036 A 
ATOM     17  C   UNL     1      -0.622  -0.767  -1.500  0.00  0.00    +0.017 A 
ATOM     18  C   UNL     1      -0.042  -2.037  -1.497  0.00  0.00    +0.037 A 
ATOM     19  C   UNL     1       0.549  -2.525  -0.330  0.00  0.00    +0.014 A 
ATOM     20  C   UNL     1       0.557  -1.751   0.812  0.00  0.00    +0.016 A 
ATOM     21  C   UNL     1      -0.016  -0.490   0.801  0.00  0.00    +0.021 A 
ATOM     22 BR   UNL     1       0.005   0.567   2.368  0.00  0.00    -0.050 Br
ENDBRANCH   1  18
BRANCH   5  23
ATOM     23  C   UNL     1      -2.074  -6.175  -1.309  0.00  0.00    +0.218 C 
ATOM     24  O   UNL     1      -2.604  -5.085  -1.274  0.00  0.00    -0.275 OA
ATOM     25  N   UNL     1      -2.762  -7.272  -0.935  0.00  0.00    -0.312 N 
ATOM     26  H   UNL     1      -2.338  -8.144  -0.963  0.00  0.00    +0.149 HD
BRANCH  25  27
ATOM     27  C   UNL     1      -4.151  -7.147  -0.486  0.00  0.00    +0.070 C 
ATOM     28  C   UNL     1      -4.177  -6.802   1.004  0.00  0.00    +0.028 C 
BRANCH  27  29
ATOM     29  C   UNL     1      -4.882  -8.471  -0.716  0.00  0.00    +0.022 C 
BRANCH  29  30
ATOM     30  C   UNL     1      -4.966  -8.754  -2.217  0.00  0.00    +0.005 C 
BRANCH  30  31
ATOM     31  C   UNL     1      -5.697 -10.078  -2.447  0.00  0.00    +0.034 C 
BRANCH  31  32
ATOM     32  C   UNL     1      -5.780 -10.361  -3.949  0.00  0.00    +0.061 C 
ATOM     33  C   UNL     1      -6.618 -11.619  -4.185  0.00  0.00    +0.041 C 
ATOM     34  C   UNL     1      -6.434  -9.172  -4.656  0.00  0.00    +0.041 C 
BRANCH  32  35
ATOM     35  O   UNL     1      -4.465 -10.560  -4.470  0.00  0.00    -0.389 OA
ATOM     36  H   UNL     1      -4.441 -10.745  -5.418  0.00  0.00    +0.210 HD
ENDBRANCH  32  35
ENDBRANCH  31  32
ENDBRANCH  30  31
ENDBRANCH  29  30
ENDBRANCH  27  29
ENDBRANCH  25  27
ENDBRANCH   5  23
TORSDOF 8
