REMARK  Name = ZINC36559671
REMARK  15 active torsions:
REMARK  status: ('A' for Active; 'I' for Inactive)
REMARK    1  A    between atoms: C_1  and  C_2
REMARK    2  A    between atoms: C_2  and  C_3
REMARK    3  A    between atoms: C_3  and  N_4
REMARK    4  A    between atoms: N_4  and  C_5
REMARK    5  A    between atoms: C_5  and  C_7
REMARK    6  A    between atoms: C_5  and  C_19
REMARK    7  A    between atoms: C_16  and  O_17
REMARK    8  A    between atoms: O_17  and  C_18
REMARK    9  A    between atoms: N_21  and  C_22
REMARK   10  A    between atoms: C_22  and  C_23
REMARK   11  A    between atoms: C_22  and  C_24
REMARK   12  A    between atoms: C_22  and  C_25
REMARK   13  A    between atoms: C_26  and  C_28
REMARK   14  A    between atoms: C_28  and  C_36
REMARK   15  A    between atoms: C_29  and  C_30
REMARK                            x       y       z     vdW  Elec       q    Type
REMARK                         _______ _______ _______ _____ _____    ______ ____
ROOT
ATOM      1  C   UNL     1      -1.806  -2.628   1.588  0.00  0.00    +0.196 C 
ENDROOT
BRANCH   1   2
ATOM      2  C   UNL     1      -3.284  -2.719   1.866  0.00  0.00    +0.031 A 
ATOM      3  C   UNL     1      -3.823  -3.878   2.450  0.00  0.00    -0.009 A 
ATOM      4  C   UNL     1      -3.007  -4.971   2.786  0.00  0.00    +0.009 A 
ATOM      5  C   UNL     1      -3.562  -6.078   3.351  0.00  0.00    +0.001 A 
ATOM      6  C   UNL     1      -4.932  -6.145   3.601  0.00  0.00    +0.001 A 
ATOM      7  C   UNL     1      -5.753  -5.106   3.289  0.00  0.00    +0.008 A 
ATOM      8  C   UNL     1      -5.216  -3.946   2.705  0.00  0.00    -0.017 A 
ATOM      9  C   UNL     1      -6.034  -2.853   2.369  0.00  0.00    +0.012 A 
ATOM     10  C   UNL     1      -5.482  -1.745   1.805  0.00  0.00    +0.046 A 
ATOM     11  C   UNL     1      -4.107  -1.674   1.558  0.00  0.00    +0.126 A 
BRANCH  11  12
ATOM     12  O   UNL     1      -3.584  -0.551   0.998  0.00  0.00    -0.495 OA
ATOM     13  C   UNL     1      -4.476   0.546   0.790  0.00  0.00    +0.277 C 
ENDBRANCH  11  12
ENDBRANCH   1   2
BRANCH   1  14
ATOM     14  C   UNL     1      -1.175  -1.645   2.540  0.00  0.00    +0.239 C 
ATOM     15  O   UNL     1      -0.973  -0.503   2.187  0.00  0.00    -0.273 OA
ATOM     16  N   UNL     1      -0.837  -2.036   3.785  0.00  0.00    -0.309 N 
ATOM     17  H   UNL     1      -0.999  -2.949   4.068  0.00  0.00    +0.149 HD
BRANCH  16  18
ATOM     18  C   UNL     1      -0.223  -1.081   4.711  0.00  0.00    +0.026 C 
ATOM     19  C   UNL     1      -1.178   0.093   4.939  0.00  0.00    +0.031 C 
ATOM     20  C   UNL     1       0.060  -1.774   6.045  0.00  0.00    +0.031 C 
ATOM     21  C   UNL     1       1.088  -0.564   4.116  0.00  0.00    +0.031 C 
ENDBRANCH  16  18
ENDBRANCH   1  14
BRANCH   1  22
ATOM     22  N   UNL     1      -1.596  -2.177   0.210  0.00  0.00    -0.282 N 
ATOM     23  C   UNL     1      -2.353  -2.677  -0.786  0.00  0.00    +0.248 C 
ATOM     24  O   UNL     1      -3.287  -3.413  -0.529  0.00  0.00    -0.270 OA
BRANCH  23  25
ATOM     25  C   UNL     1      -2.051  -2.332  -2.185  0.00  0.00    +0.045 C 
ATOM     26  C   UNL     1      -3.063  -2.075  -3.056  0.00  0.00    +0.021 C 
BRANCH  26  27
ATOM     27  C   UNL     1      -2.775  -1.895  -4.485  0.00  0.00    -0.024 A 
ATOM     28  C   UNL     1      -1.720  -2.595  -5.083  0.00  0.00    +0.008 A 
ATOM     29  C   UNL     1      -1.457  -2.421  -6.425  0.00  0.00    +0.001 A 
ATOM     30  C   UNL     1      -2.231  -1.557  -7.181  0.00  0.00    +0.000 A 
ATOM     31  C   UNL     1      -3.275  -0.861  -6.596  0.00  0.00    +0.001 A 
ATOM     32  C   UNL     1      -3.556  -1.028  -5.257  0.00  0.00    +0.008 A 
ENDBRANCH  26  27
BRANCH  25  33
ATOM     33  C   UNL     1      -0.644  -2.265  -2.643  0.00  0.00    -0.013 A 
ATOM     34  C   UNL     1       0.208  -3.352  -2.448  0.00  0.00    +0.008 A 
ATOM     35  C   UNL     1       1.518  -3.283  -2.878  0.00  0.00    +0.001 A 
ATOM     36  C   UNL     1       1.985  -2.140  -3.501  0.00  0.00    +0.000 A 
ATOM     37  C   UNL     1       1.145  -1.059  -3.698  0.00  0.00    +0.001 A 
ATOM     38  C   UNL     1      -0.169  -1.118  -3.278  0.00  0.00    +0.008 A 
ENDBRANCH  25  33
ENDBRANCH  23  25
BRANCH  22  39
ATOM     39  C   UNL     1      -0.562  -1.181  -0.085  0.00  0.00    +0.109 C 
BRANCH  39  41
ATOM     40  C   UNL     1      -0.121   1.255  -0.420  0.00  0.00    +0.005 C 
ATOM     41  C   UNL     1      -1.211   0.194  -0.254  0.00  0.00    +0.016 C 
ENDBRANCH  39  41
ENDBRANCH  22  39
ENDBRANCH   1  22
TORSDOF 10
