REMARK  Name = ZINC39534156
REMARK  11 active torsions:
REMARK  status: ('A' for Active; 'I' for Inactive)
REMARK    1  A    between atoms: C_1  and  C_2
REMARK    2  A    between atoms: C_2  and  O_3
REMARK    3  A    between atoms: O_3  and  C_4
REMARK    4  A    between atoms: N_7  and  C_11
REMARK    5  A    between atoms: C_11  and  C_13
REMARK    6  A    between atoms: C_11  and  C_17
REMARK    7  A    between atoms: C_13  and  N_14
REMARK    8  A    between atoms: N_14  and  S_15
REMARK    9  A    between atoms: S_15  and  C_16
REMARK   10  A    between atoms: C_20  and  C_23
REMARK   11  A    between atoms: C_28  and  O_29
REMARK                            x       y       z     vdW  Elec       q    Type
REMARK                         _______ _______ _______ _____ _____    ______ ____
ROOT
ATOM      1  C   UNL     1       1.948  -4.091  -4.046  0.00  0.00    -0.022 C 
ENDROOT
BRANCH   1   4
ATOM      2  C   UNL     1       0.551  -1.938  -1.308  0.00  0.00    +0.169 C 
ATOM      3  C   UNL     1       1.215  -2.292  -2.640  0.00  0.00    -0.030 C 
ATOM      4  N   UNL     1       1.328  -3.751  -2.759  0.00  0.00    +0.388 N 
ATOM      5  C   UNL     1       2.158  -4.271  -1.664  0.00  0.00    -0.062 C 
ATOM      6  C   UNL     1       1.502  -3.933  -0.323  0.00  0.00    +0.065 C 
ATOM      7  N   UNL     1       1.359  -2.475  -0.203  0.00  0.00    -0.295 NA
ATOM      8  H   UNL     1       2.261  -2.026  -0.163  0.00  0.00    +0.124 HD
ATOM      9  H   UNL     1       0.409  -4.165  -2.709  0.00  0.00    -0.081 HD
BRANCH   2  10
ATOM     10  O   UNL     1       0.459  -0.517  -1.183  0.00  0.00    -0.364 OA
BRANCH  10  12
ATOM     11  C   UNL     1      -0.371   1.448  -0.048  0.00  0.00    +0.034 C 
ATOM     12  C   UNL     1      -0.343  -0.081  -0.084  0.00  0.00    +0.158 C 
ENDBRANCH  10  12
ENDBRANCH   2  10
ENDBRANCH   1   4
BRANCH   1  13
ATOM     13  C   UNL     1       1.115  -3.529  -5.170  0.00  0.00    -0.060 A 
ATOM     14  C   UNL     1      -0.265  -3.574  -5.093  0.00  0.00    +0.002 A 
ATOM     15  C   UNL     1      -1.033  -3.061  -6.118  0.00  0.00    +0.009 A 
ATOM     16  C   UNL     1      -0.415  -2.497  -7.233  0.00  0.00    -0.014 A 
ATOM     17  C   UNL     1       0.976  -2.454  -7.305  0.00  0.00    +0.009 A 
ATOM     18  C   UNL     1       1.734  -2.965  -6.271  0.00  0.00    +0.002 A 
BRANCH  16  19
ATOM     19  C   UNL     1      -1.235  -1.944  -8.338  0.00  0.00    +0.024 A 
ATOM     20  C   UNL     1      -2.267  -2.701  -8.890  0.00  0.00    +0.012 A 
ATOM     21  C   UNL     1      -3.027  -2.183  -9.919  0.00  0.00    +0.001 A 
ATOM     22  C   UNL     1      -2.768  -0.913 -10.405  0.00  0.00    +0.004 A 
ATOM     23  C   UNL     1      -1.747  -0.154  -9.865  0.00  0.00    +0.046 A 
ATOM     24  C   UNL     1      -0.980  -0.660  -8.828  0.00  0.00    +0.125 A 
BRANCH  24  25
ATOM     25  O   UNL     1       0.020   0.087  -8.292  0.00  0.00    -0.506 OA
ATOM     26  H   UNL     1       0.876  -0.033  -8.726  0.00  0.00    +0.292 HD
ENDBRANCH  24  25
ENDBRANCH  16  19
ENDBRANCH   1  13
BRANCH   1  27
ATOM     27  C   UNL     1       2.033  -5.612  -4.186  0.00  0.00    +0.082 C 
BRANCH  27  28
ATOM     28  N   UNL     1       2.721  -5.952  -5.439  0.00  0.00    -0.265 NA
ATOM     29  H   UNL     1       3.499  -5.330  -5.603  0.00  0.00    +0.135 HD
BRANCH  28  30
ATOM     30  S   UNL     1       3.248  -7.636  -5.434  0.00  0.00    -0.084 S 
ATOM     31  C   UNL     1       4.062  -7.846  -7.042  0.00  0.00    +0.102 C 
ENDBRANCH  28  30
ENDBRANCH  27  28
ENDBRANCH   1  27
TORSDOF 9
