REMARK  Name = ZINC40312669
REMARK  10 active torsions:
REMARK  status: ('A' for Active; 'I' for Inactive)
REMARK    1  A    between atoms: C_4  and  O_7
REMARK    2  A    between atoms: O_7  and  C_8
REMARK    3  A    between atoms: C_8  and  C_9
REMARK    4  A    between atoms: C_9  and  C_11
REMARK    5  A    between atoms: C_9  and  O_35
REMARK    6  A    between atoms: C_11  and  N_12
REMARK    7  A    between atoms: N_12  and  C_13
REMARK    8  A    between atoms: N_12  and  C_27
REMARK    9  A    between atoms: C_13  and  C_14
REMARK   10  A    between atoms: C_17  and  C_19
REMARK                            x       y       z     vdW  Elec       q    Type
REMARK                         _______ _______ _______ _____ _____    ______ ____
ROOT
ATOM      1  N   UNL     1       6.040  -4.788   0.379  0.00  0.00    +0.389 N 
ATOM      2  H   UNL     1       6.433  -4.918   1.300  0.00  0.00    -0.081 HD
ENDROOT
BRANCH   1   3
ATOM      3  C   UNL     1       6.771  -3.722  -0.319  0.00  0.00    -0.045 C 
ATOM      4  C   UNL     1       8.281  -4.008  -0.268  0.00  0.00    +0.009 C 
ATOM      5  C   UNL     1       9.071  -2.753  -0.710  0.00  0.00    +0.164 C 
ATOM      6  S   UNL     1       7.941  -1.379  -0.243  0.00  0.00    -0.033 S 
ATOM      7  O   UNL     1       7.545  -0.686  -1.418  0.00  0.00    -0.174 OA
ATOM      8  O   UNL     1       8.515  -0.655   0.836  0.00  0.00    -0.174 OA
ATOM      9  C   UNL     1       6.513  -2.360   0.385  0.00  0.00    +0.151 C 
ENDBRANCH   1   3
BRANCH   1  10
ATOM     10  C   UNL     1       4.625  -4.414   0.500  0.00  0.00    -0.043 C 
BRANCH  10  11
ATOM     11  C   UNL     1       4.272  -4.219   1.976  0.00  0.00    +0.135 C 
BRANCH  11  12
ATOM     12  O   UNL     1       4.379  -5.469   2.660  0.00  0.00    -0.390 OA
ATOM     13  H   UNL     1       3.794  -6.157   2.315  0.00  0.00    +0.210 HD
ENDBRANCH  11  12
BRANCH  11  14
ATOM     14  C   UNL     1       2.840  -3.694   2.094  0.00  0.00    +0.258 C 
BRANCH  14  15
ATOM     15  O   UNL     1       2.551  -3.402   3.462  0.00  0.00    -0.489 OA
BRANCH  15  19
ATOM     16  C   UNL     1      -1.215  -1.946   4.311  0.00  0.00    +0.000 A 
ATOM     17  C   UNL     1      -0.300  -2.131   5.331  0.00  0.00    +0.004 A 
ATOM     18  C   UNL     1       0.962  -2.619   5.050  0.00  0.00    +0.045 A 
ATOM     19  C   UNL     1       1.310  -2.923   3.742  0.00  0.00    +0.121 A 
ATOM     20  C   UNL     1       0.391  -2.737   2.720  0.00  0.00    +0.045 A 
ATOM     21  C   UNL     1      -0.869  -2.249   3.007  0.00  0.00    +0.004 A 
ENDBRANCH  15  19
ENDBRANCH  14  15
ENDBRANCH  11  14
ENDBRANCH  10  11
ENDBRANCH   1  10
BRANCH   1  22
ATOM     22  C   UNL     1       6.152  -6.039  -0.382  0.00  0.00    -0.003 C 
BRANCH  22  23
ATOM     23  C   UNL     1       7.587  -6.502  -0.379  0.00  0.00    +0.089 A 
ATOM     24  C   UNL     1       8.283  -6.895   0.705  0.00  0.00    +0.043 A 
ATOM     25  C   UNL     1       9.575  -7.243   0.263  0.00  0.00    +0.050 A 
ATOM     26  C   UNL     1       9.596  -7.041  -1.082  0.00  0.00    +0.137 A 
ATOM     27  O   UNL     1       8.381  -6.597  -1.458  0.00  0.00    -0.462 OA
BRANCH  26  28
ATOM     28  C   UNL     1      10.750  -7.273  -1.976  0.00  0.00    +0.037 A 
ATOM     29  C   UNL     1      12.002  -6.748  -1.654  0.00  0.00    +0.033 A 
ATOM     30  C   UNL     1      13.076  -6.969  -2.493  0.00  0.00    +0.042 A 
ATOM     31  C   UNL     1      12.912  -7.709  -3.652  0.00  0.00    +0.021 A 
ATOM     32  C   UNL     1      11.674  -8.232  -3.977  0.00  0.00    +0.022 A 
ATOM     33  C   UNL     1      10.592  -8.023  -3.143  0.00  0.00    +0.052 A 
ATOM     34 CL   UNL     1       9.040  -8.686  -3.549  0.00  0.00    -0.083 Cl
ATOM     35 CL   UNL     1      14.635  -6.317  -2.095  0.00  0.00    -0.084 Cl
ENDBRANCH  26  28
ENDBRANCH  22  23
ENDBRANCH   1  22
TORSDOF 10
