REMARK  Name = ZINC04368677
REMARK  5 active torsions:
REMARK  status: ('A' for Active; 'I' for Inactive)
REMARK    1  A    between atoms: C_1  and  O_2
REMARK    2  A    between atoms: O_2  and  C_3
REMARK    3  A    between atoms: C_5  and  C_15
REMARK    4  A    between atoms: N_6  and  C_8
REMARK    5  A    between atoms: C_11  and  N_14
REMARK                            x       y       z     vdW  Elec       q    Type
REMARK                         _______ _______ _______ _____ _____    ______ ____
ROOT
ATOM      1  C   UNL     1      -0.222   1.166   2.411  0.00  0.00    +0.337 A 
ATOM      2  N   UNL     1       1.055   0.802   2.527  0.00  0.00    -0.174 NA
ATOM      3  C   UNL     1       1.327   0.522   3.787  0.00  0.00    +0.167 A 
ATOM      4  N   UNL     1       0.189   0.712   4.508  0.00  0.00    -0.209 N 
ATOM      5  N   UNL     1      -0.790   1.131   3.593  0.00  0.00    -0.108 NA
ENDROOT
BRANCH   3   6
ATOM      6  C   UNL     1       2.634   0.082   4.321  0.00  0.00    +0.021 A 
ATOM      7  C   UNL     1       3.014   0.430   5.618  0.00  0.00    +0.013 A 
ATOM      8  C   UNL     1       4.234   0.017   6.111  0.00  0.00    +0.022 A 
ATOM      9  C   UNL     1       5.082  -0.742   5.322  0.00  0.00    +0.059 A 
ATOM     10  C   UNL     1       4.710  -1.091   4.033  0.00  0.00    +0.060 A 
ATOM     11  C   UNL     1       3.489  -0.687   3.531  0.00  0.00    +0.033 A 
ATOM     12 CL   UNL     1       5.780  -2.042   3.051  0.00  0.00    -0.082 Cl
ATOM     13 CL   UNL     1       6.615  -1.259   5.950  0.00  0.00    -0.082 Cl
ENDBRANCH   3   6
BRANCH   4  14
ATOM     14  C   UNL     1       0.028   0.530   5.888  0.00  0.00    +0.068 A 
ATOM     15  C   UNL     1       0.556  -0.596   6.507  0.00  0.00    +0.029 A 
ATOM     16  C   UNL     1       0.402  -0.772   7.867  0.00  0.00    +0.025 A 
ATOM     17  C   UNL     1      -0.292   0.171   8.616  0.00  0.00    +0.025 A 
ATOM     18  C   UNL     1      -0.825   1.294   7.996  0.00  0.00    +0.025 A 
ATOM     19  C   UNL     1      -0.665   1.473   6.636  0.00  0.00    +0.029 A 
BRANCH  17  20
ATOM     20  N   UNL     1      -0.453  -0.011   9.992  0.00  0.00    -0.358 N 
ATOM     21  H   UNL     1      -0.938   0.647  10.515  0.00  0.00    +0.142 HD
ATOM     22  H   UNL     1      -0.081  -0.795  10.425  0.00  0.00    +0.142 HD
ENDBRANCH  17  20
ENDBRANCH   4  14
BRANCH   1  24
ATOM     23  C   UNL     1      -0.042   1.502   0.065  0.00  0.00    +0.280 C 
ATOM     24  O   UNL     1      -0.836   1.522   1.253  0.00  0.00    -0.465 OA
ENDBRANCH   1  24
TORSDOF 4
