REMARK  Name = ZINC20885333
REMARK  8 active torsions:
REMARK  status: ('A' for Active; 'I' for Inactive)
REMARK    1  A    between atoms: C_1  and  O_2
REMARK    2  A    between atoms: O_2  and  C_3
REMARK    3  A    between atoms: C_5  and  C_13
REMARK    4  A    between atoms: C_7  and  O_11
REMARK    5  A    between atoms: C_8  and  O_9
REMARK    6  A    between atoms: O_9  and  C_10
REMARK    7  A    between atoms: O_11  and  C_12
REMARK    8  A    between atoms: C_18  and  C_28
REMARK                            x       y       z     vdW  Elec       q    Type
REMARK                         _______ _______ _______ _____ _____    ______ ____
ROOT
ATOM      1  C   UNL     1      -0.531  -2.628  -1.054  0.00  0.00    +0.032 C 
ATOM      2  C   UNL     1       0.554  -2.378  -0.008  0.00  0.00    +0.059 C 
ATOM      3  C   UNL     1       0.834  -0.888   0.101  0.00  0.00    +0.017 C 
ATOM      4  C   UNL     1      -0.150   0.005  -0.093  0.00  0.00    +0.036 C 
ATOM      5  C   UNL     1      -0.018   1.506   0.010  0.00  0.00    +0.137 C 
ATOM      6  N   UNL     1       1.346   1.983   0.086  0.00  0.00    -0.331 N 
ATOM      7  C   UNL     1       2.160   1.669   1.173  0.00  0.00    +0.049 A 
ATOM      8  C   UNL     1       2.570   2.639   2.074  0.00  0.00    +0.025 A 
ATOM      9  C   UNL     1       3.287   2.265   3.197  0.00  0.00    +0.002 A 
ATOM     10  C   UNL     1       3.594   0.935   3.420  0.00  0.00    +0.002 A 
ATOM     11  C   UNL     1       3.204  -0.034   2.511  0.00  0.00    +0.025 A 
ATOM     12  C   UNL     1       2.502   0.341   1.379  0.00  0.00    +0.052 A 
ATOM     13  N   UNL     1       2.119  -0.574   0.406  0.00  0.00    -0.316 N 
ATOM     14  C   UNL     1      -1.453  -0.432  -0.431  0.00  0.00    +0.163 C 
ATOM     15  O   UNL     1      -2.328   0.398  -0.585  0.00  0.00    -0.292 OA
ATOM     16  C   UNL     1      -1.793  -1.882  -0.605  0.00  0.00    +0.088 C 
ATOM     17  H   UNL     1       1.757   2.605  -0.723  0.00  0.00    +0.147 HD
ATOM     18  H   UNL     1       2.946  -1.058  -0.135  0.00  0.00    +0.152 HD
ENDROOT
BRANCH   5  19
ATOM     19  C   UNL     1      -0.755   1.968   1.241  0.00  0.00    -0.004 A 
ATOM     20  C   UNL     1      -1.090   1.058   2.227  0.00  0.00    +0.008 A 
ATOM     21  C   UNL     1      -1.761   1.482   3.359  0.00  0.00    +0.020 A 
ATOM     22  C   UNL     1      -2.107   2.814   3.501  0.00  0.00    +0.042 A 
ATOM     23  C   UNL     1      -1.777   3.723   2.512  0.00  0.00    +0.040 A 
ATOM     24  C   UNL     1      -1.101   3.300   1.382  0.00  0.00    +0.048 A 
ATOM     25 CL   UNL     1      -0.686   4.440   0.140  0.00  0.00    -0.083 Cl
ATOM     26 CL   UNL     1      -2.957   3.344   4.919  0.00  0.00    -0.083 Cl
ENDBRANCH   5  19
BRANCH   1  29
ATOM     27  C   UNL     1      -0.929  -6.119  -2.447  0.00  0.00    +0.165 A 
ATOM     28  C   UNL     1      -0.667  -4.760  -2.356  0.00  0.00    +0.053 A 
ATOM     29  C   UNL     1      -0.818  -4.105  -1.149  0.00  0.00    -0.036 A 
ATOM     30  C   UNL     1      -1.226  -4.801  -0.026  0.00  0.00    +0.053 A 
ATOM     31  C   UNL     1      -1.496  -6.159  -0.111  0.00  0.00    +0.165 A 
ATOM     32  C   UNL     1      -1.345  -6.821  -1.323  0.00  0.00    +0.204 A 
BRANCH  27  34
ATOM     33  C   UNL     1      -0.350  -5.978  -4.750  0.00  0.00    +0.277 C 
ATOM     34  O   UNL     1      -0.780  -6.763  -3.636  0.00  0.00    -0.491 OA
ENDBRANCH  27  34
BRANCH  32  35
ATOM     35  O   UNL     1      -1.604  -8.155  -1.408  0.00  0.00    -0.488 OA
ATOM     36  C   UNL     1      -0.514  -9.045  -1.159  0.00  0.00    +0.277 C 
ENDBRANCH  32  35
BRANCH  31  37
ATOM     37  O   UNL     1      -1.903  -6.842   0.993  0.00  0.00    -0.491 OA
ATOM     38  C   UNL     1      -2.037  -6.096   2.205  0.00  0.00    +0.277 C 
ENDBRANCH  31  37
ENDBRANCH   1  29
TORSDOF 5
