REMARK  Name = ZINC12166740
REMARK  9 active torsions:
REMARK  status: ('A' for Active; 'I' for Inactive)
REMARK    1  A    between atoms: C_4  and  C_7
REMARK    2  A    between atoms: C_7  and  C_8
REMARK    3  A    between atoms: C_8  and  C_9
REMARK    4  A    between atoms: C_9  and  C_10
REMARK    5  A    between atoms: C_10  and  C_17
REMARK    6  A    between atoms: C_22  and  C_23
REMARK    7  A    between atoms: C_22  and  N_62
REMARK    8  A    between atoms: C_26  and  O_29
REMARK    9  A    between atoms: O_29  and  C_30
REMARK                            x       y       z     vdW  Elec       q    Type
REMARK                         _______ _______ _______ _____ _____    ______ ____
ROOT
ATOM      1  C   UNL     1      -0.686  -0.545  -1.253  0.00  0.00    +0.018 C 
ATOM      2  C   UNL     1      -0.634  -2.075  -1.246  0.00  0.00    -0.013 C 
ATOM      3  C   UNL     1      -1.268  -2.608  -2.533  0.00  0.00    -0.078 C 
ATOM      4  C   UNL     1      -0.621  -0.614  -3.748  0.00  0.00    -0.078 C 
ATOM      5  C   UNL     1       0.034  -0.021  -2.498  0.00  0.00    -0.013 C 
ATOM      6  N   UNL     1      -0.514  -2.087  -3.693  0.00  0.00    +0.382 N 
ATOM      7  H   UNL     1       0.475  -2.345  -3.591  0.00  0.00    -0.081 HD
ENDROOT
BRANCH   1   8
ATOM      8  C   UNL     1       0.002  -0.004   0.002  0.00  0.00    +0.115 C 
ATOM      9  C   UNL     1      -0.018   1.512   0.010  0.00  0.00    +0.244 C 
ATOM     10  O   UNL     1      -0.995   2.231   0.019  0.00  0.00    -0.273 OA
ATOM     11  N   UNL     1       1.274   1.894   0.000  0.00  0.00    -0.238 N 
ATOM     12  C   UNL     1       2.099   0.841  -0.013  0.00  0.00    +0.307 C 
ATOM     13  O   UNL     1       3.311   0.933  -0.025  0.00  0.00    -0.252 OA
ATOM     14  N   UNL     1       1.438  -0.331  -0.013  0.00  0.00    -0.285 N 
ATOM     15  H   UNL     1       1.569   2.818   0.002  0.00  0.00    +0.159 HD
ATOM     16  H   UNL     1       1.831  -1.218  -0.022  0.00  0.00    +0.151 HD
BRANCH   8  17
ATOM     17  C   UNL     1      -0.662  -0.558   1.264  0.00  0.00    +0.036 C 
BRANCH  17  18
ATOM     18  C   UNL     1       0.080  -0.045   2.499  0.00  0.00    +0.007 C 
BRANCH  18  19
ATOM     19  C   UNL     1      -0.584  -0.599   3.761  0.00  0.00    +0.035 C 
BRANCH  19  23
ATOM     20  C   UNL     1       1.490   0.834   7.209  0.00  0.00    +0.000 A 
ATOM     21  C   UNL     1       0.431   1.555   6.690  0.00  0.00    +0.000 A 
ATOM     22  C   UNL     1      -0.240   1.092   5.574  0.00  0.00    +0.003 A 
ATOM     23  C   UNL     1       0.147  -0.094   4.977  0.00  0.00    -0.047 A 
ATOM     24  C   UNL     1       1.202  -0.818   5.500  0.00  0.00    +0.003 A 
ATOM     25  C   UNL     1       1.876  -0.352   6.613  0.00  0.00    +0.000 A 
ENDBRANCH  19  23
ENDBRANCH  18  19
ENDBRANCH  17  18
ENDBRANCH   8  17
ENDBRANCH   1   8
BRANCH   6  26
ATOM     26  C   UNL     1      -1.037  -2.678  -4.942  0.00  0.00    -0.043 C 
BRANCH  26  27
ATOM     27  C   UNL     1      -0.718  -4.151  -4.953  0.00  0.00    -0.064 A 
ATOM     28  C   UNL     1       0.476  -4.594  -5.491  0.00  0.00    +0.005 A 
ATOM     29  C   UNL     1       0.774  -5.943  -5.497  0.00  0.00    +0.046 A 
ATOM     30  C   UNL     1      -0.132  -6.854  -4.974  0.00  0.00    +0.130 A 
ATOM     31  C   UNL     1      -1.331  -6.407  -4.439  0.00  0.00    +0.046 A 
ATOM     32  C   UNL     1      -1.622  -5.057  -4.430  0.00  0.00    +0.005 A 
BRANCH  30  33
ATOM     33  O   UNL     1       0.156  -8.182  -4.985  0.00  0.00    -0.406 OA
BRANCH  33  34
ATOM     34  C   UNL     1       1.409  -8.570  -5.551  0.00  0.00    +0.575 C 
ATOM     35  F   UNL     1       2.450  -7.966  -4.837  0.00  0.00    -0.133 F 
ATOM     36  F   UNL     1       1.542  -9.961  -5.481  0.00  0.00    -0.133 F 
ATOM     37  F   UNL     1       1.463  -8.163  -6.888  0.00  0.00    -0.133 F 
ENDBRANCH  33  34
ENDBRANCH  30  33
ENDBRANCH  26  27
ENDBRANCH   6  26
TORSDOF 9
