REMARK  Name = ZINC24232052
REMARK  8 active torsions:
REMARK  status: ('A' for Active; 'I' for Inactive)
REMARK    1  A    between atoms: C_1  and  C_2
REMARK    2  A    between atoms: C_5  and  N_9
REMARK    3  A    between atoms: C_6  and  C_8
REMARK    4  A    between atoms: C_13  and  S_14
REMARK    5  A    between atoms: S_14  and  C_15
REMARK    6  A    between atoms: C_15  and  C_16
REMARK    7  A    between atoms: N_18  and  C_19
REMARK    8  A    between atoms: C_24  and  N_25
REMARK                            x       y       z     vdW  Elec       q    Type
REMARK                         _______ _______ _______ _____ _____    ______ ____
ROOT
ATOM      1  C   UNL     1       3.978   2.701  -0.010  0.00  0.00    +0.173 C 
ENDROOT
BRANCH   1   2
ATOM      2  C   UNL     1       5.441   3.061  -0.035  0.00  0.00    +0.228 C 
ATOM      3  O   UNL     1       6.281   2.186  -0.063  0.00  0.00    -0.275 OA
ATOM      4  N   UNL     1       5.817   4.355  -0.028  0.00  0.00    -0.283 N 
ATOM      5  H   UNL     1       5.058   5.148  -0.095  0.00  0.00    +0.155 HD
BRANCH   4   6
ATOM      6  C   UNL     1       7.173   4.689   0.066  0.00  0.00    +0.064 A 
ATOM      7  C   UNL     1       8.068   3.808   0.658  0.00  0.00    +0.027 A 
ATOM      8  C   UNL     1       9.405   4.140   0.749  0.00  0.00    +0.022 A 
ATOM      9  C   UNL     1       9.854   5.350   0.249  0.00  0.00    +0.043 A 
ATOM     10  C   UNL     1       8.965   6.230  -0.342  0.00  0.00    +0.054 A 
ATOM     11  C   UNL     1       7.627   5.900  -0.440  0.00  0.00    +0.149 A 
ATOM     12 CL   UNL     1      11.536   5.765   0.365  0.00  0.00    -0.083 Cl
BRANCH  11  13
ATOM     13  N   UNL     1       6.677   6.840  -1.077  0.00  0.00    +0.058 N 
ATOM     14  O   UNL     1       7.088   7.860  -1.600  0.00  0.00    -0.126 OA
ATOM     15  O   UNL     1       5.485   6.592  -1.080  0.00  0.00    -0.126 OA
ENDBRANCH  11  13
ENDBRANCH   4   6
ENDBRANCH   1   2
BRANCH   1  16
ATOM     16  S   UNL     1       3.799   0.900  -0.027  0.00  0.00    -0.076 S 
BRANCH  16  21
ATOM     17  N   UNL     1       1.315  -0.392   0.008  0.00  0.00    -0.277 N 
ATOM     18  C   UNL     1       0.002  -0.003   0.040  0.00  0.00    +0.230 A 
ATOM     19  N   UNL     1      -0.016   1.300   0.055  0.00  0.00    -0.137 NA
ATOM     20  N   UNL     1       1.185   1.759   0.036  0.00  0.00    -0.122 NA
ATOM     21  C   UNL     1       2.043   0.766   0.007  0.00  0.00    +0.196 A 
BRANCH  17  26
ATOM     22  C   UNL     1       3.318  -5.702  -0.099  0.00  0.00    +0.044 C 
ATOM     23  C   UNL     1       2.785  -4.292  -0.070  0.00  0.00    -0.050 A 
ATOM     24  C   UNL     1       2.045  -3.812  -1.135  0.00  0.00    +0.005 A 
ATOM     25  C   UNL     1       1.557  -2.521  -1.112  0.00  0.00    +0.027 A 
ATOM     26  C   UNL     1       1.809  -1.704  -0.018  0.00  0.00    +0.053 A 
ATOM     27  C   UNL     1       2.557  -2.187   1.047  0.00  0.00    -0.026 A 
ATOM     28  C   UNL     1       3.038  -3.481   1.021  0.00  0.00    +0.008 A 
ATOM     29  C   UNL     1       2.838  -1.302   2.234  0.00  0.00    +0.046 C 
ENDBRANCH  17  26
ENDBRANCH  16  21
ENDBRANCH   1  16
TORSDOF 6
