REMARK  Name = ZINC39934729
REMARK  7 active torsions:
REMARK  status: ('A' for Active; 'I' for Inactive)
REMARK    1  A    between atoms: C_1  and  C_2
REMARK    2  A    between atoms: C_4  and  C_16
REMARK    3  A    between atoms: C_6  and  C_14
REMARK    4  A    between atoms: C_7  and  N_13
REMARK    5  A    between atoms: C_19  and  O_23
REMARK    6  A    between atoms: O_23  and  C_24
REMARK    7  A    between atoms: C_24  and  C_25
REMARK                            x       y       z     vdW  Elec       q    Type
REMARK                         _______ _______ _______ _____ _____    ______ ____
ROOT
ATOM      1  C   UNL     1      -2.755   0.867   0.756  0.00  0.00    -0.033 A 
ATOM      2  C   UNL     1      -2.246   1.150   2.010  0.00  0.00    +0.008 A 
ATOM      3  C   UNL     1      -2.446   2.396   2.573  0.00  0.00    +0.047 A 
ATOM      4  C   UNL     1      -3.158   3.363   1.880  0.00  0.00    +0.139 A 
ATOM      5  C   UNL     1      -3.668   3.077   0.621  0.00  0.00    +0.083 A 
ATOM      6  C   UNL     1      -3.461   1.830   0.060  0.00  0.00    +0.028 A 
ATOM      7 CL   UNL     1      -4.560   4.285  -0.250  0.00  0.00    -0.080 Cl
ENDROOT
BRANCH   1  11
ATOM      8  C   UNL     1      -0.018   1.503   0.010  0.00  0.00    +0.067 C 
ATOM      9  C   UNL     1       0.002  -0.004   0.002  0.00  0.00    +0.066 C 
ATOM     10  C   UNL     1      -1.064  -0.768   0.003  0.00  0.00    +0.030 C 
ATOM     11  C   UNL     1      -2.536  -0.493   0.145  0.00  0.00    +0.098 C 
ATOM     12  C   UNL     1      -3.065  -1.577   1.066  0.00  0.00    +0.097 C 
ATOM     13  C   UNL     1      -2.303  -2.628   1.436  0.00  0.00    +0.195 C 
ATOM     14  O   UNL     1      -1.023  -2.853   1.091  0.00  0.00    -0.448 OA
ATOM     15  C   UNL     1      -0.529  -2.198  -0.081  0.00  0.00    +0.343 C 
ATOM     16  N   UNL     1       0.921  -1.985  -0.028  0.00  0.00    -0.138 NA
ATOM     17  N   UNL     1       1.127  -0.765  -0.013  0.00  0.00    -0.155 NA
BRANCH  13  18
ATOM     18  N   UNL     1      -2.896  -3.562   2.247  0.00  0.00    -0.329 N 
ATOM     19  H   UNL     1      -3.818  -3.448   2.526  0.00  0.00    +0.145 HD
ATOM     20  H   UNL     1      -2.393  -4.337   2.542  0.00  0.00    +0.145 HD
ENDBRANCH  13  18
BRANCH  12  21
ATOM     21  C   UNL     1      -4.407  -1.482   1.556  0.00  0.00    +0.101 C 
ATOM     22  N   UNL     1      -5.472  -1.407   1.944  0.00  0.00    -0.191 NA
ENDBRANCH  12  21
ENDBRANCH   1  11
BRANCH   4  23
ATOM     23  O   UNL     1      -3.356   4.589   2.432  0.00  0.00    -0.486 OA
BRANCH  23  24
ATOM     24  C   UNL     1      -2.803   4.813   3.731  0.00  0.00    +0.267 C 
BRANCH  24  25
ATOM     25  C   UNL     1      -3.122   6.216   4.177  0.00  0.00    +0.025 A 
ATOM     26  C   UNL     1      -3.854   7.054   3.357  0.00  0.00    +0.010 A 
ATOM     27  C   UNL     1      -4.146   8.341   3.766  0.00  0.00    +0.001 A 
ATOM     28  C   UNL     1      -3.707   8.793   4.997  0.00  0.00    +0.003 A 
ATOM     29  C   UNL     1      -2.975   7.958   5.819  0.00  0.00    +0.039 A 
ATOM     30  C   UNL     1      -2.686   6.666   5.412  0.00  0.00    +0.130 A 
ATOM     31  F   UNL     1      -1.975   5.846   6.218  0.00  0.00    -0.205 F 
ENDBRANCH  24  25
ENDBRANCH  23  24
ENDBRANCH   4  23
TORSDOF 6
