REMARK  Name = ZINC12789033
REMARK  11 active torsions:
REMARK  status: ('A' for Active; 'I' for Inactive)
REMARK    1  A    between atoms: C_1  and  C_2
REMARK    2  A    between atoms: C_2  and  C_3
REMARK    3  A    between atoms: C_6  and  C_9
REMARK    4  A    between atoms: C_9  and  C_11
REMARK    5  A    between atoms: C_9  and  N_64
REMARK    6  A    between atoms: C_11  and  N_12
REMARK    7  A    between atoms: C_13  and  C_15
REMARK    8  A    between atoms: N_18  and  S_21
REMARK    9  A    between atoms: S_21  and  C_24
REMARK   10  A    between atoms: C_31  and  N_64
REMARK   11  A    between atoms: C_32  and  N_64
REMARK                            x       y       z     vdW  Elec       q    Type
REMARK                         _______ _______ _______ _____ _____    ______ ____
ROOT
ATOM      1  N   UNL     1      -0.090   3.130   6.491  0.00  0.00    -0.316 N 
ATOM      2  C   UNL     1       0.840   2.961   5.530  0.00  0.00    +0.216 C 
ATOM      3  O   UNL     1       1.884   2.401   5.789  0.00  0.00    -0.276 OA
ATOM      4  H   UNL     1      -0.925   3.578   6.284  0.00  0.00    +0.149 HD
ENDROOT
BRANCH   2   5
ATOM      5  C   UNL     1       0.582   3.467   4.135  0.00  0.00    +0.077 C 
ATOM      6  C   UNL     1       1.787   3.149   3.246  0.00  0.00    +0.030 C 
ATOM      7  C   UNL     1       1.536   3.696   1.837  0.00  0.00    +0.110 C 
ATOM      8  N   UNL     1       0.262   3.158   1.341  0.00  0.00    -0.177 NA
ATOM      9  C   UNL     1      -0.946   3.334   2.160  0.00  0.00    +0.110 C 
ATOM     10  C   UNL     1      -0.666   2.786   3.567  0.00  0.00    +0.030 C 
BRANCH   8  11
ATOM     11  S   UNL     1       0.187   2.374  -0.116  0.00  0.00    +0.061 S 
ATOM     12  O   UNL     1       1.286   2.841  -0.885  0.00  0.00    -0.153 OA
ATOM     13  O   UNL     1      -1.157   2.479  -0.565  0.00  0.00    -0.153 OA
BRANCH  11  14
ATOM     14  C   UNL     1       0.481   0.665   0.197  0.00  0.00    +0.106 A 
ATOM     15  C   UNL     1      -0.579  -0.179   0.473  0.00  0.00    +0.030 A 
ATOM     16  C   UNL     1      -0.349  -1.520   0.718  0.00  0.00    +0.022 A 
ATOM     17  C   UNL     1       0.942  -2.018   0.686  0.00  0.00    +0.041 A 
ATOM     18  C   UNL     1       2.002  -1.172   0.409  0.00  0.00    +0.022 A 
ATOM     19  C   UNL     1       1.771   0.168   0.165  0.00  0.00    +0.030 A 
ATOM     20 CL   UNL     1       1.231  -3.701   0.993  0.00  0.00    -0.084 Cl
ENDBRANCH  11  14
ENDBRANCH   8  11
ENDBRANCH   2   5
BRANCH   1  21
ATOM     21  C   UNL     1       0.161   2.638   7.848  0.00  0.00    +0.093 C 
BRANCH  21  22
ATOM     22  C   UNL     1      -0.965   3.102   8.775  0.00  0.00    -0.021 C 
BRANCH  22  26
ATOM     23  C   UNL     1      -0.340   1.500  12.685  0.00  0.00    -0.048 A 
ATOM     24  C   UNL     1      -1.308   0.956  11.862  0.00  0.00    +0.004 A 
ATOM     25  C   UNL     1      -1.510   1.474  10.596  0.00  0.00    +0.002 A 
ATOM     26  C   UNL     1      -0.745   2.537  10.154  0.00  0.00    -0.059 A 
ATOM     27  C   UNL     1       0.227   3.078  10.976  0.00  0.00    +0.002 A 
ATOM     28  C   UNL     1       0.425   2.563  12.243  0.00  0.00    +0.004 A 
BRANCH  23  30
ATOM     29  C   UNL     1       0.928  -0.179  13.998  0.00  0.00    +0.009 C 
ATOM     30  C   UNL     1      -0.119   0.935  14.064  0.00  0.00    +0.032 C 
ENDBRANCH  23  30
ENDBRANCH  22  26
BRANCH  22  33
ATOM     31  C   UNL     1       0.371   5.113   8.591  0.00  0.00    -0.096 C 
ATOM     32  C   UNL     1      -1.951   5.135   7.906  0.00  0.00    -0.096 C 
ATOM     33  N   UNL     1      -0.978   4.577   8.868  0.00  0.00    +0.382 N 
ATOM     34  H   UNL     1      -1.256   4.848   9.819  0.00  0.00    -0.082 HD
ENDBRANCH  22  33
ENDBRANCH  21  22
ENDBRANCH   1  21
TORSDOF 8
