REMARK  Name = ZINC35751192
REMARK  8 active torsions:
REMARK  status: ('A' for Active; 'I' for Inactive)
REMARK    1  A    between atoms: C_4  and  C_7
REMARK    2  A    between atoms: C_7  and  C_8
REMARK    3  A    between atoms: N_10  and  C_11
REMARK    4  A    between atoms: C_14  and  C_17
REMARK    5  A    between atoms: C_19  and  C_32
REMARK    6  A    between atoms: N_21  and  C_25
REMARK    7  A    between atoms: C_25  and  C_26
REMARK    8  A    between atoms: N_34  and  C_35
REMARK                            x       y       z     vdW  Elec       q    Type
REMARK                         _______ _______ _______ _____ _____    ______ ____
ROOT
ATOM      1  C   UNL     1       7.392  -2.335   6.833  0.00  0.00    +0.238 C 
ATOM      2  C   UNL     1       7.255  -3.808   7.285  0.00  0.00    +0.211 C 
ATOM      3  N   UNL     1       8.504  -4.020   8.042  0.00  0.00    -0.248 N 
ATOM      4  C   UNL     1       9.339  -3.006   7.748  0.00  0.00    +0.405 C 
ATOM      5  O   UNL     1      10.444  -2.882   8.237  0.00  0.00    -0.226 OA
ATOM      6  O   UNL     1       8.820  -2.145   6.856  0.00  0.00    -0.440 OA
ENDROOT
BRANCH   1  10
ATOM      7  C   UNL     1       5.845  -1.798   2.885  0.00  0.00    +0.033 A 
ATOM      8  C   UNL     1       5.103  -1.388   3.985  0.00  0.00    +0.024 A 
ATOM      9  C   UNL     1       5.606  -1.563   5.259  0.00  0.00    +0.009 A 
ATOM     10  C   UNL     1       6.847  -2.146   5.441  0.00  0.00    -0.005 A 
ATOM     11  C   UNL     1       7.588  -2.555   4.347  0.00  0.00    +0.009 A 
ATOM     12  C   UNL     1       7.088  -2.389   3.071  0.00  0.00    +0.024 A 
BRANCH   7  15
ATOM     13  C   UNL     1       4.597  -0.535   1.301  0.00  0.00    +0.222 C 
ATOM     14  O   UNL     1       4.299   0.248   2.178  0.00  0.00    -0.275 OA
ATOM     15  N   UNL     1       5.338  -1.623   1.592  0.00  0.00    -0.285 N 
ATOM     16  H   UNL     1       5.521  -2.284   0.906  0.00  0.00    +0.155 HD
BRANCH  13  17
ATOM     17  C   UNL     1       4.140  -0.293  -0.114  0.00  0.00    +0.131 C 
BRANCH  17  21
ATOM     18  C   UNL     1       1.856   3.314  -0.275  0.00  0.00    +0.000 A 
ATOM     19  C   UNL     1       3.225   3.353  -0.464  0.00  0.00    +0.000 A 
ATOM     20  C   UNL     1       3.964   2.186  -0.412  0.00  0.00    +0.004 A 
ATOM     21  C   UNL     1       3.334   0.980  -0.170  0.00  0.00    -0.039 A 
ATOM     22  C   UNL     1       1.966   0.940   0.020  0.00  0.00    +0.004 A 
ATOM     23  C   UNL     1       1.226   2.107  -0.034  0.00  0.00    +0.000 A 
ENDBRANCH  17  21
ENDBRANCH  13  17
ENDBRANCH   7  15
ENDBRANCH   1  10
BRANCH   2  24
ATOM     24  C   UNL     1       7.181  -4.730   6.094  0.00  0.00    +0.242 C 
ATOM     25  O   UNL     1       8.167  -5.338   5.736  0.00  0.00    -0.273 OA
ATOM     26  N   UNL     1       6.018  -4.878   5.429  0.00  0.00    -0.284 N 
ATOM     27  H   UNL     1       5.248  -4.342   5.672  0.00  0.00    +0.155 HD
BRANCH  26  28
ATOM     28  C   UNL     1       5.923  -5.807   4.385  0.00  0.00    +0.034 A 
ATOM     29  C   UNL     1       4.737  -6.498   4.176  0.00  0.00    +0.026 A 
ATOM     30  C   UNL     1       4.645  -7.414   3.146  0.00  0.00    +0.040 A 
ATOM     31  C   UNL     1       5.735  -7.644   2.323  0.00  0.00    +0.124 A 
ATOM     32  C   UNL     1       6.919  -6.956   2.530  0.00  0.00    +0.040 A 
ATOM     33  C   UNL     1       7.013  -6.035   3.555  0.00  0.00    +0.026 A 
ATOM     34  F   UNL     1       5.643  -8.541   1.317  0.00  0.00    -0.205 F 
ENDBRANCH  26  28
ENDBRANCH   2  24
BRANCH   3  35
ATOM     35  C   UNL     1       8.784  -5.135   8.951  0.00  0.00    +0.147 C 
BRANCH  35  36
ATOM     36  C   UNL     1       9.410  -6.267   8.179  0.00  0.00    -0.030 A 
ATOM     37  C   UNL     1       8.610  -7.235   7.601  0.00  0.00    +0.005 A 
ATOM     38  C   UNL     1       9.184  -8.274   6.893  0.00  0.00    +0.000 A 
ATOM     39  C   UNL     1      10.558  -8.345   6.762  0.00  0.00    +0.000 A 
ATOM     40  C   UNL     1      11.358  -7.377   7.338  0.00  0.00    +0.000 A 
ATOM     41  C   UNL     1      10.784  -6.335   8.043  0.00  0.00    +0.005 A 
ENDBRANCH  35  36
ENDBRANCH   3  35
TORSDOF 8
