REMARK  Name = ZINC20758871
REMARK  8 active torsions:
REMARK  status: ('A' for Active; 'I' for Inactive)
REMARK    1  A    between atoms: C_1  and  C_2
REMARK    2  A    between atoms: C_5  and  N_9
REMARK    3  A    between atoms: C_6  and  C_8
REMARK    4  A    between atoms: N_9  and  S_10
REMARK    5  A    between atoms: S_10  and  C_13
REMARK    6  A    between atoms: C_26  and  C_29
REMARK    7  A    between atoms: C_32  and  S_35
REMARK    8  A    between atoms: S_35  and  C_36
REMARK                            x       y       z     vdW  Elec       q    Type
REMARK                         _______ _______ _______ _____ _____    ______ ____
ROOT
ATOM      1  C   UNL     1       2.628   0.713   0.019  0.00  0.00    +0.109 A 
ATOM      2  C   UNL     1       1.931   1.906   0.080  0.00  0.00    +0.030 A 
ATOM      3  C   UNL     1       0.574   1.893   0.335  0.00  0.00    +0.025 A 
ATOM      4  C   UNL     1      -0.086   0.686   0.530  0.00  0.00    +0.031 A 
ATOM      5  C   UNL     1       0.609  -0.512   0.469  0.00  0.00    -0.018 A 
ATOM      6  C   UNL     1       1.973  -0.486   0.212  0.00  0.00    +0.034 A 
ATOM      7  C   UNL     1      -0.059  -1.835   0.668  0.00  0.00    +0.049 C 
ATOM      8  C   UNL     1       0.261  -2.417   2.024  0.00  0.00    -0.023 C 
ATOM      9  C   UNL     1      -0.782  -3.049   2.505  0.00  0.00    -0.030 C 
ATOM     10  C   UNL     1      -1.941  -2.979   1.529  0.00  0.00    +0.033 C 
ATOM     11  C   UNL     1      -1.597  -1.742   0.649  0.00  0.00    +0.029 C 
ATOM     12  C   UNL     1      -2.054  -0.497   1.415  0.00  0.00    +0.105 C 
ATOM     13  N   UNL     1      -1.460   0.690   0.790  0.00  0.00    -0.336 N 
ATOM     14  H   UNL     1      -2.093   1.554   0.538  0.00  0.00    +0.147 HD
ENDROOT
BRANCH  12  15
ATOM     15  C   UNL     1      -1.601  -0.592   2.849  0.00  0.00    -0.027 A 
ATOM     16  C   UNL     1      -2.422  -1.178   3.795  0.00  0.00    +0.006 A 
ATOM     17  C   UNL     1      -2.008  -1.272   5.108  0.00  0.00    +0.015 A 
ATOM     18  C   UNL     1      -0.769  -0.767   5.482  0.00  0.00    +0.008 A 
ATOM     19  C   UNL     1       0.052  -0.174   4.530  0.00  0.00    +0.015 A 
ATOM     20  C   UNL     1      -0.366  -0.089   3.217  0.00  0.00    +0.006 A 
BRANCH  18  21
ATOM     21  S   UNL     1      -0.239  -0.879   7.159  0.00  0.00    -0.129 S 
ATOM     22  C   UNL     1      -1.615  -1.710   8.000  0.00  0.00    +0.090 C 
ENDBRANCH  18  21
ENDBRANCH  12  15
BRANCH   1  23
ATOM     23  S   UNL     1       4.360   0.725  -0.304  0.00  0.00    +0.072 S 
ATOM     24  O   UNL     1       4.838   2.003   0.092  0.00  0.00    -0.150 OA
ATOM     25  O   UNL     1       4.881  -0.484   0.231  0.00  0.00    -0.150 OA
BRANCH  23  26
ATOM     26  N   UNL     1       4.551   0.637  -1.947  0.00  0.00    -0.216 N 
ATOM     27  H   UNL     1       5.098  -0.208  -2.392  0.00  0.00    +0.174 HD
BRANCH  26  32
ATOM     28  C   UNL     1       2.393   4.688  -5.277  0.00  0.00    +0.044 C 
ATOM     29  C   UNL     1       2.966   3.611  -4.391  0.00  0.00    -0.050 A 
ATOM     30  C   UNL     1       3.383   3.921  -3.110  0.00  0.00    +0.005 A 
ATOM     31  C   UNL     1       3.909   2.937  -2.296  0.00  0.00    +0.025 A 
ATOM     32  C   UNL     1       4.019   1.634  -2.767  0.00  0.00    +0.051 A 
ATOM     33  C   UNL     1       3.604   1.328  -4.056  0.00  0.00    -0.028 A 
ATOM     34  C   UNL     1       3.074   2.316  -4.863  0.00  0.00    +0.008 A 
ATOM     35  C   UNL     1       3.727  -0.083  -4.573  0.00  0.00    +0.046 C 
ENDBRANCH  26  32
ENDBRANCH  23  26
ENDBRANCH   1  23
TORSDOF 5
