REMARK  Name = ZINC14670934
REMARK  8 active torsions:
REMARK  status: ('A' for Active; 'I' for Inactive)
REMARK    1  A    between atoms: C_1  and  C_2
REMARK    2  A    between atoms: C_2  and  C_3
REMARK    3  A    between atoms: C_3  and  N_4
REMARK    4  A    between atoms: N_11  and  C_14
REMARK    5  A    between atoms: C_14  and  C_15
REMARK    6  A    between atoms: N_21  and  C_22
REMARK    7  A    between atoms: C_27  and  C_28
REMARK    8  A    between atoms: C_28  and  C_29
REMARK                            x       y       z     vdW  Elec       q    Type
REMARK                         _______ _______ _______ _____ _____    ______ ____
ROOT
ATOM      1  C   UNL     1      -2.986   1.917   1.437  0.00  0.00    +0.156 A 
ATOM      2  N   UNL     1      -2.960   0.749   2.055  0.00  0.00    -0.198 NA
ATOM      3  C   UNL     1      -3.367   0.653   3.319  0.00  0.00    +0.217 A 
ATOM      4  N   UNL     1      -3.811   1.731   3.955  0.00  0.00    -0.181 NA
ATOM      5  C   UNL     1      -3.841   2.902   3.329  0.00  0.00    +0.224 A 
ATOM      6  N   UNL     1      -3.426   2.991   2.067  0.00  0.00    -0.197 NA
ATOM      7  N   UNL     1      -4.300   4.027   3.987  0.00  0.00    -0.283 N 
ATOM      8  N   UNL     1      -3.335  -0.567   3.965  0.00  0.00    -0.327 N 
ATOM      9  H   UNL     1      -4.242   4.896   3.561  0.00  0.00    +0.155 HD
ATOM     10  H   UNL     1      -3.636  -0.636   4.884  0.00  0.00    +0.145 HD
ATOM     11  H   UNL     1      -3.011  -1.353   3.499  0.00  0.00    +0.145 HD
ENDROOT
BRANCH   7  12
ATOM     12  C   UNL     1      -4.849   3.912   5.268  0.00  0.00    +0.037 A 
ATOM     13  C   UNL     1      -5.408   2.709   5.681  0.00  0.00    +0.023 A 
ATOM     14  C   UNL     1      -5.944   2.597   6.948  0.00  0.00    +0.002 A 
ATOM     15  C   UNL     1      -5.936   3.684   7.803  0.00  0.00    +0.000 A 
ATOM     16  C   UNL     1      -5.385   4.885   7.394  0.00  0.00    +0.005 A 
ATOM     17  C   UNL     1      -4.842   5.002   6.129  0.00  0.00    -0.026 A 
BRANCH  17  18
ATOM     18  C   UNL     1      -4.241   6.310   5.684  0.00  0.00    +0.033 C 
ATOM     19  C   UNL     1      -5.288   7.115   4.910  0.00  0.00    +0.009 C 
ENDBRANCH  17  18
ENDBRANCH   7  12
BRANCH   1  20
ATOM     20  C   UNL     1      -2.519   2.022   0.009  0.00  0.00    +0.203 C 
BRANCH  20  28
ATOM     21  N   UNL     1       0.803   3.454  -0.051  0.00  0.00    -0.292 N 
ATOM     22  C   UNL     1       1.143   2.104  -0.060  0.00  0.00    +0.070 A 
ATOM     23  C   UNL     1       2.352   1.427  -0.088  0.00  0.00    +0.028 A 
ATOM     24  C   UNL     1       2.367   0.046  -0.090  0.00  0.00    +0.002 A 
ATOM     25  C   UNL     1       1.180  -0.665  -0.064  0.00  0.00    +0.002 A 
ATOM     26  C   UNL     1      -0.030   0.000  -0.036  0.00  0.00    +0.028 A 
ATOM     27  C   UNL     1      -0.055   1.386  -0.034  0.00  0.00    +0.070 A 
ATOM     28  N   UNL     1      -1.085   2.324  -0.015  0.00  0.00    -0.285 N 
ATOM     29  C   UNL     1      -0.539   3.554  -0.021  0.00  0.00    +0.331 A 
ATOM     30  O   UNL     1      -1.164   4.598  -0.006  0.00  0.00    -0.246 OA
BRANCH  21  31
ATOM     31  C   UNL     1       1.746   4.575  -0.071  0.00  0.00    +0.127 C 
BRANCH  31  33
ATOM     32  C   UNL     1       3.027   6.138  -1.540  0.00  0.00    +0.005 C 
ATOM     33  C   UNL     1       2.042   4.967  -1.520  0.00  0.00    +0.018 C 
ENDBRANCH  31  33
ENDBRANCH  21  31
ENDBRANCH  20  28
ENDBRANCH   1  20
TORSDOF 6
