REMARK  Name = ZINC43736844
REMARK  14 active torsions:
REMARK  status: ('A' for Active; 'I' for Inactive)
REMARK    1  A    between atoms: C_1  and  C_2
REMARK    2  A    between atoms: C_3  and  C_36
REMARK    3  A    between atoms: C_9  and  C_35
REMARK    4  A    between atoms: C_20  and  O_31
REMARK    5  A    between atoms: C_24  and  C_30
REMARK    6  A    between atoms: O_31  and  C_32
REMARK    7  A    between atoms: C_32  and  C_34
REMARK    8  A    between atoms: C_36  and  C_37
REMARK    9  A    between atoms: C_37  and  C_38
REMARK   10  A    between atoms: C_38  and  C_40
REMARK   11  A    between atoms: C_38  and  C_41
REMARK   12  A    between atoms: C_41  and  O_42
REMARK   13  A    between atoms: O_42  and  C_43
REMARK   14  A    between atoms: C_43  and  C_45
REMARK                            x       y       z     vdW  Elec       q    Type
REMARK                         _______ _______ _______ _____ _____    ______ ____
ROOT
ATOM      1  C   UNL     1      -0.018   1.503   0.010  0.00  0.00    +0.043 C 
ATOM      2  C   UNL     1       0.002  -0.004   0.002  0.00  0.00    -0.028 C 
ATOM      3  C   UNL     1      -0.012  -0.808  -1.079  0.00  0.00    +0.098 C 
ATOM      4  O   UNL     1       0.018  -2.146  -0.716  0.00  0.00    -0.492 OA
ATOM      5  C   UNL     1       0.771  -2.142   0.468  0.00  0.00    +0.181 C 
ATOM      6  C   UNL     1       0.025  -0.924   1.150  0.00  0.00    +0.072 C 
ATOM      7  C   UNL     1       0.704  -0.835   2.467  0.00  0.00    +0.039 C 
ATOM      8  C   UNL     1       1.221  -2.242   2.798  0.00  0.00    +0.010 C 
ATOM      9  C   UNL     1       0.701  -3.134   1.604  0.00  0.00    +0.050 C 
ATOM     10  C   UNL     1       2.723  -2.396   2.811  0.00  0.00    -0.003 C 
ATOM     11  C   UNL     1       3.117  -3.704   3.502  0.00  0.00    +0.004 C 
ATOM     12  C   UNL     1       3.091  -3.527   5.021  0.00  0.00    +0.004 C 
ATOM     13  C   UNL     1       4.081  -2.432   5.406  0.00  0.00    -0.001 C 
ATOM     14  C   UNL     1       4.211  -2.329   6.921  0.00  0.00    +0.048 C 
ATOM     15  C   UNL     1       5.273  -1.284   7.269  0.00  0.00    +0.177 C 
ATOM     16  C   UNL     1       4.910   0.065   6.654  0.00  0.00    +0.045 C 
ATOM     17  C   UNL     1       4.731  -0.057   5.143  0.00  0.00    +0.011 C 
ATOM     18  C   UNL     1       3.648  -1.091   4.803  0.00  0.00    -0.026 C 
ATOM     19  C   UNL     1       3.551  -1.233   3.293  0.00  0.00    +0.006 C 
ATOM     20  C   UNL     1       3.156   0.064   2.591  0.00  0.00    +0.079 C 
ATOM     21  C   UNL     1       1.667   0.264   2.672  0.00  0.00    +0.140 C 
ATOM     22  O   UNL     1       1.241   1.371   2.923  0.00  0.00    -0.297 OA
ATOM     23  C   UNL     1       2.326  -0.640   5.417  0.00  0.00    +0.012 C 
ATOM     24  C   UNL     1      -0.435  -0.584   3.464  0.00  0.00    +0.020 C 
ENDROOT
BRANCH  15  25
ATOM     25  O   UNL     1       5.356  -1.153   8.691  0.00  0.00    -0.462 OA
BRANCH  25  26
ATOM     26  C   UNL     1       6.548  -0.809   9.203  0.00  0.00    +0.304 C 
ATOM     27  O   UNL     1       7.490  -0.626   8.470  0.00  0.00    -0.251 OA
ATOM     28  C   UNL     1       6.712  -0.652  10.693  0.00  0.00    +0.136 C 
ENDBRANCH  25  26
ENDBRANCH  15  25
BRANCH   3  29
ATOM     29  C   UNL     1      -0.059  -0.315  -2.502  0.00  0.00    +0.074 C 
BRANCH  29  30
ATOM     30  C   UNL     1       1.363  -0.240  -3.063  0.00  0.00    +0.014 C 
BRANCH  30  31
ATOM     31  C   UNL     1       1.315   0.262  -4.508  0.00  0.00    +0.024 C 
ATOM     32  C   UNL     1       0.793   1.700  -4.532  0.00  0.00    +0.011 C 
BRANCH  31  33
ATOM     33  C   UNL     1       2.721   0.219  -5.109  0.00  0.00    +0.235 C 
BRANCH  33  34
ATOM     34  O   UNL     1       2.658   0.576  -6.492  0.00  0.00    -0.465 OA
BRANCH  34  35
ATOM     35  C   UNL     1       3.816   0.587  -7.171  0.00  0.00    +0.304 C 
ATOM     36  O   UNL     1       4.848   0.303  -6.611  0.00  0.00    -0.251 OA
ATOM     37  C   UNL     1       3.828   0.953  -8.633  0.00  0.00    +0.136 C 
ENDBRANCH  34  35
ENDBRANCH  33  34
ENDBRANCH  31  33
ENDBRANCH  30  31
ENDBRANCH  29  30
ENDBRANCH   3  29
TORSDOF 8
