REMARK  Name = ZINC08968959
REMARK  6 active torsions:
REMARK  status: ('A' for Active; 'I' for Inactive)
REMARK    1  A    between atoms: C_1  and  C_2
REMARK    2  A    between atoms: C_5  and  C_33
REMARK    3  A    between atoms: C_9  and  C_10
REMARK    4  A    between atoms: C_9  and  N_57
REMARK    5  A    between atoms: C_11  and  O_32
REMARK    6  A    between atoms: C_20  and  C_21
REMARK                            x       y       z     vdW  Elec       q    Type
REMARK                         _______ _______ _______ _____ _____    ______ ____
ROOT
ATOM      1  C   UNL     1      -0.742   1.585  -1.213  0.00  0.00    +0.020 A 
ATOM      2  C   UNL     1      -1.752   0.825  -1.778  0.00  0.00    +0.122 A 
ATOM      3  C   UNL     1      -2.436   1.280  -2.903  0.00  0.00    +0.046 A 
ATOM      4  C   UNL     1      -2.109   2.479  -3.470  0.00  0.00    +0.016 A 
ATOM      5  C   UNL     1      -1.089   3.255  -2.916  0.00  0.00    +0.026 A 
ATOM      6  C   UNL     1      -0.399   2.804  -1.778  0.00  0.00    +0.144 A 
ATOM      7  O   UNL     1       0.587   3.557  -1.244  0.00  0.00    -0.422 OA
ATOM      8  C   UNL     1       0.941   4.741  -1.768  0.00  0.00    +0.338 A 
ATOM      9  O   UNL     1       1.838   5.377  -1.244  0.00  0.00    -0.245 OA
ATOM     10  C   UNL     1       0.306   5.267  -2.904  0.00  0.00    +0.101 A 
ATOM     11  C   UNL     1      -0.715   4.552  -3.507  0.00  0.00    +0.006 A 
ENDROOT
BRANCH  11  12
ATOM     12  C   UNL     1      -1.406   5.072  -4.702  0.00  0.00    +0.068 A 
ATOM     13  C   UNL     1      -0.725   5.234  -5.894  0.00  0.00    +0.027 A 
ATOM     14  C   UNL     1      -1.428   5.736  -7.018  0.00  0.00    +0.018 A 
ATOM     15  C   UNL     1      -0.767   5.914  -8.243  0.00  0.00    +0.011 A 
ATOM     16  C   UNL     1      -1.450   6.398  -9.321  0.00  0.00    +0.001 A 
ATOM     17  C   UNL     1      -2.797   6.717  -9.215  0.00  0.00    +0.004 A 
ATOM     18  C   UNL     1      -3.466   6.550  -8.022  0.00  0.00    +0.047 A 
ATOM     19  C   UNL     1      -2.792   6.059  -6.909  0.00  0.00    +0.139 A 
ATOM     20  O   UNL     1      -3.451   5.897  -5.741  0.00  0.00    -0.422 OA
ATOM     21  C   UNL     1      -2.831   5.420  -4.649  0.00  0.00    +0.345 A 
ATOM     22  O   UNL     1      -3.452   5.280  -3.611  0.00  0.00    -0.245 OA
ENDBRANCH  11  12
BRANCH   2  23
ATOM     23  O   UNL     1      -2.083  -0.372  -1.228  0.00  0.00    -0.506 OA
ATOM     24  H   UNL     1      -2.771  -0.317  -0.551  0.00  0.00    +0.292 HD
ENDBRANCH   2  23
BRANCH   1  25
ATOM     25  C   UNL     1      -0.013   1.086   0.008  0.00  0.00    -0.036 C 
BRANCH  25  33
ATOM     26  C   UNL     1      -2.926   3.093   2.289  0.00  0.00    +0.005 C 
ATOM     27  C   UNL     1      -1.466   3.491   2.514  0.00  0.00    -0.031 C 
ATOM     28  C   UNL     1      -0.950   2.833   3.797  0.00  0.00    +0.003 C 
ATOM     29  C   UNL     1      -0.998   1.311   3.635  0.00  0.00    -0.031 C 
ATOM     30  C   UNL     1      -0.165   0.905   2.417  0.00  0.00    -0.075 C 
ATOM     31  C   UNL     1      -0.620   3.022   1.329  0.00  0.00    -0.075 C 
ATOM     32  C   UNL     1      -0.427   0.646   4.889  0.00  0.00    +0.005 C 
ATOM     33  N   UNL     1      -0.729   1.552   1.213  0.00  0.00    +0.383 N 
ATOM     34  H   UNL     1      -1.720   1.296   1.131  0.00  0.00    -0.081 HD
ENDBRANCH  25  33
ENDBRANCH   1  25
TORSDOF 4
