REMARK  Name = ZINC05670044
REMARK  8 active torsions:
REMARK  status: ('A' for Active; 'I' for Inactive)
REMARK    1  A    between atoms: C_1  and  N_2
REMARK    2  A    between atoms: C_9  and  O_25
REMARK    3  A    between atoms: C_10  and  C_13
REMARK    4  A    between atoms: C_13  and  C_15
REMARK    5  A    between atoms: C_15  and  C_16
REMARK    6  A    between atoms: C_16  and  C_18
REMARK    7  A    between atoms: C_16  and  N_43
REMARK    8  A    between atoms: C_23  and  O_24
REMARK                            x       y       z     vdW  Elec       q    Type
REMARK                         _______ _______ _______ _____ _____    ______ ____
ROOT
ATOM      1  C   UNL     1      -3.496   6.256   0.110  0.00  0.00    +0.171 C 
ATOM      2  O   UNL     1      -4.621   5.807   0.031  0.00  0.00    -0.292 OA
ENDROOT
BRANCH   1  12
ATOM      3  C   UNL     1       1.390   5.673  -0.024  0.00  0.00    +0.152 C 
ATOM      4  N   UNL     1       0.044   5.096   0.007  0.00  0.00    -0.310 N 
ATOM      5  C   UNL     1      -0.099   3.724  -0.000  0.00  0.00    +0.055 A 
ATOM      6  C   UNL     1       1.025   2.903  -0.037  0.00  0.00    +0.026 A 
ATOM      7  C   UNL     1       0.876   1.534  -0.044  0.00  0.00    +0.002 A 
ATOM      8  C   UNL     1      -0.387   0.959  -0.015  0.00  0.00    +0.001 A 
ATOM      9  C   UNL     1      -1.505   1.743   0.015  0.00  0.00    +0.013 A 
ATOM     10  C   UNL     1      -1.377   3.137   0.029  0.00  0.00    +0.041 A 
ATOM     11  C   UNL     1      -2.565   3.994   0.067  0.00  0.00    +0.142 A 
ATOM     12  C   UNL     1      -2.381   5.383   0.074  0.00  0.00    +0.124 A 
ATOM     13  C   UNL     1      -1.018   5.919   0.042  0.00  0.00    +0.266 A 
ATOM     14  O   UNL     1      -0.846   7.124   0.048  0.00  0.00    -0.267 OA
BRANCH  11  15
ATOM     15  O   UNL     1      -3.803   3.460   0.096  0.00  0.00    -0.505 OA
ATOM     16  H   UNL     1      -4.548   4.074   0.038  0.00  0.00    +0.292 HD
ENDBRANCH  11  15
ENDBRANCH   1  12
BRANCH   1  17
ATOM     17  C   UNL     1      -3.285   7.742   0.248  0.00  0.00    +0.068 C 
BRANCH  17  18
ATOM     18  C   UNL     1      -4.641   8.450   0.261  0.00  0.00    -0.033 C 
BRANCH  18  19
ATOM     19  C   UNL     1      -4.438   9.921   0.521  0.00  0.00    -0.020 A 
ATOM     20  C   UNL     1      -4.454  10.818  -0.529  0.00  0.00    +0.005 A 
ATOM     21  C   UNL     1      -4.272  12.167  -0.291  0.00  0.00    +0.000 A 
ATOM     22  C   UNL     1      -4.062  12.621   0.998  0.00  0.00    +0.004 A 
ATOM     23  C   UNL     1      -4.039  11.728   2.052  0.00  0.00    +0.045 A 
ATOM     24  C   UNL     1      -4.227  10.374   1.815  0.00  0.00    +0.118 A 
BRANCH  24  25
ATOM     25  O   UNL     1      -4.206   9.493   2.850  0.00  0.00    -0.507 OA
ATOM     26  H   UNL     1      -3.328   9.136   3.044  0.00  0.00    +0.292 HD
ENDBRANCH  24  25
ENDBRANCH  18  19
BRANCH  18  29
ATOM     27  H   UNL     1      -6.226   8.673  -1.034  0.00  0.00    -0.089 HD
ATOM     28  H   UNL     1      -4.741   8.656  -1.785  0.00  0.00    -0.089 HD
ATOM     29  N   UNL     1      -5.302   8.245  -1.040  0.00  0.00    +0.383 N 
ATOM     30  H   UNL     1      -5.401   7.237  -1.213  0.00  0.00    -0.089 HD
ENDBRANCH  18  29
ENDBRANCH  17  18
ENDBRANCH   1  17
TORSDOF 7
