REMARK  Name = ZINC39951319
REMARK  7 active torsions:
REMARK  status: ('A' for Active; 'I' for Inactive)
REMARK    1  A    between atoms: C_1  and  C_2
REMARK    2  A    between atoms: C_2  and  C_3
REMARK    3  A    between atoms: C_3  and  C_4
REMARK    4  A    between atoms: C_9  and  C_26
REMARK    5  A    between atoms: C_10  and  O_12
REMARK    6  A    between atoms: C_26  and  C_27
REMARK    7  A    between atoms: C_27  and  C_28
REMARK                            x       y       z     vdW  Elec       q    Type
REMARK                         _______ _______ _______ _____ _____    ______ ____
ROOT
ATOM      1  C   UNL     1       0.339  -2.498  -1.004  0.00  0.00    +0.011 C 
ATOM      2  C   UNL     1      -1.096  -2.903  -1.147  0.00  0.00    +0.026 C 
ATOM      3  C   UNL     1      -1.380  -4.313  -0.752  0.00  0.00    +0.087 C 
ATOM      4  N   UNL     1      -0.339  -5.266  -1.059  0.00  0.00    -0.273 NA
ATOM      5  C   UNL     1       0.388  -5.099  -2.290  0.00  0.00    +0.097 C 
ATOM      6  C   UNL     1       1.616  -4.213  -2.254  0.00  0.00    +0.023 C 
ATOM      7  C   UNL     1       1.197  -2.759  -2.217  0.00  0.00    +0.131 C 
ATOM      8  C   UNL     1       2.449  -4.483  -0.995  0.00  0.00    +0.097 C 
ATOM      9  N   UNL     1       1.534  -4.363   0.153  0.00  0.00    -0.272 NA
ATOM     10  C   UNL     1       0.962  -3.021   0.279  0.00  0.00    +0.096 C 
ATOM     11  C   UNL     1       0.539  -5.431   0.109  0.00  0.00    +0.182 C 
ATOM     12  C   UNL     1      -0.263  -5.478   1.372  0.00  0.00    +0.018 A 
ATOM     13  C   UNL     1      -1.092  -4.549   1.962  0.00  0.00    +0.009 A 
ATOM     14  C   UNL     1      -1.696  -4.914   3.161  0.00  0.00    +0.000 A 
ATOM     15  C   UNL     1      -1.474  -6.152   3.730  0.00  0.00    +0.002 A 
ATOM     16  C   UNL     1      -0.643  -7.092   3.141  0.00  0.00    +0.024 A 
ATOM     17  C   UNL     1      -0.030  -6.738   1.938  0.00  0.00    +0.040 A 
ATOM     18  N   UNL     1       0.834  -7.470   1.143  0.00  0.00    -0.282 N 
ATOM     19  C   UNL     1       1.221  -6.782   0.049  0.00  0.00    +0.257 C 
ATOM     20  O   UNL     1       1.972  -7.172  -0.820  0.00  0.00    -0.272 OA
ATOM     21  H   UNL     1       1.127  -8.371   1.348  0.00  0.00    +0.155 HD
ENDROOT
BRANCH   7  22
ATOM     22  O   UNL     1       2.371  -1.946  -2.156  0.00  0.00    -0.391 OA
ATOM     23  H   UNL     1       2.191  -0.997  -2.135  0.00  0.00    +0.210 HD
ENDBRANCH   7  22
BRANCH   1  24
ATOM     24  C   UNL     1       0.315  -0.976  -0.847  0.00  0.00    +0.010 C 
BRANCH  24  26
ATOM     25  C   UNL     1      -0.390   1.169  -1.916  0.00  0.00    +0.004 C 
ATOM     26  C   UNL     1      -0.247  -0.341  -2.120  0.00  0.00    -0.003 C 
ENDBRANCH  24  26
ENDBRANCH   1  24
BRANCH   6  27
ATOM     27  C   UNL     1       2.470  -4.474  -3.496  0.00  0.00    +0.012 C 
BRANCH  27  28
ATOM     28  C   UNL     1       1.652  -4.164  -4.752  0.00  0.00    -0.003 C 
ATOM     29  C   UNL     1       2.462  -4.540  -5.994  0.00  0.00    +0.004 C 
ENDBRANCH  27  28
ENDBRANCH   6  27
TORSDOF 5
