REMARK  Name = ZINC22001570
REMARK  10 active torsions:
REMARK  status: ('A' for Active; 'I' for Inactive)
REMARK    1  A    between atoms: C_1  and  C_2
REMARK    2  A    between atoms: C_7  and  C_9
REMARK    3  A    between atoms: C_7  and  C_10
REMARK    4  A    between atoms: N_13  and  C_17
REMARK    5  A    between atoms: C_17  and  C_18
REMARK    6  A    between atoms: C_18  and  O_20
REMARK    7  A    between atoms: O_20  and  C_21
REMARK    8  A    between atoms: C_21  and  C_22
REMARK    9  A    between atoms: N_24  and  C_25
REMARK   10  A    between atoms: N_24  and  C_31
REMARK                            x       y       z     vdW  Elec       q    Type
REMARK                         _______ _______ _______ _____ _____    ______ ____
ROOT
ATOM      1  C   UNL     1      -5.329  -3.318  -1.679  0.00  0.00    +0.326 C 
ATOM      2  O   UNL     1      -5.076  -2.145  -1.819  0.00  0.00    -0.249 OA
ENDROOT
BRANCH   1   3
ATOM      3  C   UNL     1      -4.304  -4.244  -1.077  0.00  0.00    +0.238 C 
BRANCH   3  15
ATOM      4  C   UNL     1      -0.365   1.431   0.511  0.00  0.00    +0.007 C 
ATOM      5  C   UNL     1      -0.252  -0.083   0.324  0.00  0.00    -0.011 C 
ATOM      6  C   UNL     1      -1.633  -0.723   0.485  0.00  0.00    +0.038 C 
ATOM      7  C   UNL     1      -1.517  -2.234   0.319  0.00  0.00    +0.113 C 
ATOM      8  C   UNL     1      -0.555  -2.817   1.348  0.00  0.00    +0.041 C 
ATOM      9  C   UNL     1       0.823  -2.170   1.185  0.00  0.00    -0.032 C 
ATOM     10  C   UNL     1       0.700  -0.657   1.376  0.00  0.00    +0.009 C 
ATOM     11  C   UNL     1       1.362  -2.465  -0.216  0.00  0.00    +0.011 C 
ATOM     12  C   UNL     1       1.782  -2.741   2.232  0.00  0.00    +0.011 C 
ATOM     13  C   UNL     1      -2.877  -2.884   0.439  0.00  0.00    +0.247 C 
ATOM     14  O   UNL     1      -3.616  -2.867   1.400  0.00  0.00    -0.273 OA
ATOM     15  N   UNL     1      -3.094  -3.486  -0.748  0.00  0.00    -0.213 N 
ATOM     16  C   UNL     1      -2.068  -3.304  -1.589  0.00  0.00    +0.310 C 
ATOM     17  O   UNL     1      -2.033  -3.751  -2.718  0.00  0.00    -0.252 OA
ATOM     18  N   UNL     1      -1.080  -2.570  -1.042  0.00  0.00    -0.285 N 
ATOM     19  H   UNL     1      -0.245  -2.314  -1.464  0.00  0.00    +0.151 HD
ENDBRANCH   3  15
ENDBRANCH   1   3
BRANCH   1  20
ATOM     20  O   UNL     1      -6.524  -3.797  -2.060  0.00  0.00    -0.454 OA
BRANCH  20  21
ATOM     21  C   UNL     1      -7.448  -2.863  -2.623  0.00  0.00    +0.327 C 
BRANCH  21  22
ATOM     22  C   UNL     1      -8.724  -3.576  -2.988  0.00  0.00    +0.254 C 
ATOM     23  O   UNL     1      -8.917  -4.710  -2.601  0.00  0.00    -0.272 OA
ATOM     24  N   UNL     1      -9.651  -2.955  -3.744  0.00  0.00    -0.293 N 
BRANCH  24  25
ATOM     25  C   UNL     1     -10.956  -3.582  -3.964  0.00  0.00    +0.076 C 
ATOM     26  C   UNL     1     -11.610  -3.887  -2.615  0.00  0.00    +0.022 C 
ATOM     27  C   UNL     1     -12.973  -4.542  -2.845  0.00  0.00    +0.002 C 
ATOM     28  C   UNL     1     -12.789  -5.843  -3.628  0.00  0.00    +0.000 C 
ATOM     29  C   UNL     1     -12.135  -5.538  -4.978  0.00  0.00    +0.002 C 
ATOM     30  C   UNL     1     -10.772  -4.883  -4.748  0.00  0.00    +0.022 C 
ENDBRANCH  24  25
BRANCH  24  31
ATOM     31  C   UNL     1      -9.352  -1.653  -4.346  0.00  0.00    +0.076 C 
ATOM     32  C   UNL     1      -8.238  -1.813  -5.381  0.00  0.00    +0.022 C 
ATOM     33  C   UNL     1      -7.926  -0.454  -6.010  0.00  0.00    +0.002 C 
ATOM     34  C   UNL     1      -7.473   0.520  -4.920  0.00  0.00    +0.000 C 
ATOM     35  C   UNL     1      -8.588   0.680  -3.884  0.00  0.00    +0.002 C 
ATOM     36  C   UNL     1      -8.899  -0.679  -3.256  0.00  0.00    +0.022 C 
ENDBRANCH  24  31
ENDBRANCH  21  22
ENDBRANCH  20  21
ENDBRANCH   1  20
TORSDOF 7
