REMARK  Name = ZINC39685724
REMARK  12 active torsions:
REMARK  status: ('A' for Active; 'I' for Inactive)
REMARK    1  A    between atoms: C_1  and  C_2
REMARK    2  A    between atoms: C_2  and  C_3
REMARK    3  A    between atoms: C_2  and  C_4
REMARK    4  A    between atoms: C_4  and  C_6
REMARK    5  A    between atoms: C_4  and  N_13
REMARK    6  A    between atoms: N_8  and  C_9
REMARK    7  A    between atoms: C_9  and  C_10
REMARK    8  A    between atoms: C_9  and  C_11
REMARK    9  A    between atoms: C_9  and  C_12
REMARK   10  A    between atoms: C_14  and  C_16
REMARK   11  A    between atoms: C_27  and  C_29
REMARK   12  A    between atoms: C_32  and  C_35
REMARK                            x       y       z     vdW  Elec       q    Type
REMARK                         _______ _______ _______ _____ _____    ______ ____
ROOT
ATOM      1  C   UNL     1      -1.734  -4.488   1.268  0.00  0.00    +0.100 C 
ATOM      2  C   UNL     1      -2.780  -5.310   0.482  0.00  0.00    +0.121 C 
ATOM      3  N   UNL     1      -2.953  -6.551   1.273  0.00  0.00    -0.296 N 
ATOM      4  C   UNL     1      -2.920  -6.096   2.684  0.00  0.00    +0.115 C 
ATOM      5  C   UNL     1      -1.830  -5.006   2.713  0.00  0.00    -0.004 C 
ATOM      6  C   UNL     1      -2.239  -3.876   3.653  0.00  0.00    -0.010 C 
ATOM      7  C   UNL     1      -2.271  -4.401   5.091  0.00  0.00    -0.082 C 
ATOM      8  N   UNL     1      -0.944  -4.913   5.457  0.00  0.00    +0.379 N 
ATOM      9  C   UNL     1      -0.599  -6.060   4.608  0.00  0.00    -0.082 C 
ATOM     10  C   UNL     1      -0.496  -5.605   3.149  0.00  0.00    -0.010 C 
ATOM     11  C   UNL     1      -3.106  -7.809   0.815  0.00  0.00    +0.247 C 
ATOM     12  O   UNL     1      -2.994  -8.041  -0.373  0.00  0.00    -0.270 OA
ATOM     13  H   UNL     1      -0.258  -4.185   5.331  0.00  0.00    -0.086 HD
ATOM     14  H   UNL     1      -0.951  -5.202   6.423  0.00  0.00    -0.086 HD
ENDROOT
BRANCH  11  15
ATOM     15  C   UNL     1      -3.409  -8.908   1.756  0.00  0.00    +0.037 A 
ATOM     16  C   UNL     1      -3.944  -8.625   3.014  0.00  0.00    +0.013 A 
ATOM     17  C   UNL     1      -4.225  -9.654   3.888  0.00  0.00    +0.013 A 
ATOM     18  C   UNL     1      -3.978 -10.965   3.520  0.00  0.00    +0.055 A 
ATOM     19  C   UNL     1      -3.448 -11.252   2.275  0.00  0.00    +0.013 A 
ATOM     20  C   UNL     1      -3.168 -10.232   1.389  0.00  0.00    +0.013 A 
BRANCH  18  21
ATOM     21  C   UNL     1      -4.288 -12.085   4.481  0.00  0.00    +0.417 C 
ATOM     22  F   UNL     1      -5.602 -12.521   4.280  0.00  0.00    -0.166 F 
ATOM     23  F   UNL     1      -3.405 -13.147   4.258  0.00  0.00    -0.166 F 
ATOM     24  F   UNL     1      -4.144 -11.626   5.794  0.00  0.00    -0.166 F 
ENDBRANCH  18  21
ENDBRANCH  11  15
BRANCH   1  26
ATOM     25  N   UNL     1      -3.332  -2.610   1.451  0.00  0.00    -0.303 N 
ATOM     26  C   UNL     1      -2.071  -3.021   1.213  0.00  0.00    +0.219 C 
ATOM     27  O   UNL     1      -1.207  -2.209   0.955  0.00  0.00    -0.275 OA
ATOM     28  H   UNL     1      -4.005  -3.248   1.735  0.00  0.00    +0.149 HD
BRANCH  25  29
ATOM     29  C   UNL     1      -3.687  -1.198   1.280  0.00  0.00    +0.161 C 
BRANCH  29  30
ATOM     30  C   UNL     1      -4.878  -0.872   2.144  0.00  0.00    +0.234 C 
ATOM     31  O   UNL     1      -5.435  -1.751   2.767  0.00  0.00    -0.274 OA
ATOM     32  N   UNL     1      -5.324   0.397   2.224  0.00  0.00    -0.309 N 
ATOM     33  H   UNL     1      -4.837   1.112   1.785  0.00  0.00    +0.149 HD
BRANCH  32  34
ATOM     34  C   UNL     1      -6.545   0.698   2.976  0.00  0.00    +0.026 C 
ATOM     35  C   UNL     1      -6.363   0.277   4.435  0.00  0.00    +0.031 C 
ATOM     36  C   UNL     1      -6.828   2.200   2.910  0.00  0.00    +0.031 C 
ATOM     37  C   UNL     1      -7.721  -0.069   2.367  0.00  0.00    +0.031 C 
ENDBRANCH  32  34
ENDBRANCH  29  30
BRANCH  29  39
ATOM     38  C   UNL     1      -2.799  -1.184  -1.055  0.00  0.00    +0.009 C 
ATOM     39  C   UNL     1      -4.034  -0.934  -0.187  0.00  0.00    +0.012 C 
ATOM     40  C   UNL     1      -5.162  -1.871  -0.622  0.00  0.00    +0.009 C 
ENDBRANCH  29  39
ENDBRANCH  25  29
ENDBRANCH   1  26
TORSDOF 7
