REMARK  Name = ZINC13065264
REMARK  13 active torsions:
REMARK  status: ('A' for Active; 'I' for Inactive)
REMARK    1  A    between atoms: C_1  and  C_2
REMARK    2  A    between atoms: C_2  and  C_3
REMARK    3  A    between atoms: C_3  and  C_5
REMARK    4  A    between atoms: C_3  and  N_72
REMARK    5  A    between atoms: N_9  and  C_10
REMARK    6  A    between atoms: C_10  and  C_11
REMARK    7  A    between atoms: C_18  and  C_19
REMARK    8  A    between atoms: C_18  and  N_72
REMARK    9  A    between atoms: C_22  and  C_25
REMARK   10  A    between atoms: C_26  and  C_27
REMARK   11  A    between atoms: C_26  and  N_72
REMARK   12  A    between atoms: C_30  and  C_40
REMARK   13  A    between atoms: C_33  and  C_39
REMARK                            x       y       z     vdW  Elec       q    Type
REMARK                         _______ _______ _______ _____ _____    ______ ____
ROOT
ATOM      1  N   UNL     1      -0.331  -0.458   0.073  0.00  0.00    +0.392 N 
ATOM      2  H   UNL     1      -0.760  -1.161  -0.540  0.00  0.00    -0.080 HD
ENDROOT
BRANCH   1   3
ATOM      3  C   UNL     1       0.646   0.329  -0.709  0.00  0.00    +0.003 C 
BRANCH   3   4
ATOM      4  C   UNL     1       0.091   0.546  -2.093  0.00  0.00    +0.138 A 
ATOM      5  N   UNL     1      -1.103   0.213  -2.519  0.00  0.00    -0.115 NA
ATOM      6  N   UNL     1      -1.198   0.566  -3.754  0.00  0.00    -0.023 NA
ATOM      7  N   UNL     1      -0.093   1.109  -4.130  0.00  0.00    -0.044 NA
ATOM      8  N   UNL     1       0.727   1.115  -3.134  0.00  0.00    -0.226 N 
BRANCH   8   9
ATOM      9  C   UNL     1       2.094   1.642  -3.136  0.00  0.00    +0.182 C 
BRANCH   9  10
ATOM     10  C   UNL     1       3.053   0.549  -3.533  0.00  0.00    -0.026 A 
ATOM     11  C   UNL     1       3.618  -0.259  -2.564  0.00  0.00    +0.008 A 
ATOM     12  C   UNL     1       4.494  -1.265  -2.927  0.00  0.00    +0.038 A 
ATOM     13  C   UNL     1       4.813  -1.456  -4.261  0.00  0.00    +0.123 A 
ATOM     14  C   UNL     1       4.250  -0.642  -5.230  0.00  0.00    +0.038 A 
ATOM     15  C   UNL     1       3.371   0.359  -4.865  0.00  0.00    +0.008 A 
ATOM     16  F   UNL     1       5.673  -2.436  -4.617  0.00  0.00    -0.205 F 
ENDBRANCH   9  10
ENDBRANCH   8   9
ENDBRANCH   3   4
BRANCH   3  18
ATOM     17  C   UNL     1       1.473   1.462   1.358  0.00  0.00    +0.002 C 
ATOM     18  C   UNL     1       0.898   1.683  -0.043  0.00  0.00    -0.011 C 
ENDBRANCH   3  18
ENDBRANCH   1   3
BRANCH   1  19
ATOM     19  C   UNL     1       0.353  -1.147   1.188  0.00  0.00    -0.042 C 
BRANCH  19  20
ATOM     20  C   UNL     1      -0.500  -2.305   1.635  0.00  0.00    -0.064 A 
ATOM     21  C   UNL     1      -1.329  -2.170   2.734  0.00  0.00    +0.002 A 
ATOM     22  C   UNL     1      -2.115  -3.232   3.141  0.00  0.00    +0.003 A 
ATOM     23  C   UNL     1      -2.066  -4.431   2.456  0.00  0.00    -0.050 A 
ATOM     24  C   UNL     1      -1.234  -4.568   1.360  0.00  0.00    +0.003 A 
ATOM     25  C   UNL     1      -0.451  -3.505   0.950  0.00  0.00    +0.002 A 
ATOM     26  C   UNL     1      -2.919  -5.590   2.903  0.00  0.00    +0.044 C 
ENDBRANCH  19  20
ENDBRANCH   1  19
BRANCH   1  27
ATOM     27  C   UNL     1      -1.389   0.429   0.600  0.00  0.00    -0.036 C 
BRANCH  27  28
ATOM     28  C   UNL     1      -2.387   0.694  -0.498  0.00  0.00    +0.001 A 
ATOM     29  C   UNL     1      -3.319  -0.242  -0.804  0.00  0.00    +0.017 A 
ATOM     30  C   UNL     1      -4.277   0.048  -1.872  0.00  0.00    +0.002 A 
ATOM     31  C   UNL     1      -5.265  -0.876  -2.228  0.00  0.00    -0.041 A 
ATOM     32  C   UNL     1      -6.142  -0.576  -3.233  0.00  0.00    +0.004 A 
ATOM     33  C   UNL     1      -6.060   0.637  -3.903  0.00  0.00    +0.005 A 
ATOM     34  C   UNL     1      -5.094   1.561  -3.570  0.00  0.00    -0.026 A 
ATOM     35  C   UNL     1      -4.191   1.279  -2.550  0.00  0.00    +0.052 A 
ATOM     36  N   UNL     1      -3.216   2.186  -2.194  0.00  0.00    -0.322 N 
ATOM     37  H   UNL     1      -3.159   3.034  -2.662  0.00  0.00    +0.169 HD
ATOM     38  C   UNL     1      -2.344   1.913  -1.208  0.00  0.00    +0.251 A 
ATOM     39  O   UNL     1      -1.494   2.738  -0.921  0.00  0.00    -0.268 OA
ATOM     40  C   UNL     1      -5.018   2.874  -4.306  0.00  0.00    +0.046 C 
ATOM     41  C   UNL     1      -5.363  -2.195  -1.507  0.00  0.00    +0.044 C 
ENDBRANCH  27  28
ENDBRANCH   1  27
TORSDOF 9
