REMARK  Name = ZINC09860949
REMARK  8 active torsions:
REMARK  status: ('A' for Active; 'I' for Inactive)
REMARK    1  A    between atoms: C_1  and  O_2
REMARK    2  A    between atoms: O_2  and  C_3
REMARK    3  A    between atoms: C_6  and  C_11
REMARK    4  A    between atoms: C_8  and  O_9
REMARK    5  A    between atoms: O_9  and  C_10
REMARK    6  A    between atoms: C_14  and  C_25
REMARK    7  A    between atoms: C_20  and  N_24
REMARK    8  A    between atoms: C_21  and  C_22
REMARK                            x       y       z     vdW  Elec       q    Type
REMARK                         _______ _______ _______ _____ _____    ______ ____
ROOT
ATOM      1  C   UNL     1      -5.066  -2.731   0.044  0.00  0.00    +0.102 C 
ATOM      2  C   UNL     1      -5.863  -2.175  -1.108  0.00  0.00    +0.054 A 
ATOM      3  C   UNL     1      -5.696  -2.381  -2.481  0.00  0.00    +0.100 A 
ATOM      4  N   UNL     1      -6.628  -1.691  -3.111  0.00  0.00    -0.171 NA
ATOM      5  N   UNL     1      -7.412  -1.029  -2.153  0.00  0.00    -0.246 N 
ATOM      6  H   UNL     1      -8.168  -0.450  -2.337  0.00  0.00    +0.192 HD
ATOM      7  C   UNL     1      -6.928  -1.339  -0.932  0.00  0.00    +0.223 A 
ATOM      8  O   UNL     1      -7.354  -0.944   0.293  0.00  0.00    -0.423 OA
ATOM      9  C   UNL     1      -6.877  -1.609   1.365  0.00  0.00    +0.200 C 
ATOM     10  C   UNL     1      -5.822  -2.454   1.319  0.00  0.00    +0.098 C 
ENDROOT
BRANCH   3  11
ATOM     11  C   UNL     1      -4.654  -3.225  -3.116  0.00  0.00    +0.006 A 
ATOM     12  C   UNL     1      -4.340  -4.470  -2.576  0.00  0.00    +0.014 A 
ATOM     13  C   UNL     1      -3.372  -5.255  -3.168  0.00  0.00    +0.050 A 
ATOM     14  C   UNL     1      -2.709  -4.809  -4.301  0.00  0.00    +0.166 A 
ATOM     15  C   UNL     1      -3.019  -3.564  -4.846  0.00  0.00    +0.167 A 
ATOM     16  C   UNL     1      -3.993  -2.777  -4.258  0.00  0.00    +0.059 A 
ATOM     17  O   UNL     1      -2.236  -3.361  -5.945  0.00  0.00    -0.453 OA
ATOM     18  C   UNL     1      -1.160  -4.310  -5.831  0.00  0.00    +0.466 C 
ATOM     19  O   UNL     1      -1.731  -5.384  -5.061  0.00  0.00    -0.453 OA
ENDBRANCH   3  11
BRANCH   1  23
ATOM     20  C   UNL     1      -1.240  -0.826   0.197  0.00  0.00    +0.162 A 
ATOM     21  C   UNL     1      -2.397  -0.065   0.222  0.00  0.00    +0.050 A 
ATOM     22  C   UNL     1      -3.632  -0.684   0.172  0.00  0.00    +0.008 A 
ATOM     23  C   UNL     1      -3.717  -2.062   0.098  0.00  0.00    -0.031 A 
ATOM     24  C   UNL     1      -2.566  -2.827   0.073  0.00  0.00    +0.054 A 
ATOM     25  C   UNL     1      -1.324  -2.213   0.117  0.00  0.00    +0.162 A 
BRANCH  20  27
ATOM     26  C   UNL     1      -0.013   1.207   0.328  0.00  0.00    +0.277 C 
ATOM     27  O   UNL     1      -0.024  -0.220   0.246  0.00  0.00    -0.491 OA
ENDBRANCH  20  27
BRANCH  25  28
ATOM     28  O   UNL     1      -0.191  -2.964   0.087  0.00  0.00    -0.491 OA
ATOM     29  C   UNL     1      -0.354  -4.381   0.004  0.00  0.00    +0.277 C 
ENDBRANCH  25  28
ENDBRANCH   1  23
BRANCH   9  30
ATOM     30  N   UNL     1      -7.499  -1.417   2.574  0.00  0.00    -0.328 N 
ATOM     31  H   UNL     1      -8.258  -0.817   2.639  0.00  0.00    +0.145 HD
ATOM     32  H   UNL     1      -7.178  -1.881   3.363  0.00  0.00    +0.145 HD
ENDBRANCH   9  30
BRANCH  10  33
ATOM     33  C   UNL     1      -5.409  -3.109   2.523  0.00  0.00    +0.101 C 
ATOM     34  N   UNL     1      -5.080  -3.629   3.478  0.00  0.00    -0.191 NA
ENDBRANCH  10  33
TORSDOF 6
