REMARK  Name = ZINC20074518
REMARK  7 active torsions:
REMARK  status: ('A' for Active; 'I' for Inactive)
REMARK    1  A    between atoms: C_4  and  C_7
REMARK    2  A    between atoms: C_7  and  C_8
REMARK    3  A    between atoms: C_8  and  C_28
REMARK    4  A    between atoms: N_12  and  C_22
REMARK    5  A    between atoms: N_13  and  C_16
REMARK    6  A    between atoms: N_29  and  N_30
REMARK    7  A    between atoms: N_30  and  C_31
REMARK                            x       y       z     vdW  Elec       q    Type
REMARK                         _______ _______ _______ _____ _____    ______ ____
ROOT
ATOM      1  C   UNL     1       7.156   2.577   0.231  0.00  0.00    -0.006 C 
ATOM      2  C   UNL     1       5.777   2.671   0.089  0.00  0.00    +0.107 C 
ATOM      3  C   UNL     1       4.965   3.897   0.025  0.00  0.00    +0.273 C 
ATOM      4  O   UNL     1       5.375   5.042   0.085  0.00  0.00    -0.268 OA
ATOM      5  N   UNL     1       3.683   3.511  -0.115  0.00  0.00    -0.177 N 
ATOM      6  N   UNL     1       3.592   2.120  -0.146  0.00  0.00    -0.177 N 
ATOM      7  C   UNL     1       4.812   1.564  -0.022  0.00  0.00    +0.273 C 
ATOM      8  O   UNL     1       5.069   0.374  -0.008  0.00  0.00    -0.268 OA
ENDROOT
BRANCH   6   9
ATOM      9  C   UNL     1       2.400   1.402  -0.281  0.00  0.00    +0.057 A 
ATOM     10  C   UNL     1       1.309   1.705   0.524  0.00  0.00    +0.025 A 
ATOM     11  C   UNL     1       0.133   0.994   0.389  0.00  0.00    +0.002 A 
ATOM     12  C   UNL     1       0.040  -0.019  -0.548  0.00  0.00    +0.000 A 
ATOM     13  C   UNL     1       1.124  -0.324  -1.351  0.00  0.00    +0.002 A 
ATOM     14  C   UNL     1       2.303   0.383  -1.220  0.00  0.00    +0.025 A 
ENDBRANCH   6   9
BRANCH   5  15
ATOM     15  C   UNL     1       2.594   4.383  -0.213  0.00  0.00    +0.057 A 
ATOM     16  C   UNL     1       1.657   4.216  -1.225  0.00  0.00    +0.025 A 
ATOM     17  C   UNL     1       0.580   5.075  -1.316  0.00  0.00    +0.002 A 
ATOM     18  C   UNL     1       0.440   6.109  -0.408  0.00  0.00    +0.000 A 
ATOM     19  C   UNL     1       1.374   6.282   0.597  0.00  0.00    +0.002 A 
ATOM     20  C   UNL     1       2.450   5.423   0.697  0.00  0.00    +0.025 A 
ENDBRANCH   5  15
BRANCH   1  21
ATOM     21  C   UNL     1       7.930   3.740   0.329  0.00  0.00    +0.135 C 
ATOM     22  N   UNL     1       9.231   3.652   0.463  0.00  0.00    -0.190 NA
BRANCH  22  23
ATOM     23  N   UNL     1       9.944   4.723   0.554  0.00  0.00    -0.238 N 
ATOM     24  H   UNL     1       9.460   5.711   0.519  0.00  0.00    +0.174 HD
BRANCH  23  25
ATOM     25  C   UNL     1      11.329   4.630   0.696  0.00  0.00    +0.048 A 
ATOM     26  C   UNL     1      11.941   3.383   0.746  0.00  0.00    +0.026 A 
ATOM     27  C   UNL     1      13.312   3.293   0.880  0.00  0.00    +0.022 A 
ATOM     28  C   UNL     1      14.076   4.444   0.978  0.00  0.00    +0.041 A 
ATOM     29  C   UNL     1      13.469   5.687   0.935  0.00  0.00    +0.022 A 
ATOM     30  C   UNL     1      12.098   5.783   0.794  0.00  0.00    +0.026 A 
ATOM     31 CL   UNL     1      15.799   4.327   1.155  0.00  0.00    -0.084 Cl
ENDBRANCH  23  25
ENDBRANCH  22  23
ENDBRANCH   1  21
BRANCH   1  32
ATOM     32  C   UNL     1       7.819   1.225   0.278  0.00  0.00    +0.072 C 
BRANCH  32  36
ATOM     33  C   UNL     1       9.172   0.164  -3.632  0.00  0.00    +0.000 A 
ATOM     34  C   UNL     1      10.006   0.860  -2.777  0.00  0.00    +0.000 A 
ATOM     35  C   UNL     1       9.568   1.203  -1.512  0.00  0.00    +0.004 A 
ATOM     36  C   UNL     1       8.296   0.851  -1.101  0.00  0.00    -0.043 A 
ATOM     37  C   UNL     1       7.464   0.150  -1.954  0.00  0.00    +0.004 A 
ATOM     38  C   UNL     1       7.900  -0.188  -3.222  0.00  0.00    +0.000 A 
ENDBRANCH  32  36
ENDBRANCH   1  32
TORSDOF 7
