REMARK  Name = ZINC12099863
REMARK  10 active torsions:
REMARK  status: ('A' for Active; 'I' for Inactive)
REMARK    1  A    between atoms: C_1  and  S_2
REMARK    2  A    between atoms: S_2  and  C_3
REMARK    3  A    between atoms: C_6  and  C_9
REMARK    4  A    between atoms: C_9  and  C_10
REMARK    5  A    between atoms: C_10  and  C_16
REMARK    6  A    between atoms: C_16  and  C_17
REMARK    7  A    between atoms: C_17  and  C_18
REMARK    8  A    between atoms: N_20  and  C_21
REMARK    9  A    between atoms: C_21  and  C_22
REMARK   10  A    between atoms: C_22  and  N_75
REMARK                            x       y       z     vdW  Elec       q    Type
REMARK                         _______ _______ _______ _____ _____    ______ ____
ROOT
ATOM      1  C   UNL     1      -1.127   1.023  -4.473  0.00  0.00    +0.213 C 
ATOM      2  O   UNL     1      -1.650   1.967  -3.921  0.00  0.00    -0.276 OA
ATOM      3  N   UNL     1       0.150   0.699  -4.190  0.00  0.00    -0.317 N 
ATOM      4  H   UNL     1       0.546  -0.099  -4.576  0.00  0.00    +0.149 HD
ENDROOT
BRANCH   1   5
ATOM      5  C   UNL     1      -1.905   0.211  -5.476  0.00  0.00    +0.098 C 
BRANCH   5   6
ATOM      6  C   UNL     1      -3.270   0.862  -5.710  0.00  0.00    +0.035 C 
BRANCH   6   7
ATOM      7  C   UNL     1      -4.006   0.116  -6.825  0.00  0.00    +0.039 C 
ATOM      8  C   UNL     1      -4.233  -1.358  -6.423  0.00  0.00    +0.035 C 
ATOM      9  C   UNL     1      -2.998  -2.049  -7.048  0.00  0.00    +0.098 C 
ATOM     10  C   UNL     1      -2.597  -1.134  -8.184  0.00  0.00    +0.214 C 
ATOM     11  O   UNL     1      -1.857  -1.441  -9.094  0.00  0.00    -0.276 OA
ATOM     12  N   UNL     1      -3.179   0.069  -8.037  0.00  0.00    -0.309 N 
ATOM     13  H   UNL     1      -3.067   0.810  -8.652  0.00  0.00    +0.149 HD
BRANCH   7  14
ATOM     14  C   UNL     1      -5.343   0.797  -7.123  0.00  0.00    +0.061 C 
BRANCH  14  18
ATOM     15  C   UNL     1      -4.632   4.692  -8.732  0.00  0.00    +0.008 A 
ATOM     16  C   UNL     1      -4.751   3.599  -9.581  0.00  0.00    +0.015 A 
ATOM     17  C   UNL     1      -4.981   2.342  -9.058  0.00  0.00    +0.005 A 
ATOM     18  C   UNL     1      -5.092   2.170  -7.690  0.00  0.00    -0.045 A 
ATOM     19  C   UNL     1      -4.979   3.257  -6.842  0.00  0.00    +0.005 A 
ATOM     20  C   UNL     1      -4.745   4.516  -7.358  0.00  0.00    +0.015 A 
BRANCH  15  22
ATOM     21  C   UNL     1      -4.107   7.342  -7.930  0.00  0.00    +0.090 C 
ATOM     22  S   UNL     1      -4.337   6.298  -9.395  0.00  0.00    -0.129 S 
ENDBRANCH  15  22
ENDBRANCH  14  18
ENDBRANCH   7  14
ENDBRANCH   6   7
ENDBRANCH   5   6
ENDBRANCH   1   5
BRANCH   3  23
ATOM     23  C   UNL     1       0.942   1.551  -3.298  0.00  0.00    +0.092 C 
BRANCH  23  24
ATOM     24  C   UNL     1       2.382   1.036  -3.246  0.00  0.00    -0.049 C 
ATOM     25  C   UNL     1       3.264   2.094  -2.555  0.00  0.00    -0.010 C 
ATOM     26  C   UNL     1       3.134   2.069  -1.020  0.00  0.00    -0.001 C 
ATOM     27  C   UNL     1       1.711   1.891  -0.566  0.00  0.00    -0.000 C 
ATOM     28  C   UNL     1       1.458   0.389  -0.324  0.00  0.00    -0.000 C 
ATOM     29  C   UNL     1       1.202  -0.336  -1.560  0.00  0.00    -0.001 C 
ATOM     30  C   UNL     1       2.400  -0.287  -2.530  0.00  0.00    -0.010 C 
BRANCH  24  36
ATOM     31  C   UNL     1       4.203   0.230  -4.625  0.00  0.00    -0.049 C 
ATOM     32  C   UNL     1       4.643  -0.011  -6.071  0.00  0.00    +0.141 C 
ATOM     33  O   UNL     1       4.609   1.227  -6.787  0.00  0.00    -0.383 OA
ATOM     34  C   UNL     1       3.321   1.848  -6.803  0.00  0.00    +0.141 C 
ATOM     35  C   UNL     1       2.868   2.108  -5.364  0.00  0.00    -0.049 C 
ATOM     36  N   UNL     1       2.849   0.823  -4.633  0.00  0.00    +0.387 N 
ATOM     37  H   UNL     1       2.205   0.179  -5.107  0.00  0.00    -0.081 HD
ENDBRANCH  24  36
ENDBRANCH  23  24
ENDBRANCH   3  23
TORSDOF 9
