REMARK  Name = ZINC16364073
REMARK  6 active torsions:
REMARK  status: ('A' for Active; 'I' for Inactive)
REMARK    1  A    between atoms: C_1  and  N_2
REMARK    2  A    between atoms: C_9  and  O_38
REMARK    3  A    between atoms: C_10  and  C_13
REMARK    4  A    between atoms: C_19  and  C_20
REMARK    5  A    between atoms: C_21  and  O_37
REMARK    6  A    between atoms: N_28  and  C_31
REMARK                            x       y       z     vdW  Elec       q    Type
REMARK                         _______ _______ _______ _____ _____    ______ ____
ROOT
ATOM      1  C   UNL     1       4.681   8.186   0.006  0.00  0.00    +0.110 C 
ATOM      2  N   UNL     1       4.293   9.428   0.133  0.00  0.00    -0.179 NA
ATOM      3  N   UNL     1       2.935   9.503   0.442  0.00  0.00    -0.202 N 
ATOM      4  C   UNL     1       2.404   8.266   0.516  0.00  0.00    +0.265 C 
ATOM      5  O   UNL     1       1.244   7.982   0.763  0.00  0.00    -0.268 OA
ATOM      6  C   UNL     1       3.502   7.330   0.244  0.00  0.00    +0.067 C 
ATOM      7  C   UNL     1       3.442   5.944   0.212  0.00  0.00    +0.032 C 
ATOM      8  H   UNL     1       2.442  10.327   0.580  0.00  0.00    +0.178 HD
ENDROOT
BRANCH   1  18
ATOM      9  C   UNL     1       7.839   6.355  -3.307  0.00  0.00    +0.152 C 
ATOM     10  N   UNL     1       7.582   6.829  -1.945  0.00  0.00    -0.310 N 
ATOM     11  C   UNL     1       8.612   6.827  -1.026  0.00  0.00    +0.055 A 
ATOM     12  C   UNL     1       9.881   6.383  -1.381  0.00  0.00    +0.026 A 
ATOM     13  C   UNL     1      10.896   6.392  -0.448  0.00  0.00    +0.002 A 
ATOM     14  C   UNL     1      10.664   6.838   0.846  0.00  0.00    +0.001 A 
ATOM     15  C   UNL     1       9.425   7.279   1.217  0.00  0.00    +0.013 A 
ATOM     16  C   UNL     1       8.382   7.279   0.286  0.00  0.00    +0.041 A 
ATOM     17  C   UNL     1       7.042   7.752   0.652  0.00  0.00    +0.140 A 
ATOM     18  C   UNL     1       6.048   7.723  -0.318  0.00  0.00    +0.109 A 
ATOM     19  C   UNL     1       6.351   7.255  -1.619  0.00  0.00    +0.264 A 
ATOM     20  O   UNL     1       5.473   7.239  -2.464  0.00  0.00    -0.267 OA
BRANCH  17  21
ATOM     21  O   UNL     1       6.781   8.199   1.902  0.00  0.00    -0.505 OA
ATOM     22  H   UNL     1       7.560   8.249   2.473  0.00  0.00    +0.292 HD
ENDBRANCH  17  21
ENDBRANCH   1  18
BRANCH   7  23
ATOM     23  C   UNL     1       2.262   5.280   0.604  0.00  0.00    +0.083 A 
ATOM     24  C   UNL     1       1.716   5.489   1.881  0.00  0.00    +0.138 A 
ATOM     25  C   UNL     1       0.488   4.772   2.235  0.00  0.00    +0.041 A 
ATOM     26  C   UNL     1      -0.098   4.944   3.496  0.00  0.00    +0.013 A 
ATOM     27  C   UNL     1      -1.242   4.269   3.811  0.00  0.00    +0.001 A 
ATOM     28  C   UNL     1      -1.827   3.408   2.892  0.00  0.00    +0.002 A 
ATOM     29  C   UNL     1      -1.272   3.228   1.644  0.00  0.00    +0.027 A 
ATOM     30  C   UNL     1      -0.105   3.905   1.299  0.00  0.00    +0.061 A 
ATOM     31  N   UNL     1       0.460   3.723   0.052  0.00  0.00    -0.276 N 
ATOM     32  C   UNL     1       1.585   4.359  -0.316  0.00  0.00    +0.267 A 
ATOM     33  O   UNL     1       2.049   4.169  -1.425  0.00  0.00    -0.267 OA
BRANCH  31  34
ATOM     34  C   UNL     1      -0.157   2.853  -0.854  0.00  0.00    +0.050 A 
ATOM     35  C   UNL     1      -0.194   1.489  -0.594  0.00  0.00    +0.026 A 
ATOM     36  C   UNL     1      -0.807   0.633  -1.488  0.00  0.00    +0.002 A 
ATOM     37  C   UNL     1      -1.375   1.132  -2.646  0.00  0.00    +0.000 A 
ATOM     38  C   UNL     1      -1.335   2.489  -2.910  0.00  0.00    +0.002 A 
ATOM     39  C   UNL     1      -0.728   3.350  -2.018  0.00  0.00    +0.026 A 
ENDBRANCH  31  34
BRANCH  24  40
ATOM     40  O   UNL     1       2.306   6.327   2.758  0.00  0.00    -0.505 OA
ATOM     41  H   UNL     1       3.114   6.770   2.466  0.00  0.00    +0.292 HD
ENDBRANCH  24  40
ENDBRANCH   7  23
TORSDOF 5
