REMARK  Name = ZINC67304518
REMARK  7 active torsions:
REMARK  status: ('A' for Active; 'I' for Inactive)
REMARK    1  A    between atoms: C_1  and  C_2
REMARK    2  A    between atoms: C_2  and  C_3
REMARK    3  A    between atoms: C_2  and  C_4
REMARK    4  A    between atoms: C_4  and  C_6
REMARK    5  A    between atoms: C_4  and  N_22
REMARK    6  A    between atoms: C_6  and  N_7
REMARK    7  A    between atoms: C_8  and  C_10
REMARK                            x       y       z     vdW  Elec       q    Type
REMARK                         _______ _______ _______ _____ _____    ______ ____
ROOT
ATOM      1  N   UNL     1      -3.421  -0.658  -1.336  0.00  0.00    -0.317 N 
ATOM      2  C   UNL     1      -4.136  -0.571  -2.474  0.00  0.00    +0.216 C 
ATOM      3  O   UNL     1      -3.635  -0.096  -3.471  0.00  0.00    -0.276 OA
ATOM      4  H   UNL     1      -3.821  -1.038  -0.538  0.00  0.00    +0.149 HD
ENDROOT
BRANCH   2   5
ATOM      5  C   UNL     1      -5.560  -1.065  -2.509  0.00  0.00    +0.075 C 
ATOM      6  C   UNL     1      -5.591  -2.556  -2.164  0.00  0.00    +0.015 C 
ATOM      7  C   UNL     1      -7.038  -3.054  -2.188  0.00  0.00    +0.036 C 
ATOM      8  C   UNL     1      -7.636  -2.822  -3.571  0.00  0.00    +0.112 C 
ATOM      9  C   UNL     1      -7.589  -1.344  -3.939  0.00  0.00    +0.036 C 
ATOM     10  C   UNL     1      -6.139  -0.853  -3.909  0.00  0.00    +0.015 C 
ATOM     11  C   UNL     1      -6.907  -3.648  -4.606  0.00  0.00    +0.244 C 
ATOM     12  O   UNL     1      -5.735  -3.579  -4.907  0.00  0.00    -0.273 OA
ATOM     13  N   UNL     1      -7.836  -4.478  -5.124  0.00  0.00    -0.238 N 
ATOM     14  C   UNL     1      -9.035  -4.288  -4.562  0.00  0.00    +0.307 C 
ATOM     15  O   UNL     1     -10.030  -4.918  -4.863  0.00  0.00    -0.252 OA
ATOM     16  N   UNL     1      -9.016  -3.322  -3.624  0.00  0.00    -0.285 N 
ATOM     17  H   UNL     1      -7.656  -5.131  -5.819  0.00  0.00    +0.159 HD
ATOM     18  H   UNL     1      -9.765  -3.016  -3.090  0.00  0.00    +0.151 HD
ENDBRANCH   2   5
BRANCH   1  19
ATOM     19  C   UNL     1      -2.037  -0.177  -1.302  0.00  0.00    +0.089 C 
BRANCH  19  20
ATOM     20  C   UNL     1      -1.405  -0.536   0.044  0.00  0.00    -0.049 C 
BRANCH  20  21
ATOM     21  N   UNL     1      -1.183  -1.987   0.110  0.00  0.00    +0.383 N 
ATOM     22  C   UNL     1      -0.337  -2.389  -1.030  0.00  0.00    -0.078 C 
ATOM     23  C   UNL     1       0.376  -3.667  -0.663  0.00  0.00    -0.019 C 
ATOM     24  C   UNL     1      -0.374  -4.902  -1.196  0.00  0.00    -0.002 C 
ATOM     25  C   UNL     1      -1.901  -4.761  -1.030  0.00  0.00    -0.002 C 
ATOM     26  C   UNL     1      -2.280  -4.156   0.297  0.00  0.00    -0.019 C 
ATOM     27  C   UNL     1      -2.423  -2.628   0.132  0.00  0.00    -0.078 C 
ATOM     28  H   UNL     1      -0.693  -2.200   0.966  0.00  0.00    -0.081 HD
ENDBRANCH  20  21
BRANCH  20  30
ATOM     29  C   UNL     1      -0.311   1.700   0.254  0.00  0.00    +0.005 C 
ATOM     30  C   UNL     1      -0.067   0.191   0.190  0.00  0.00    -0.029 C 
ATOM     31  C   UNL     1       0.627  -0.269   1.474  0.00  0.00    +0.005 C 
ENDBRANCH  20  30
ENDBRANCH  19  20
ENDBRANCH   1  19
TORSDOF 5
