REMARK  Name = ZINC63526493
REMARK  13 active torsions:
REMARK  status: ('A' for Active; 'I' for Inactive)
REMARK    1  A    between atoms: C_1  and  C_2
REMARK    2  A    between atoms: C_2  and  O_3
REMARK    3  A    between atoms: O_3  and  C_4
REMARK    4  A    between atoms: C_7  and  S_13
REMARK    5  A    between atoms: C_9  and  C_10
REMARK    6  A    between atoms: C_10  and  C_11
REMARK    7  A    between atoms: C_10  and  C_12
REMARK    8  A    between atoms: S_13  and  N_16
REMARK    9  A    between atoms: N_16  and  C_17
REMARK   10  A    between atoms: C_17  and  C_18
REMARK   11  A    between atoms: C_18  and  C_19
REMARK   12  A    between atoms: C_22  and  C_30
REMARK   13  A    between atoms: C_27  and  C_29
REMARK                            x       y       z     vdW  Elec       q    Type
REMARK                         _______ _______ _______ _____ _____    ______ ____
ROOT
ATOM      1  N   UNL     1      -0.332  -6.815  -2.740  0.00  0.00    -0.190 NA
ATOM      2  H   UNL     1      -0.979  -7.322  -2.224  0.00  0.00    +0.148 HD
ENDROOT
BRANCH   1   3
ATOM      3  S   UNL     1       1.148  -6.456  -2.089  0.00  0.00    +0.058 S 
ATOM      4  O   UNL     1       2.117  -6.808  -3.067  0.00  0.00    -0.153 OA
ATOM      5  O   UNL     1       1.157  -7.000  -0.776  0.00  0.00    -0.153 OA
BRANCH   3   9
ATOM      6  C   UNL     1       1.351  -1.956  -1.626  0.00  0.00    +0.124 A 
ATOM      7  C   UNL     1       0.756  -2.730  -0.640  0.00  0.00    +0.048 A 
ATOM      8  C   UNL     1       0.695  -4.102  -0.783  0.00  0.00    +0.032 A 
ATOM      9  C   UNL     1       1.227  -4.705  -1.909  0.00  0.00    +0.106 A 
ATOM     10  C   UNL     1       1.821  -3.936  -2.892  0.00  0.00    +0.036 A 
ATOM     11  C   UNL     1       1.879  -2.562  -2.756  0.00  0.00    -0.001 A 
BRANCH  11  12
ATOM     12  C   UNL     1       2.521  -1.724  -3.831  0.00  0.00    +0.016 C 
ATOM     13  C   UNL     1       3.946  -2.222  -4.082  0.00  0.00    +0.012 C 
ATOM     14  C   UNL     1       1.706  -1.839  -5.121  0.00  0.00    +0.012 C 
ENDBRANCH  11  12
BRANCH   6  15
ATOM     15  O   UNL     1       1.412  -0.605  -1.487  0.00  0.00    -0.492 OA
BRANCH  15  17
ATOM     16  C   UNL     1       1.009   1.472  -0.319  0.00  0.00    +0.048 C 
ATOM     17  C   UNL     1       0.848  -0.050  -0.297  0.00  0.00    +0.225 C 
ENDBRANCH  15  17
ENDBRANCH   6  15
ENDBRANCH   3   9
ENDBRANCH   1   3
BRANCH   1  18
ATOM     18  C   UNL     1      -0.665  -6.366  -4.094  0.00  0.00    +0.110 C 
BRANCH  18  19
ATOM     19  C   UNL     1      -2.178  -6.459  -4.305  0.00  0.00    +0.050 C 
BRANCH  19  20
ATOM     20  C   UNL     1      -2.519  -6.013  -5.703  0.00  0.00    -0.037 C 
ATOM     21  C   UNL     1      -1.654  -5.604  -6.660  0.00  0.00    -0.001 A 
ATOM     22  C   UNL     1      -0.194  -5.457  -6.683  0.00  0.00    +0.013 A 
ATOM     23  C   UNL     1       0.403  -5.014  -7.813  0.00  0.00    -0.050 A 
ATOM     24  C   UNL     1      -0.337  -4.691  -8.959  0.00  0.00    +0.005 A 
ATOM     25  C   UNL     1      -1.681  -4.801  -9.014  0.00  0.00    +0.026 A 
ATOM     26  C   UNL     1      -2.412  -5.258  -7.883  0.00  0.00    +0.043 A 
ATOM     27  N   UNL     1      -3.695  -5.445  -7.691  0.00  0.00    -0.378 N 
ATOM     28  C   UNL     1      -3.896  -5.938  -6.323  0.00  0.00    +0.103 C 
ATOM     29  C   UNL     1      -4.775  -4.963  -5.538  0.00  0.00    +0.035 C 
ATOM     30  C   UNL     1       1.902  -4.862  -7.840  0.00  0.00    +0.044 C 
ATOM     31  H   UNL     1      -4.395  -5.288  -8.344  0.00  0.00    +0.160 HD
ENDBRANCH  19  20
ENDBRANCH  18  19
ENDBRANCH   1  18
TORSDOF 8
