REMARK  Name = ZINC64871109
REMARK  6 active torsions:
REMARK  status: ('A' for Active; 'I' for Inactive)
REMARK    1  A    between atoms: C_1  and  S_2
REMARK    2  A    between atoms: S_2  and  C_3
REMARK    3  A    between atoms: C_6  and  C_9
REMARK    4  A    between atoms: C_12  and  C_16
REMARK    5  A    between atoms: N_26  and  C_29
REMARK    6  A    between atoms: C_29  and  C_30
REMARK                            x       y       z     vdW  Elec       q    Type
REMARK                         _______ _______ _______ _____ _____    ______ ____
ROOT
ATOM      1  C   UNL     1      -7.682  -3.591   2.441  0.00  0.00    -0.000 A 
ATOM      2  C   UNL     1      -6.645  -3.823   3.332  0.00  0.00    +0.008 A 
ATOM      3  C   UNL     1      -6.842  -4.618   4.441  0.00  0.00    +0.016 A 
ATOM      4  C   UNL     1      -8.093  -5.190   4.662  0.00  0.00    +0.063 A 
ATOM      5  C   UNL     1      -9.143  -4.955   3.758  0.00  0.00    +0.056 A 
ATOM      6  C   UNL     1      -8.928  -4.148   2.651  0.00  0.00    +0.034 A 
ATOM      7  N   UNL     1     -10.378  -5.537   4.003  0.00  0.00    -0.307 N 
ATOM      8  H   UNL     1     -11.112  -5.384   3.388  0.00  0.00    +0.170 HD
ATOM      9  C   UNL     1     -10.567  -6.312   5.085  0.00  0.00    +0.330 A 
ATOM     10  O   UNL     1     -11.664  -6.804   5.264  0.00  0.00    -0.246 OA
ATOM     11  N   UNL     1      -9.596  -6.566   5.976  0.00  0.00    -0.256 N 
ATOM     12  C   UNL     1      -8.358  -6.048   5.831  0.00  0.00    +0.265 A 
ATOM     13  O   UNL     1      -7.484  -6.283   6.643  0.00  0.00    -0.267 OA
ENDROOT
BRANCH   1  16
ATOM     14  C   UNL     1      -5.834  -1.544   0.050  0.00  0.00    +0.180 C 
ATOM     15  N   UNL     1      -6.033  -2.818   0.791  0.00  0.00    -0.265 NA
ATOM     16  C   UNL     1      -7.448  -2.719   1.235  0.00  0.00    +0.242 C 
ATOM     17  O   UNL     1      -7.631  -1.332   1.573  0.00  0.00    -0.274 OA
ATOM     18  N   UNL     1      -6.627  -0.559   0.823  0.00  0.00    -0.177 NA
ATOM     19  H   UNL     1      -5.899  -3.614   0.185  0.00  0.00    +0.127 HD
ATOM     20  H   UNL     1      -7.066   0.112   0.211  0.00  0.00    +0.156 HD
BRANCH  14  24
ATOM     21  C   UNL     1      -1.702  -0.454   0.016  0.00  0.00    +0.008 A 
ATOM     22  C   UNL     1      -2.682   0.531   0.025  0.00  0.00    +0.015 A 
ATOM     23  C   UNL     1      -4.016   0.176   0.036  0.00  0.00    +0.007 A 
ATOM     24  C   UNL     1      -4.377  -1.159   0.038  0.00  0.00    -0.014 A 
ATOM     25  C   UNL     1      -3.404  -2.143   0.029  0.00  0.00    +0.007 A 
ATOM     26  C   UNL     1      -2.068  -1.794   0.012  0.00  0.00    +0.015 A 
BRANCH  21  28
ATOM     27  C   UNL     1      -0.022   1.810   0.012  0.00  0.00    +0.090 C 
ATOM     28  S   UNL     1       0.002  -0.004   0.002  0.00  0.00    -0.129 S 
ENDBRANCH  21  28
ENDBRANCH  14  24
ENDBRANCH   1  16
BRANCH  11  29
ATOM     29  C   UNL     1      -9.886  -7.422   7.130  0.00  0.00    +0.165 C 
BRANCH  29  30
ATOM     30  C   UNL     1      -9.596  -8.858   6.775  0.00  0.00    -0.026 A 
ATOM     31  C   UNL     1     -10.588  -9.648   6.226  0.00  0.00    +0.005 A 
ATOM     32  C   UNL     1     -10.322 -10.965   5.900  0.00  0.00    +0.002 A 
ATOM     33  C   UNL     1      -9.065 -11.493   6.125  0.00  0.00    +0.020 A 
ATOM     34  C   UNL     1      -8.072 -10.702   6.675  0.00  0.00    +0.041 A 
ATOM     35  C   UNL     1      -8.336  -9.382   6.995  0.00  0.00    +0.025 A 
ATOM     36 CL   UNL     1      -6.492 -11.364   6.957  0.00  0.00    -0.084 Cl
ENDBRANCH  29  30
ENDBRANCH  11  29
TORSDOF 5
