REMARK  Name = ZINC06076557
REMARK  10 active torsions:
REMARK  status: ('A' for Active; 'I' for Inactive)
REMARK    1  A    between atoms: C_1  and  O_2
REMARK    2  A    between atoms: O_2  and  C_3
REMARK    3  A    between atoms: C_3  and  C_5
REMARK    4  A    between atoms: C_5  and  N_50
REMARK    5  A    between atoms: C_6  and  C_8
REMARK    6  A    between atoms: C_6  and  C_14
REMARK    7  A    between atoms: C_6  and  N_50
REMARK    8  A    between atoms: C_19  and  N_20
REMARK    9  A    between atoms: N_20  and  S_21
REMARK   10  A    between atoms: S_21  and  C_24
REMARK                            x       y       z     vdW  Elec       q    Type
REMARK                         _______ _______ _______ _____ _____    ______ ____
ROOT
ATOM      1  C   UNL     1      -1.158  -0.574   0.319  0.00  0.00    -0.034 A 
ATOM      2  C   UNL     1      -2.277   0.207   0.105  0.00  0.00    +0.019 A 
ATOM      3  C   UNL     1      -3.517  -0.223   0.542  0.00  0.00    +0.018 A 
ATOM      4  C   UNL     1      -3.638  -1.432   1.204  0.00  0.00    +0.017 A 
ATOM      5  C   UNL     1      -2.522  -2.215   1.426  0.00  0.00    +0.026 A 
ATOM      6  C   UNL     1      -1.277  -1.788   0.983  0.00  0.00    +0.050 A 
ATOM      7 BR   UNL     1      -5.048   0.845   0.241  0.00  0.00    -0.050 Br
ENDROOT
BRANCH   6   8
ATOM      8  N   UNL     1      -0.146  -2.577   1.206  0.00  0.00    -0.216 N 
ATOM      9  H   UNL     1       0.711  -2.158   1.381  0.00  0.00    +0.174 HD
BRANCH   8  10
ATOM     10  S   UNL     1      -0.269  -4.228   1.173  0.00  0.00    +0.072 S 
ATOM     11  O   UNL     1       1.053  -4.736   1.292  0.00  0.00    -0.150 OA
ATOM     12  O   UNL     1      -1.303  -4.576   2.083  0.00  0.00    -0.150 OA
BRANCH  10  13
ATOM     13  C   UNL     1      -0.839  -4.676  -0.433  0.00  0.00    +0.108 A 
ATOM     14  C   UNL     1      -2.195  -4.780  -0.680  0.00  0.00    +0.029 A 
ATOM     15  C   UNL     1      -2.642  -5.127  -1.942  0.00  0.00    +0.002 A 
ATOM     16  C   UNL     1      -1.734  -5.379  -2.952  0.00  0.00    +0.000 A 
ATOM     17  C   UNL     1      -0.378  -5.280  -2.703  0.00  0.00    +0.002 A 
ATOM     18  C   UNL     1       0.070  -4.928  -1.443  0.00  0.00    +0.029 A 
ENDBRANCH  10  13
ENDBRANCH   8  10
ENDBRANCH   6   8
BRANCH   1  19
ATOM     19  C   UNL     1       0.191  -0.107  -0.163  0.00  0.00    -0.007 C 
BRANCH  19  20
ATOM     20  C   UNL     1       0.478  -0.709  -1.514  0.00  0.00    -0.057 A 
ATOM     21  C   UNL     1      -0.086  -0.160  -2.651  0.00  0.00    +0.002 A 
ATOM     22  C   UNL     1       0.181  -0.710  -3.890  0.00  0.00    +0.000 A 
ATOM     23  C   UNL     1       1.004  -1.816  -3.993  0.00  0.00    +0.000 A 
ATOM     24  C   UNL     1       1.564  -2.369  -2.856  0.00  0.00    +0.000 A 
ATOM     25  C   UNL     1       1.301  -1.816  -1.617  0.00  0.00    +0.002 A 
ENDBRANCH  19  20
BRANCH  19  26
ATOM     26  N   UNL     1       0.184   1.364  -0.272  0.00  0.00    +0.393 N 
ATOM     27  H   UNL     1      -0.204   1.635  -1.184  0.00  0.00    -0.084 HD
ATOM     28  H   UNL     1      -0.399   1.756   0.477  0.00  0.00    -0.084 HD
BRANCH  26  29
ATOM     29  C   UNL     1       1.555   1.894  -0.150  0.00  0.00    +0.041 C 
BRANCH  29  30
ATOM     30  C   UNL     1       1.517   3.396  -0.264  0.00  0.00    +0.290 C 
ATOM     31  O   UNL     1       0.462   3.962  -0.430  0.00  0.00    -0.253 OA
BRANCH  30  33
ATOM     32  C   UNL     1       2.541   5.547  -0.302  0.00  0.00    +0.280 C 
ATOM     33  O   UNL     1       2.654   4.105  -0.183  0.00  0.00    -0.469 OA
ENDBRANCH  30  33
ENDBRANCH  29  30
ENDBRANCH  26  29
ENDBRANCH  19  26
ENDBRANCH   1  19
TORSDOF 9
