REMARK  Name = ZINC09109375
REMARK  6 active torsions:
REMARK  status: ('A' for Active; 'I' for Inactive)
REMARK    1  A    between atoms: C_1  and  C_2
REMARK    2  A    between atoms: C_4  and  C_38
REMARK    3  A    between atoms: C_9  and  C_27
REMARK    4  A    between atoms: C_11  and  C_18
REMARK    5  A    between atoms: C_21  and  N_24
REMARK    6  A    between atoms: C_27  and  C_29
REMARK                            x       y       z     vdW  Elec       q    Type
REMARK                         _______ _______ _______ _____ _____    ______ ____
ROOT
ATOM      1  C   UNL     1       7.472  -5.314  -1.530  0.00  0.00    +0.044 C 
ATOM      2  C   UNL     1       6.020  -5.181  -1.911  0.00  0.00    -0.050 A 
ATOM      3  C   UNL     1       5.611  -5.480  -3.198  0.00  0.00    +0.008 A 
ATOM      4  C   UNL     1       4.284  -5.360  -3.553  0.00  0.00    -0.029 A 
ATOM      5  C   UNL     1       3.344  -4.937  -2.616  0.00  0.00    +0.039 A 
ATOM      6  C   UNL     1       3.767  -4.638  -1.325  0.00  0.00    -0.027 A 
ATOM      7  C   UNL     1       5.093  -4.759  -0.975  0.00  0.00    +0.008 A 
ATOM      8  C   UNL     1       2.534  -4.217  -0.575  0.00  0.00    +0.052 C 
ATOM      9  C   UNL     1       2.667  -2.788  -0.035  0.00  0.00    +0.069 C 
ATOM     10  C   UNL     1       3.207  -2.975   1.400  0.00  0.00    +0.016 C 
ATOM     11  C   UNL     1       2.975  -4.453   1.730  0.00  0.00    -0.047 C 
ATOM     12  C   UNL     1       0.812  -5.177   0.796  0.00  0.00    -0.005 C 
ATOM     13  S   UNL     1       0.748  -5.542   2.604  0.00  0.00    -0.181 S 
ATOM     14  C   UNL     1       2.264  -4.609   3.084  0.00  0.00    +0.052 C 
ATOM     15  C   UNL     1       1.415  -4.321  -1.576  0.00  0.00    +0.212 C 
ATOM     16  O   UNL     1       0.243  -4.073  -1.381  0.00  0.00    -0.277 OA
ATOM     17  N   UNL     1       1.966  -4.742  -2.731  0.00  0.00    -0.286 N 
ATOM     18  C   UNL     1       3.849  -5.688  -4.958  0.00  0.00    +0.045 C 
ATOM     19  H   UNL     1       1.464  -4.891  -3.547  0.00  0.00    +0.155 HD
ATOM     20  N   UNL     1       2.298  -5.066   0.574  0.00  0.00    +0.401 N 
ATOM     21  H   UNL     1       2.686  -6.002   0.406  0.00  0.00    -0.078 HD
ENDROOT
BRANCH  10  22
ATOM     22  C   UNL     1       4.678  -2.653   1.450  0.00  0.00    -0.045 A 
ATOM     23  C   UNL     1       5.510  -3.352   2.305  0.00  0.00    +0.006 A 
ATOM     24  C   UNL     1       6.860  -3.061   2.347  0.00  0.00    +0.033 A 
ATOM     25  C   UNL     1       7.377  -2.062   1.544  0.00  0.00    +0.126 A 
ATOM     26  C   UNL     1       6.545  -1.359   0.693  0.00  0.00    +0.033 A 
ATOM     27  C   UNL     1       5.195  -1.655   0.646  0.00  0.00    +0.006 A 
BRANCH  25  28
ATOM     28  N   UNL     1       8.822  -1.745   1.593  0.00  0.00    +0.056 N 
ATOM     29  O   UNL     1       9.278  -0.866   0.885  0.00  0.00    -0.126 OA
ATOM     30  O   UNL     1       9.556  -2.365   2.343  0.00  0.00    -0.126 OA
ENDBRANCH  25  28
ENDBRANCH  10  22
BRANCH   9  31
ATOM     31  C   UNL     1       1.323  -2.107  -0.008  0.00  0.00    +0.168 C 
ATOM     32  O   UNL     1       0.608  -2.214   0.965  0.00  0.00    -0.292 OA
BRANCH  31  33
ATOM     33  C   UNL     1       0.878  -1.312  -1.164  0.00  0.00    +0.036 A 
ATOM     34  C   UNL     1      -0.371  -0.673  -1.153  0.00  0.00    +0.014 A 
ATOM     35  C   UNL     1      -0.741   0.062  -2.264  0.00  0.00    +0.020 A 
ATOM     36  C   UNL     1       0.124   0.143  -3.342  0.00  0.00    +0.111 A 
ATOM     37  N   UNL     1       1.293  -0.469  -3.326  0.00  0.00    -0.263 NA
ATOM     38  C   UNL     1       1.692  -1.180  -2.293  0.00  0.00    +0.122 A 
ENDBRANCH  31  33
ENDBRANCH   9  31
TORSDOF 4
