REMARK  Name = ZINC01008189
REMARK  9 active torsions:
REMARK  status: ('A' for Active; 'I' for Inactive)
REMARK    1  A    between atoms: C_1  and  O_2
REMARK    2  A    between atoms: O_2  and  C_3
REMARK    3  A    between atoms: C_6  and  C_11
REMARK    4  A    between atoms: C_7  and  O_9
REMARK    5  A    between atoms: O_9  and  C_10
REMARK    6  A    between atoms: N_15  and  C_25
REMARK    7  A    between atoms: N_17  and  C_18
REMARK    8  A    between atoms: C_25  and  C_26
REMARK    9  A    between atoms: C_26  and  C_27
REMARK                            x       y       z     vdW  Elec       q    Type
REMARK                         _______ _______ _______ _____ _____    ______ ____
ROOT
ATOM      1  C   UNL     1      -2.509   3.881   0.047  0.00  0.00    +0.032 C 
ATOM      2  C   UNL     1      -2.519   5.235   0.157  0.00  0.00    +0.078 C 
ATOM      3  C   UNL     1      -1.389   6.180   0.172  0.00  0.00    +0.259 C 
ATOM      4  O   UNL     1      -0.237   5.796   0.079  0.00  0.00    -0.269 OA
ATOM      5  N   UNL     1      -1.681   7.464   0.291  0.00  0.00    -0.246 N 
ATOM      6  C   UNL     1      -2.991   7.879   0.395  0.00  0.00    +0.168 C 
ATOM      7  N   UNL     1      -3.453   9.104   0.518  0.00  0.00    -0.225 NA
ATOM      8  S   UNL     1      -3.907   6.349   0.314  0.00  0.00    -0.049 S 
ENDROOT
BRANCH   1  12
ATOM      9  C   UNL     1       1.170   1.771   0.172  0.00  0.00    +0.124 A 
ATOM     10  C   UNL     1       0.944   2.829   1.047  0.00  0.00    +0.046 A 
ATOM     11  C   UNL     1      -0.247   3.516   1.011  0.00  0.00    +0.015 A 
ATOM     12  C   UNL     1      -1.237   3.151   0.090  0.00  0.00    +0.018 A 
ATOM     13  C   UNL     1      -1.004   2.086  -0.797  0.00  0.00    +0.131 A 
ATOM     14  C   UNL     1       0.197   1.400  -0.745  0.00  0.00    +0.091 A 
BRANCH   9  16
ATOM     15  C   UNL     1       3.308   1.531   1.182  0.00  0.00    +0.277 C 
ATOM     16  O   UNL     1       2.349   1.099   0.214  0.00  0.00    -0.495 OA
ENDBRANCH   9  16
BRANCH  13  17
ATOM     17  O   UNL     1      -1.954   1.729  -1.698  0.00  0.00    -0.494 OA
ATOM     18  C   UNL     1      -1.648   0.633  -2.563  0.00  0.00    +0.277 C 
ENDBRANCH  13  17
ENDBRANCH   1  12
BRANCH   7  19
ATOM     19  C   UNL     1      -4.801   9.320   0.608  0.00  0.00    +0.067 A 
ATOM     20  C   UNL     1      -5.677   8.663  -0.260  0.00  0.00    +0.028 A 
ATOM     21  C   UNL     1      -7.035   8.882  -0.161  0.00  0.00    +0.002 A 
ATOM     22  C   UNL     1      -7.530   9.758   0.790  0.00  0.00    +0.000 A 
ATOM     23  C   UNL     1      -6.668  10.416   1.649  0.00  0.00    +0.002 A 
ATOM     24  C   UNL     1      -5.308  10.203   1.564  0.00  0.00    +0.028 A 
ENDBRANCH   7  19
BRANCH   5  25
ATOM     25  C   UNL     1      -0.603   8.455   0.313  0.00  0.00    +0.120 C 
BRANCH  25  26
ATOM     26  C   UNL     1      -0.304   8.915  -1.116  0.00  0.00    +0.056 C 
BRANCH  26  27
ATOM     27  C   UNL     1       0.806   9.934  -1.094  0.00  0.00    -0.021 A 
ATOM     28  C   UNL     1       0.664  11.269  -1.073  0.00  0.00    +0.087 A 
ATOM     29  N   UNL     1       1.893  11.869  -1.057  0.00  0.00    -0.360 N 
ATOM     30  H   UNL     1       2.046  12.826  -1.041  0.00  0.00    +0.165 HD
ATOM     31  C   UNL     1       2.882  10.910  -1.067  0.00  0.00    +0.047 A 
ATOM     32  C   UNL     1       2.244   9.656  -1.084  0.00  0.00    +0.003 A 
ATOM     33  C   UNL     1       3.006   8.487  -1.105  0.00  0.00    +0.010 A 
ATOM     34  C   UNL     1       4.371   8.567  -1.095  0.00  0.00    +0.001 A 
ATOM     35  C   UNL     1       5.005   9.801  -1.071  0.00  0.00    +0.002 A 
ATOM     36  C   UNL     1       4.272  10.968  -1.058  0.00  0.00    +0.026 A 
ENDBRANCH  26  27
ENDBRANCH  25  26
ENDBRANCH   5  25
TORSDOF 7
