REMARK  Name = ZINC41586373
REMARK  11 active torsions:
REMARK  status: ('A' for Active; 'I' for Inactive)
REMARK    1  A    between atoms: C_1  and  C_2
REMARK    2  A    between atoms: C_2  and  O_3
REMARK    3  A    between atoms: O_3  and  C_4
REMARK    4  A    between atoms: C_4  and  C_6
REMARK    5  A    between atoms: N_11  and  C_13
REMARK    6  A    between atoms: C_13  and  C_14
REMARK    7  A    between atoms: C_15  and  O_34
REMARK    8  A    between atoms: C_17  and  C_33
REMARK    9  A    between atoms: C_22  and  C_23
REMARK   10  A    between atoms: C_27  and  O_29
REMARK   11  A    between atoms: O_29  and  C_30
REMARK                            x       y       z     vdW  Elec       q    Type
REMARK                         _______ _______ _______ _____ _____    ______ ____
ROOT
ATOM      1  C   UNL     1       2.734  -6.431   4.837  0.00  0.00    +0.020 A 
ATOM      2  C   UNL     1       4.088  -6.722   4.891  0.00  0.00    +0.122 A 
ATOM      3  C   UNL     1       4.652  -7.256   6.046  0.00  0.00    +0.050 A 
ATOM      4  C   UNL     1       3.873  -7.499   7.141  0.00  0.00    -0.033 A 
ATOM      5  C   UNL     1       2.508  -7.211   7.102  0.00  0.00    +0.071 A 
ATOM      6  C   UNL     1       1.928  -6.667   5.944  0.00  0.00    +0.145 A 
ATOM      7  O   UNL     1       0.607  -6.469   6.145  0.00  0.00    -0.451 OA
ATOM      8  C   UNL     1       0.226  -6.841   7.390  0.00  0.00    +0.176 C 
ATOM      9  C   UNL     1      -1.028  -6.768   7.899  0.00  0.00    +0.058 C 
ATOM     10  C   UNL     1       1.419  -7.351   8.085  0.00  0.00    +0.232 C 
ATOM     11  O   UNL     1       1.492  -7.780   9.223  0.00  0.00    -0.283 OA
ATOM     12  C   UNL     1       4.486  -8.078   8.391  0.00  0.00    +0.045 C 
ENDROOT
BRANCH   9  13
ATOM     13  C   UNL     1      -2.103  -6.138   7.118  0.00  0.00    -0.018 A 
ATOM     14  C   UNL     1      -3.365  -5.941   7.690  0.00  0.00    +0.008 A 
ATOM     15  C   UNL     1      -4.370  -5.350   6.954  0.00  0.00    +0.004 A 
ATOM     16  C   UNL     1      -4.136  -4.952   5.650  0.00  0.00    +0.045 A 
ATOM     17  C   UNL     1      -2.887  -5.143   5.072  0.00  0.00    +0.121 A 
ATOM     18  C   UNL     1      -1.868  -5.729   5.802  0.00  0.00    +0.053 A 
BRANCH  17  19
ATOM     19  O   UNL     1      -2.665  -4.749   3.790  0.00  0.00    -0.495 OA
ATOM     20  C   UNL     1      -3.760  -4.146   3.097  0.00  0.00    +0.277 C 
ENDBRANCH  17  19
ENDBRANCH   9  13
BRANCH   2  21
ATOM     21  O   UNL     1       4.870  -6.485   3.807  0.00  0.00    -0.506 OA
ATOM     22  H   UNL     1       5.261  -5.600   3.790  0.00  0.00    +0.292 HD
ENDBRANCH   2  21
BRANCH   1  23
ATOM     23  C   UNL     1       2.137  -5.853   3.580  0.00  0.00    -0.036 C 
BRANCH  23  28
ATOM     24  C   UNL     1       1.507  -2.294   2.567  0.00  0.00    +0.081 C 
ATOM     25  C   UNL     1       2.953  -1.788   2.595  0.00  0.00    +0.011 C 
ATOM     26  C   UNL     1       3.689  -2.441   3.768  0.00  0.00    -0.018 C 
ATOM     27  C   UNL     1       3.611  -3.963   3.629  0.00  0.00    -0.078 C 
ATOM     28  N   UNL     1       2.205  -4.386   3.635  0.00  0.00    +0.383 N 
ATOM     29  C   UNL     1       1.508  -3.821   2.473  0.00  0.00    -0.064 C 
ATOM     30  H   UNL     1       1.761  -4.062   4.482  0.00  0.00    -0.081 HD
BRANCH  24  31
ATOM     31  C   UNL     1       0.795  -1.717   1.371  0.00  0.00    +0.308 C 
ATOM     32  O   UNL     1       0.333  -2.451   0.531  0.00  0.00    -0.251 OA
BRANCH  31  33
ATOM     33  O   UNL     1       0.673  -0.387   1.240  0.00  0.00    -0.465 OA
BRANCH  33  35
ATOM     34  C   UNL     1      -0.053   1.620   0.107  0.00  0.00    +0.048 C 
ATOM     35  C   UNL     1      -0.015   0.091   0.082  0.00  0.00    +0.229 C 
ENDBRANCH  33  35
ENDBRANCH  31  33
ENDBRANCH  24  31
ENDBRANCH  23  28
ENDBRANCH   1  23
TORSDOF 8
