REMARK  Name = ZINC20830489
REMARK  6 active torsions:
REMARK  status: ('A' for Active; 'I' for Inactive)
REMARK    1  A    between atoms: C_6  and  C_7
REMARK    2  A    between atoms: C_10  and  C_12
REMARK    3  A    between atoms: C_12  and  S_13
REMARK    4  A    between atoms: S_13  and  C_14
REMARK    5  A    between atoms: C_17  and  C_20
REMARK    6  A    between atoms: N_18  and  N_19
REMARK                            x       y       z     vdW  Elec       q    Type
REMARK                         _______ _______ _______ _____ _____    ______ ____
ROOT
ATOM      1  C   UNL     1      -3.145   3.522   1.453  0.00  0.00    +0.209 A 
ATOM      2  N   UNL     1      -3.636   3.872   0.285  0.00  0.00    -0.121 NA
ATOM      3  N   UNL     1      -4.675   4.611   0.448  0.00  0.00    -0.127 NA
ATOM      4  C   UNL     1      -4.911   4.777   1.728  0.00  0.00    +0.182 A 
ATOM      5  N   UNL     1      -3.942   4.080   2.412  0.00  0.00    -0.224 N 
ENDROOT
BRANCH   4   6
ATOM      6  C   UNL     1      -6.014   5.561   2.323  0.00  0.00    +0.021 A 
ATOM      7  C   UNL     1      -5.977   5.909   3.674  0.00  0.00    +0.013 A 
ATOM      8  C   UNL     1      -7.007   6.645   4.223  0.00  0.00    +0.016 A 
ATOM      9  C   UNL     1      -8.081   7.029   3.438  0.00  0.00    +0.018 A 
ATOM     10  C   UNL     1      -8.127   6.682   2.099  0.00  0.00    +0.016 A 
ATOM     11  C   UNL     1      -7.100   5.951   1.538  0.00  0.00    +0.013 A 
ATOM     12 BR   UNL     1      -9.493   8.031   4.200  0.00  0.00    -0.050 Br
ENDBRANCH   4   6
BRANCH   5  13
ATOM     13  N   UNL     1      -3.804   3.972   3.766  0.00  0.00    -0.295 N 
ATOM     14  H   UNL     1      -4.519   4.474   4.434  0.00  0.00    +0.163 HD
ATOM     15  H   UNL     1      -2.977   3.382   4.189  0.00  0.00    +0.163 HD
ENDBRANCH   5  13
BRANCH   1  16
ATOM     16  S   UNL     1      -1.727   2.513   1.731  0.00  0.00    -0.075 S 
BRANCH  16  17
ATOM     17  C   UNL     1      -1.244   2.172   0.020  0.00  0.00    +0.175 C 
BRANCH  17  21
ATOM     18  C   UNL     1       2.029   0.617  -0.014  0.00  0.00    +0.248 A 
ATOM     19  N   UNL     1       1.220  -0.418  -0.012  0.00  0.00    -0.107 NA
ATOM     20  N   UNL     1       0.002  -0.004   0.002  0.00  0.00    -0.111 NA
ATOM     21  C   UNL     1      -0.016   1.299   0.009  0.00  0.00    +0.228 A 
ATOM     22  O   UNL     1       1.260   1.724  -0.001  0.00  0.00    -0.419 OA
BRANCH  18  28
ATOM     23  C   UNL     1       4.240   1.762  -0.034  0.00  0.00    +0.016 A 
ATOM     24  C   UNL     1       5.619   1.717  -0.041  0.00  0.00    +0.039 A 
ATOM     25  C   UNL     1       6.275   0.496  -0.053  0.00  0.00    +0.123 A 
ATOM     26  C   UNL     1       5.550  -0.685  -0.053  0.00  0.00    +0.039 A 
ATOM     27  C   UNL     1       4.172  -0.652  -0.040  0.00  0.00    +0.016 A 
ATOM     28  C   UNL     1       3.506   0.575  -0.028  0.00  0.00    +0.039 A 
ATOM     29  F   UNL     1       7.625   0.458  -0.066  0.00  0.00    -0.205 F 
ENDBRANCH  18  28
ENDBRANCH  17  21
ENDBRANCH  16  17
ENDBRANCH   1  16
TORSDOF 6
