REMARK  Name = ZINC38685469
REMARK  4 active torsions:
REMARK  status: ('A' for Active; 'I' for Inactive)
REMARK    1  A    between atoms: C_10  and  N_13
REMARK    2  A    between atoms: C_14  and  C_16
REMARK    3  A    between atoms: C_16  and  S_17
REMARK    4  A    between atoms: S_17  and  C_18
REMARK                            x       y       z     vdW  Elec       q    Type
REMARK                         _______ _______ _______ _____ _____    ______ ____
ROOT
ATOM      1  N   UNL     1       3.385  -2.054  -2.361  0.00  0.00    -0.288 N 
ATOM      2  C   UNL     1       4.473  -1.832  -3.125  0.00  0.00    +0.225 C 
ATOM      3  O   UNL     1       5.580  -1.871  -2.631  0.00  0.00    -0.275 OA
ATOM      4  H   UNL     1       2.500  -2.023  -2.756  0.00  0.00    +0.151 HD
ENDROOT
BRANCH   1  14
ATOM      5  C   UNL     1      -0.017   1.373   0.010  0.00  0.00    +0.001 A 
ATOM      6  C   UNL     1       1.167   2.096   0.002  0.00  0.00    +0.001 A 
ATOM      7  C   UNL     1       2.382   1.441  -0.015  0.00  0.00    +0.015 A 
ATOM      8  C   UNL     1       2.418   0.055  -0.023  0.00  0.00    +0.023 A 
ATOM      9  C   UNL     1       1.224  -0.685  -0.013  0.00  0.00    +0.050 A 
ATOM     10  C   UNL     1       0.002  -0.004   0.002  0.00  0.00    +0.014 A 
ATOM     11  C   UNL     1       1.255  -2.151  -0.014  0.00  0.00    +0.247 C 
ATOM     12  O   UNL     1       0.262  -2.738   0.372  0.00  0.00    -0.270 OA
ATOM     13  N   UNL     1       2.293  -2.887  -0.409  0.00  0.00    -0.284 N 
ATOM     14  C   UNL     1       3.540  -2.342  -0.932  0.00  0.00    +0.226 C 
ATOM     15  S   UNL     1       3.955  -0.809  -0.049  0.00  0.00    -0.083 S 
ATOM     16  H   UNL     1       2.213  -3.852  -0.344  0.00  0.00    +0.152 HD
ENDBRANCH   1  14
BRANCH   2  17
ATOM     17  C   UNL     1       4.314  -1.536  -4.594  0.00  0.00    +0.173 C 
BRANCH  17  18
ATOM     18  S   UNL     1       5.948  -1.286  -5.341  0.00  0.00    -0.079 S 
BRANCH  18  19
ATOM     19  C   UNL     1       5.596  -0.954  -7.035  0.00  0.00    +0.168 A 
ATOM     20  N   UNL     1       4.396  -0.914  -7.561  0.00  0.00    -0.222 NA
ATOM     21  C   UNL     1       4.489  -0.633  -8.887  0.00  0.00    +0.090 A 
ATOM     22  C   UNL     1       3.543  -0.476  -9.903  0.00  0.00    +0.030 A 
ATOM     23  C   UNL     1       3.957  -0.186 -11.184  0.00  0.00    +0.002 A 
ATOM     24  C   UNL     1       5.306  -0.048 -11.474  0.00  0.00    +0.002 A 
ATOM     25  C   UNL     1       6.253  -0.200 -10.482  0.00  0.00    +0.028 A 
ATOM     26  C   UNL     1       5.854  -0.492  -9.186  0.00  0.00    +0.067 A 
ATOM     27  N   UNL     1       6.533  -0.695  -7.996  0.00  0.00    -0.333 N 
ATOM     28  H   UNL     1       7.494  -0.661  -7.868  0.00  0.00    +0.168 HD
ENDBRANCH  18  19
ENDBRANCH  17  18
ENDBRANCH   2  17
TORSDOF 4
