REMARK  Name = ZINC05450662
REMARK  3 active torsions:
REMARK  status: ('A' for Active; 'I' for Inactive)
REMARK    1  A    between atoms: C_4  and  C_7
REMARK    2  A    between atoms: C_10  and  C_12
REMARK    3  A    between atoms: C_18  and  C_25
REMARK                            x       y       z     vdW  Elec       q    Type
REMARK                         _______ _______ _______ _____ _____    ______ ____
ROOT
ATOM      1  C   UNL     1       5.159  -4.117  -0.281  0.00  0.00    +0.117 C 
ATOM      2  C   UNL     1       6.007  -4.397  -1.506  0.00  0.00    +0.080 C 
ATOM      3  N   UNL     1       5.563  -5.095  -2.499  0.00  0.00    -0.390 N 
ATOM      4  N   UNL     1       7.285  -3.861  -1.503  0.00  0.00    -0.298 N 
ATOM      5  C   UNL     1       7.972  -3.850  -0.305  0.00  0.00    +0.091 C 
ATOM      6  C   UNL     1       7.369  -4.184   0.862  0.00  0.00    +0.065 C 
ATOM      7  C   UNL     1       5.929  -4.613   0.948  0.00  0.00    +0.023 C 
ATOM      8  C   UNL     1       5.853  -6.141   1.006  0.00  0.00    +0.013 C 
ATOM      9  C   UNL     1       4.388  -6.574   1.083  0.00  0.00    +0.001 C 
ATOM     10  C   UNL     1       3.747  -5.986   2.342  0.00  0.00    +0.000 C 
ATOM     11  C   UNL     1       3.827  -4.459   2.289  0.00  0.00    +0.001 C 
ATOM     12  C   UNL     1       5.292  -4.027   2.211  0.00  0.00    +0.013 C 
ATOM     13  S   UNL     1       9.673  -3.392  -0.293  0.00  0.00    -0.034 SA
ATOM     14  H   UNL     1       4.663  -5.457  -2.473  0.00  0.00    +0.157 HD
ATOM     15  H   UNL     1       7.683  -3.507  -2.313  0.00  0.00    +0.154 HD
ATOM     16  H   UNL     1       6.129  -5.258  -3.270  0.00  0.00    +0.157 HD
ENDROOT
BRANCH   1  20
ATOM     17  C   UNL     1       3.699  -0.689  -0.037  0.00  0.00    +0.078 A 
ATOM     18  C   UNL     1       4.893  -0.026   0.062  0.00  0.00    +0.075 A 
ATOM     19  S   UNL     1       6.036  -1.396  -0.016  0.00  0.00    -0.079 S 
ATOM     20  C   UNL     1       4.908  -2.636  -0.162  0.00  0.00    +0.090 A 
ATOM     21  N   UNL     1       3.761  -2.008  -0.143  0.00  0.00    -0.243 NA
BRANCH  17  25
ATOM     22  C   UNL     1      -0.017   1.379   0.010  0.00  0.00    +0.000 A 
ATOM     23  C   UNL     1       1.169   2.092   0.002  0.00  0.00    +0.001 A 
ATOM     24  C   UNL     1       2.377   1.426  -0.013  0.00  0.00    +0.010 A 
ATOM     25  C   UNL     1       2.402   0.033  -0.021  0.00  0.00    +0.001 A 
ATOM     26  C   UNL     1       1.205  -0.680  -0.013  0.00  0.00    +0.010 A 
ATOM     27  C   UNL     1       0.002  -0.004   0.002  0.00  0.00    +0.001 A 
ENDBRANCH  17  25
ENDBRANCH   1  20
BRANCH   6  28
ATOM     28  C   UNL     1       8.137  -4.125   2.069  0.00  0.00    +0.098 C 
ATOM     29  N   UNL     1       8.746  -4.079   3.027  0.00  0.00    -0.191 NA
ENDBRANCH   6  28
TORSDOF 3
