REMARK  Name = ZINC17431007
REMARK  2 active torsions:
REMARK  status: ('A' for Active; 'I' for Inactive)
REMARK    1  A    between atoms: C_1  and  S_2
REMARK    2  A    between atoms: S_2  and  C_3
REMARK                            x       y       z     vdW  Elec       q    Type
REMARK                         _______ _______ _______ _____ _____    ______ ____
ROOT
ATOM      1  C   UNL     1       0.848  -0.411  -1.489  0.00  0.00    +0.183 A 
ATOM      2  C   UNL     1       1.054  -1.746  -1.840  0.00  0.00    +0.286 A 
ATOM      3  N   UNL     1       1.713  -2.016  -3.001  0.00  0.00    -0.270 N 
ATOM      4  C   UNL     1       2.138  -0.986  -3.761  0.00  0.00    +0.367 A 
ATOM      5  N   UNL     1       1.915   0.273  -3.378  0.00  0.00    -0.089 NA
ATOM      6  N   UNL     1       1.290   0.549  -2.289  0.00  0.00    -0.133 NA
ATOM      7  O   UNL     1       2.731  -1.206  -4.805  0.00  0.00    -0.243 OA
ATOM      8  O   UNL     1       0.611  -2.745  -1.047  0.00  0.00    -0.265 OA
ATOM      9  H   UNL     1       1.874  -2.932  -3.276  0.00  0.00    +0.174 HD
ENDROOT
BRANCH   1  11
ATOM     10  C   UNL     1      -0.022   1.810   0.012  0.00  0.00    +0.091 C 
ATOM     11  S   UNL     1       0.002  -0.004   0.002  0.00  0.00    -0.102 S 
ENDBRANCH   1  11
TORSDOF 1
