REMARK  Name = ZINC40094927
REMARK  14 active torsions:
REMARK  status: ('A' for Active; 'I' for Inactive)
REMARK    1  A    between atoms: C_1  and  C_2
REMARK    2  A    between atoms: C_7  and  C_12
REMARK    3  A    between atoms: C_12  and  C_14
REMARK    4  A    between atoms: N_18  and  C_31
REMARK    5  A    between atoms: C_19  and  C_21
REMARK    6  A    between atoms: C_24  and  C_27
REMARK    7  A    between atoms: C_27  and  C_28
REMARK    8  A    between atoms: C_27  and  C_29
REMARK    9  A    between atoms: C_27  and  C_30
REMARK   10  A    between atoms: C_31  and  C_32
REMARK   11  A    between atoms: C_32  and  O_33
REMARK   12  A    between atoms: O_33  and  C_34
REMARK   13  A    between atoms: C_34  and  C_35
REMARK   14  A    between atoms: C_35  and  O_36
REMARK                            x       y       z     vdW  Elec       q    Type
REMARK                         _______ _______ _______ _____ _____    ______ ____
ROOT
ATOM      1  C   UNL     1      -0.288  -5.909   5.747  0.00  0.00    +0.076 C 
ATOM      2  C   UNL     1      -0.166  -6.598   6.905  0.00  0.00    +0.249 C 
ATOM      3  C   UNL     1       1.219  -7.098   7.029  0.00  0.00    +0.288 C 
ATOM      4  O   UNL     1       1.643  -7.753   7.960  0.00  0.00    -0.266 OA
ATOM      5  N   UNL     1       1.941  -6.721   5.958  0.00  0.00    -0.281 N 
ATOM      6  C   UNL     1       1.061  -5.955   5.068  0.00  0.00    +0.145 C 
ATOM      7  O   UNL     1      -1.155  -6.796   7.807  0.00  0.00    -0.282 OA
ENDROOT
BRANCH   6   8
ATOM      8  C   UNL     1       0.945  -6.643   3.731  0.00  0.00    -0.022 A 
ATOM      9  C   UNL     1       0.526  -7.958   3.665  0.00  0.00    +0.006 A 
ATOM     10  C   UNL     1       0.420  -8.588   2.439  0.00  0.00    +0.004 A 
ATOM     11  C   UNL     1       0.732  -7.903   1.280  0.00  0.00    -0.042 A 
ATOM     12  C   UNL     1       1.150  -6.587   1.347  0.00  0.00    +0.004 A 
ATOM     13  C   UNL     1       1.252  -5.956   2.572  0.00  0.00    +0.006 A 
BRANCH  11  14
ATOM     14  C   UNL     1       0.617  -8.591  -0.056  0.00  0.00    -0.013 C 
ATOM     15  C   UNL     1      -0.860  -8.749  -0.423  0.00  0.00    +0.015 C 
ATOM     16  C   UNL     1       1.320  -7.750  -1.124  0.00  0.00    +0.015 C 
ATOM     17  C   UNL     1       1.275  -9.970   0.022  0.00  0.00    +0.015 C 
ENDBRANCH  11  14
ENDBRANCH   6   8
BRANCH   1  18
ATOM     18  C   UNL     1      -1.498  -5.250   5.244  0.00  0.00    +0.195 C 
ATOM     19  O   UNL     1      -2.516  -5.895   5.073  0.00  0.00    -0.287 OA
BRANCH  18  25
ATOM     20  C   UNL     1      -3.522   1.604   3.303  0.00  0.00    +0.052 C 
ATOM     21  C   UNL     1      -2.721   0.316   3.101  0.00  0.00    +0.175 C 
ATOM     22  C   UNL     1      -3.584  -0.924   3.438  0.00  0.00    +0.083 C 
ATOM     23  C   UNL     1      -2.565  -1.850   4.073  0.00  0.00    -0.002 A 
ATOM     24  C   UNL     1      -2.590  -3.195   4.347  0.00  0.00    +0.019 A 
ATOM     25  C   UNL     1      -1.481  -3.805   4.945  0.00  0.00    +0.023 A 
ATOM     26  C   UNL     1      -0.358  -3.033   5.258  0.00  0.00    +0.015 A 
ATOM     27  C   UNL     1      -0.345  -1.687   4.982  0.00  0.00    +0.046 A 
ATOM     28  C   UNL     1      -1.452  -1.076   4.389  0.00  0.00    +0.124 A 
ATOM     29  O   UNL     1      -1.647   0.229   4.051  0.00  0.00    -0.488 OA
ENDBRANCH  18  25
ENDBRANCH   1  18
BRANCH   5  30
ATOM     30  C   UNL     1       3.354  -7.027   5.720  0.00  0.00    +0.137 C 
BRANCH  30  31
ATOM     31  C   UNL     1       3.480  -7.936   4.496  0.00  0.00    +0.179 C 
BRANCH  31  32
ATOM     32  O   UNL     1       3.663  -7.137   3.326  0.00  0.00    -0.376 OA
BRANCH  32  33
ATOM     33  C   UNL     1       3.952  -7.891   2.147  0.00  0.00    +0.187 C 
BRANCH  33  34
ATOM     34  C   UNL     1       4.294  -6.936   1.002  0.00  0.00    +0.184 C 
BRANCH  34  35
ATOM     35  O   UNL     1       5.490  -6.221   1.318  0.00  0.00    -0.393 OA
ATOM     36  H   UNL     1       5.810  -5.653   0.604  0.00  0.00    +0.209 HD
ENDBRANCH  34  35
ENDBRANCH  33  34
ENDBRANCH  32  33
ENDBRANCH  31  32
ENDBRANCH  30  31
ENDBRANCH   5  30
TORSDOF 10
