REMARK  Name = ZINC67596452
REMARK  8 active torsions:
REMARK  status: ('A' for Active; 'I' for Inactive)
REMARK    1  A    between atoms: C_1  and  C_2
REMARK    2  A    between atoms: C_4  and  C_26
REMARK    3  A    between atoms: C_6  and  N_8
REMARK    4  A    between atoms: C_9  and  C_11
REMARK    5  A    between atoms: C_20  and  C_22
REMARK    6  A    between atoms: C_22  and  C_23
REMARK    7  A    between atoms: C_22  and  C_24
REMARK    8  A    between atoms: C_22  and  C_25
REMARK                            x       y       z     vdW  Elec       q    Type
REMARK                         _______ _______ _______ _____ _____    ______ ____
ROOT
ATOM      1  C   UNL     1       0.219  -2.521   4.630  0.00  0.00    +0.302 C 
ATOM      2  O   UNL     1      -0.178  -1.994   3.612  0.00  0.00    -0.265 OA
ATOM      3  N   UNL     1       0.223  -1.831   5.788  0.00  0.00    -0.292 N 
ATOM      4  C   UNL     1       0.604  -2.441   7.014  0.00  0.00    +0.110 C 
ATOM      5  C   UNL     1      -0.540  -3.229   7.733  0.00  0.00    +0.038 C 
ATOM      6  C   UNL     1      -1.861  -2.417   7.531  0.00  0.00    +0.109 C 
ATOM      7  N   UNL     1      -1.704  -1.006   7.593  0.00  0.00    -0.299 N 
ATOM      8  C   UNL     1      -1.549  -0.286   6.303  0.00  0.00    +0.126 C 
ATOM      9  C   UNL     1      -0.165  -0.398   5.839  0.00  0.00    +0.127 C 
ATOM     10  C   UNL     1      -1.696  -0.350   8.770  0.00  0.00    +0.221 C 
ATOM     11  O   UNL     1      -1.723  -0.972   9.811  0.00  0.00    -0.275 OA
ENDROOT
BRANCH   1  13
ATOM     12  N   UNL     1       0.806  -4.586   3.426  0.00  0.00    -0.278 N 
ATOM     13  C   UNL     1       0.704  -3.933   4.601  0.00  0.00    +0.303 C 
ATOM     14  O   UNL     1       1.005  -4.493   5.634  0.00  0.00    -0.265 OA
ATOM     15  H   UNL     1       0.636  -4.117   2.594  0.00  0.00    +0.155 HD
BRANCH  12  21
ATOM     16  C   UNL     1       3.064  -8.338   1.194  0.00  0.00    +0.044 C 
ATOM     17  C   UNL     1       2.251  -7.784   2.336  0.00  0.00    -0.048 A 
ATOM     18  C   UNL     1       1.852  -8.616   3.366  0.00  0.00    +0.006 A 
ATOM     19  C   UNL     1       1.107  -8.112   4.417  0.00  0.00    -0.048 A 
ATOM     20  C   UNL     1       0.758  -6.776   4.439  0.00  0.00    +0.026 A 
ATOM     21  C   UNL     1       1.157  -5.938   3.406  0.00  0.00    +0.034 A 
ATOM     22  C   UNL     1       1.911  -6.446   2.355  0.00  0.00    +0.026 A 
ATOM     23  C   UNL     1       0.674  -9.022   5.537  0.00  0.00    +0.044 C 
ENDBRANCH  12  21
ENDBRANCH   1  13
BRANCH  10  24
ATOM     24  C   UNL     1      -1.655   1.157   8.793  0.00  0.00    +0.039 C 
ATOM     25  C   UNL     1      -1.594   1.643  10.242  0.00  0.00    +0.020 C 
ATOM     26  C   UNL     1      -0.417   1.644   8.039  0.00  0.00    +0.020 C 
ATOM     27  C   UNL     1      -2.913   1.711   8.121  0.00  0.00    +0.020 C 
ENDBRANCH  10  24
TORSDOF 3
