REMARK  Name = ZINC33306424
REMARK  7 active torsions:
REMARK  status: ('A' for Active; 'I' for Inactive)
REMARK    1  A    between atoms: C_1  and  C_2
REMARK    2  A    between atoms: C_3  and  N_27
REMARK    3  A    between atoms: C_4  and  C_7
REMARK    4  A    between atoms: C_8  and  C_9
REMARK    5  A    between atoms: C_12  and  S_14
REMARK    6  A    between atoms: S_14  and  N_17
REMARK    7  A    between atoms: C_28  and  C_30
REMARK                            x       y       z     vdW  Elec       q    Type
REMARK                         _______ _______ _______ _____ _____    ______ ____
ROOT
ATOM      1  C   UNL     1      -5.459   4.771   0.954  0.00  0.00    +0.014 A 
ATOM      2  C   UNL     1      -6.735   5.289   1.116  0.00  0.00    +0.017 A 
ATOM      3  C   UNL     1      -6.865   6.634   1.369  0.00  0.00    +0.037 A 
ATOM      4  C   UNL     1      -5.751   7.409   1.438  0.00  0.00    +0.146 A 
ATOM      5  S   UNL     1      -4.445   6.227   1.150  0.00  0.00    -0.069 S 
ENDROOT
BRANCH   4   6
ATOM      6  S   UNL     1      -5.627   9.141   1.737  0.00  0.00    +0.081 S 
ATOM      7  O   UNL     1      -4.391   9.562   1.177  0.00  0.00    -0.149 OA
ATOM      8  O   UNL     1      -6.871   9.710   1.352  0.00  0.00    -0.149 OA
BRANCH   6   9
ATOM      9  N   UNL     1      -5.499   9.348   3.375  0.00  0.00    -0.202 N 
ATOM     10  C   UNL     1      -6.680   9.686   4.180  0.00  0.00    +0.132 C 
ATOM     11  C   UNL     1      -6.286  10.798   5.155  0.00  0.00    +0.025 C 
ATOM     12  C   UNL     1      -5.208  10.270   6.101  0.00  0.00    +0.038 C 
ATOM     13  C   UNL     1      -4.084   9.642   5.320  0.00  0.00    -0.025 A 
ATOM     14  C   UNL     1      -4.262   9.208   4.015  0.00  0.00    +0.054 A 
ATOM     15  C   UNL     1      -3.204   8.628   3.324  0.00  0.00    +0.025 A 
ATOM     16  C   UNL     1      -1.975   8.484   3.936  0.00  0.00    +0.002 A 
ATOM     17  C   UNL     1      -1.798   8.918   5.237  0.00  0.00    +0.000 A 
ATOM     18  C   UNL     1      -2.847   9.495   5.925  0.00  0.00    +0.005 A 
ENDBRANCH   6   9
ENDBRANCH   4   6
BRANCH   1  20
ATOM     19  C   UNL     1      -3.740   3.088   0.552  0.00  0.00    +0.052 C 
ATOM     20  C   UNL     1      -5.051   3.392   0.684  0.00  0.00    +0.019 C 
BRANCH  19  24
ATOM     21  C   UNL     1      -0.917  -1.033  -0.360  0.00  0.00    +0.071 C 
ATOM     22  C   UNL     1      -2.098  -0.126  -0.121  0.00  0.00    +0.102 A 
ATOM     23  C   UNL     1      -2.036   1.256   0.125  0.00  0.00    +0.103 A 
ATOM     24  C   UNL     1      -3.332   1.711   0.283  0.00  0.00    +0.182 A 
ATOM     25  O   UNL     1      -4.151   0.647   0.144  0.00  0.00    -0.353 OA
ATOM     26  N   UNL     1      -3.349  -0.492  -0.105  0.00  0.00    -0.081 NA
BRANCH  23  27
ATOM     27  N   UNL     1      -0.870   2.034   0.192  0.00  0.00    -0.281 N 
ATOM     28  C   UNL     1       0.282   1.485   0.624  0.00  0.00    +0.214 C 
ATOM     29  O   UNL     1       0.293   0.346   1.041  0.00  0.00    -0.276 OA
ATOM     30  C   UNL     1       1.559   2.285   0.584  0.00  0.00    +0.109 C 
ATOM     31  H   UNL     1      -0.897   3.092  -0.108  0.00  0.00    +0.155 HD
ENDBRANCH  23  27
ENDBRANCH  19  24
ENDBRANCH   1  20
TORSDOF 5
