REMARK  Name = ZINC37130018
REMARK  4 active torsions:
REMARK  status: ('A' for Active; 'I' for Inactive)
REMARK    1  A    between atoms: C_1  and  C_2
REMARK    2  A    between atoms: C_2  and  C_4
REMARK    3  A    between atoms: C_2  and  N_11
REMARK    4  A    between atoms: N_11  and  C_12
REMARK                            x       y       z     vdW  Elec       q    Type
REMARK                         _______ _______ _______ _____ _____    ______ ____
ROOT
ATOM      1  N   UNL     1       0.688  -0.476  -1.203  0.00  0.00    -0.337 N 
ATOM      2  H   UNL     1       0.175  -0.710  -1.993  0.00  0.00    +0.147 HD
ENDROOT
BRANCH   1   3
ATOM      3  C   UNL     1       2.082  -0.591  -1.215  0.00  0.00    +0.030 A 
ATOM      4  C   UNL     1       2.816  -0.262  -0.082  0.00  0.00    +0.026 A 
ATOM      5  C   UNL     1       4.192  -0.373  -0.088  0.00  0.00    +0.050 A 
ATOM      6  C   UNL     1       4.847  -0.814  -1.227  0.00  0.00    +0.157 A 
ATOM      7  C   UNL     1       4.112  -1.145  -2.366  0.00  0.00    +0.089 A 
ATOM      8  C   UNL     1       2.731  -1.039  -2.357  0.00  0.00    +0.052 A 
ATOM      9  N   UNL     1       5.034  -1.547  -3.332  0.00  0.00    -0.288 N 
ATOM     10  H   UNL     1       4.829  -1.839  -4.234  0.00  0.00    +0.172 HD
ATOM     11  C   UNL     1       6.262  -1.456  -2.784  0.00  0.00    +0.419 A 
ATOM     12  O   UNL     1       7.304  -1.730  -3.346  0.00  0.00    -0.223 OA
ATOM     13  O   UNL     1       6.156  -1.016  -1.520  0.00  0.00    -0.408 OA
ENDBRANCH   1   3
BRANCH   1  15
ATOM     14  C   UNL     1      -0.019   1.526   0.010  0.00  0.00    +0.033 C 
ATOM     15  C   UNL     1       0.002  -0.004   0.002  0.00  0.00    +0.098 C 
BRANCH  15  16
ATOM     16  C   UNL     1      -1.412  -0.526   0.013  0.00  0.00    -0.027 A 
ATOM     17  C   UNL     1      -2.141  -0.569  -1.161  0.00  0.00    +0.007 A 
ATOM     18  C   UNL     1      -3.438  -1.047  -1.152  0.00  0.00    +0.020 A 
ATOM     19  C   UNL     1      -4.006  -1.483   0.032  0.00  0.00    +0.041 A 
ATOM     20  C   UNL     1      -3.275  -1.440   1.206  0.00  0.00    +0.020 A 
ATOM     21  C   UNL     1      -1.977  -0.966   1.195  0.00  0.00    +0.007 A 
ATOM     22 CL   UNL     1      -5.635  -2.083   0.045  0.00  0.00    -0.084 Cl
ENDBRANCH  15  16
ENDBRANCH   1  15
TORSDOF 3
