REMARK  Name = ZINC39736849
REMARK  13 active torsions:
REMARK  status: ('A' for Active; 'I' for Inactive)
REMARK    1  A    between atoms: C_1  and  C_2
REMARK    2  A    between atoms: C_3  and  C_34
REMARK    3  A    between atoms: C_4  and  C_33
REMARK    4  A    between atoms: C_7  and  C_8
REMARK    5  A    between atoms: C_8  and  C_10
REMARK    6  A    between atoms: C_10  and  C_12
REMARK    7  A    between atoms: C_10  and  S_13
REMARK    8  A    between atoms: S_13  and  C_14
REMARK    9  A    between atoms: C_18  and  C_27
REMARK   10  A    between atoms: N_19  and  C_20
REMARK   11  A    between atoms: C_20  and  C_21
REMARK   12  A    between atoms: C_27  and  N_28
REMARK   13  A    between atoms: C_34  and  C_36
REMARK                            x       y       z     vdW  Elec       q    Type
REMARK                         _______ _______ _______ _____ _____    ______ ____
ROOT
ATOM      1  C   UNL     1      -0.225  -2.159   6.262  0.00  0.00    +0.237 C 
ATOM      2  N   UNL     1      -1.562  -2.779   6.218  0.00  0.00    -0.238 N 
ATOM      3  N   UNL     1      -1.363  -4.099   5.797  0.00  0.00    -0.176 NA
ATOM      4  C   UNL     1      -0.122  -4.348   5.589  0.00  0.00    +0.101 C 
ATOM      5  N   UNL     1       0.680  -3.241   5.840  0.00  0.00    -0.286 N 
ATOM      6  H   UNL     1      -2.408  -2.357   6.436  0.00  0.00    +0.171 HD
ENDROOT
BRANCH   1   7
ATOM      7  S   UNL     1      -0.132  -0.763   5.109  0.00  0.00    -0.107 S 
BRANCH   7   8
ATOM      8  C   UNL     1      -0.574  -1.488   3.506  0.00  0.00    +0.119 C 
ATOM      9  C   UNL     1      -2.027  -1.965   3.545  0.00  0.00    +0.027 C 
BRANCH   8  10
ATOM     10  C   UNL     1      -0.416  -0.450   2.424  0.00  0.00    +0.192 C 
ATOM     11  O   UNL     1      -0.492   0.730   2.700  0.00  0.00    -0.289 OA
BRANCH  10  18
ATOM     12  C   UNL     1      -0.057   1.495   0.028  0.00  0.00    +0.047 C 
ATOM     13  C   UNL     1      -0.015  -0.011   0.008  0.00  0.00    -0.012 A 
ATOM     14  C   UNL     1       0.204  -0.834  -1.120  0.00  0.00    +0.041 A 
ATOM     15  C   UNL     1       0.160  -2.149  -0.681  0.00  0.00    +0.024 A 
ATOM     16  N   UNL     1      -0.072  -2.152   0.638  0.00  0.00    -0.355 N 
ATOM     17  H   UNL     1      -0.150  -2.945   1.192  0.00  0.00    +0.166 HD
ATOM     18  C   UNL     1      -0.178  -0.851   1.087  0.00  0.00    +0.087 A 
ATOM     19  C   UNL     1       0.343  -3.370  -1.544  0.00  0.00    +0.064 C 
BRANCH  14  20
ATOM     20  C   UNL     1       0.435  -0.382  -2.496  0.00  0.00    +0.162 C 
ATOM     21  O   UNL     1      -0.507  -0.185  -3.236  0.00  0.00    -0.292 OA
ATOM     22  C   UNL     1       1.841  -0.162  -2.992  0.00  0.00    +0.091 C 
ENDBRANCH  14  20
ENDBRANCH  10  18
ENDBRANCH   8  10
ENDBRANCH   7   8
ENDBRANCH   1   7
BRANCH   5  23
ATOM     23  C   UNL     1       2.137  -3.164   5.709  0.00  0.00    +0.144 C 
BRANCH  23  24
ATOM     24  C   UNL     1       2.780  -3.546   7.017  0.00  0.00    -0.030 A 
ATOM     25  C   UNL     1       3.040  -2.577   7.968  0.00  0.00    +0.005 A 
ATOM     26  C   UNL     1       3.630  -2.927   9.169  0.00  0.00    +0.000 A 
ATOM     27  C   UNL     1       3.959  -4.246   9.418  0.00  0.00    +0.000 A 
ATOM     28  C   UNL     1       3.699  -5.215   8.467  0.00  0.00    +0.000 A 
ATOM     29  C   UNL     1       3.105  -4.865   7.269  0.00  0.00    +0.005 A 
ENDBRANCH  23  24
ENDBRANCH   5  23
BRANCH   4  30
ATOM     30  C   UNL     1       0.404  -5.683   5.130  0.00  0.00    -0.004 C 
BRANCH  30  31
ATOM     31  N   UNL     1      -0.715  -6.620   4.966  0.00  0.00    +0.384 N 
ATOM     32  C   UNL     1      -1.329  -6.897   6.282  0.00  0.00    -0.078 C 
ATOM     33  C   UNL     1      -1.740  -8.389   6.220  0.00  0.00    -0.020 C 
ATOM     34  C   UNL     1      -0.569  -9.004   5.411  0.00  0.00    -0.020 C 
ATOM     35  C   UNL     1      -0.220  -7.890   4.402  0.00  0.00    -0.078 C 
ATOM     36  H   UNL     1      -1.406  -6.221   4.348  0.00  0.00    -0.081 HD
ENDBRANCH  30  31
ENDBRANCH   4  30
TORSDOF 9
