REMARK  Name = ZINC06322166
REMARK  9 active torsions:
REMARK  status: ('A' for Active; 'I' for Inactive)
REMARK    1  A    between atoms: C_1  and  C_2
REMARK    2  A    between atoms: C_5  and  C_40
REMARK    3  A    between atoms: C_9  and  C_14
REMARK    4  A    between atoms: C_14  and  C_16
REMARK    5  A    between atoms: C_14  and  N_74
REMARK    6  A    between atoms: N_20  and  C_21
REMARK    7  A    between atoms: C_21  and  C_22
REMARK    8  A    between atoms: C_30  and  C_33
REMARK    9  A    between atoms: C_33  and  C_34
REMARK                            x       y       z     vdW  Elec       q    Type
REMARK                         _______ _______ _______ _____ _____    ______ ____
ROOT
ATOM      1  C   UNL     1       1.305   7.703  -0.322  0.00  0.00    +0.039 C 
ENDROOT
BRANCH   1  10
ATOM      2  C   UNL     1       2.895   3.745   2.665  0.00  0.00    +0.044 C 
ATOM      3  C   UNL     1       2.940   3.272   1.234  0.00  0.00    -0.041 A 
ATOM      4  C   UNL     1       3.344   2.000   0.944  0.00  0.00    +0.004 A 
ATOM      5  C   UNL     1       3.394   1.557  -0.370  0.00  0.00    +0.005 A 
ATOM      6  C   UNL     1       3.027   2.388  -1.407  0.00  0.00    -0.026 A 
ATOM      7  C   UNL     1       2.607   3.686  -1.136  0.00  0.00    +0.052 A 
ATOM      8  C   UNL     1       2.563   4.133   0.199  0.00  0.00    +0.002 A 
ATOM      9  C   UNL     1       2.120   5.501   0.474  0.00  0.00    +0.018 A 
ATOM     10  C   UNL     1       1.766   6.290  -0.571  0.00  0.00    +0.011 A 
ATOM     11  C   UNL     1       1.828   5.793  -1.890  0.00  0.00    +0.251 A 
ATOM     12  O   UNL     1       1.506   6.519  -2.814  0.00  0.00    -0.268 OA
ATOM     13  N   UNL     1       2.233   4.538  -2.153  0.00  0.00    -0.322 N 
ATOM     14  H   UNL     1       2.264   4.228  -3.072  0.00  0.00    +0.169 HD
ATOM     15  C   UNL     1       3.079   1.892  -2.829  0.00  0.00    +0.046 C 
ENDBRANCH   1  10
BRANCH   1  21
ATOM     16  C   UNL     1       3.562   8.503  -0.675  0.00  0.00    -0.077 C 
ATOM     17  C   UNL     1       4.434   9.380  -1.577  0.00  0.00    -0.015 C 
ATOM     18  C   UNL     1       3.984  10.838  -1.452  0.00  0.00    -0.010 C 
ATOM     19  C   UNL     1       2.503  10.940  -1.826  0.00  0.00    -0.015 C 
ATOM     20  C   UNL     1       1.687  10.018  -0.917  0.00  0.00    -0.077 C 
ATOM     21  N   UNL     1       2.153   8.627  -1.103  0.00  0.00    +0.389 N 
ATOM     22  H   UNL     1       2.084   8.383  -2.098  0.00  0.00    -0.080 HD
BRANCH  18  23
ATOM     23  C   UNL     1       4.812  11.712  -2.396  0.00  0.00    +0.038 C 
BRANCH  23  24
ATOM     24  C   UNL     1       6.252  11.708  -1.952  0.00  0.00    -0.047 A 
ATOM     25  C   UNL     1       6.702  12.660  -1.057  0.00  0.00    +0.003 A 
ATOM     26  C   UNL     1       8.022  12.654  -0.646  0.00  0.00    +0.000 A 
ATOM     27  C   UNL     1       8.894  11.700  -1.137  0.00  0.00    +0.000 A 
ATOM     28  C   UNL     1       8.445  10.751  -2.036  0.00  0.00    +0.000 A 
ATOM     29  C   UNL     1       7.124  10.755  -2.443  0.00  0.00    +0.003 A 
ENDBRANCH  23  24
ENDBRANCH  18  23
ENDBRANCH   1  21
BRANCH   1  30
ATOM     30  C   UNL     1       1.402   8.011   1.150  0.00  0.00    +0.143 A 
ATOM     31  N   UNL     1       2.501   8.150   1.850  0.00  0.00    -0.115 NA
ATOM     32  N   UNL     1       2.168   8.410   3.067  0.00  0.00    -0.023 NA
ATOM     33  N   UNL     1       0.885   8.433   3.164  0.00  0.00    -0.044 NA
ATOM     34  N   UNL     1       0.376   8.191   2.003  0.00  0.00    -0.228 N 
BRANCH  34  35
ATOM     35  C   UNL     1      -1.050   8.125   1.674  0.00  0.00    +0.178 C 
BRANCH  35  36
ATOM     36  C   UNL     1      -1.582   6.725   1.987  0.00  0.00    +0.140 C 
ATOM     37  C   UNL     1      -3.088   6.631   1.636  0.00  0.00    +0.035 C 
ATOM     38  C   UNL     1      -3.240   5.103   1.399  0.00  0.00    +0.031 C 
ATOM     39  C   UNL     1      -1.875   4.730   0.781  0.00  0.00    +0.160 C 
ATOM     40  O   UNL     1      -0.940   5.750   1.151  0.00  0.00    -0.375 OA
ENDBRANCH  35  36
ENDBRANCH  34  35
ENDBRANCH   1  30
TORSDOF 7
