REMARK  Name = ZINC04623134
REMARK  3 active torsions:
REMARK  status: ('A' for Active; 'I' for Inactive)
REMARK    1  A    between atoms: C_1  and  C_2
REMARK    2  A    between atoms: C_11  and  C_15
REMARK    3  A    between atoms: C_11  and  C_22
REMARK                            x       y       z     vdW  Elec       q    Type
REMARK                         _______ _______ _______ _____ _____    ______ ____
ROOT
ATOM      1  C   UNL     1      -6.359  -0.152   0.026  0.00  0.00    +0.045 C 
ATOM      2  C   UNL     1      -4.946   0.372   0.023  0.00  0.00    -0.032 A 
ATOM      3  C   UNL     1      -3.872  -0.506   0.019  0.00  0.00    +0.008 A 
ATOM      4  C   UNL     1      -2.591   0.018   0.012  0.00  0.00    +0.045 A 
ATOM      5  C   UNL     1      -2.425   1.397   0.019  0.00  0.00    +0.135 A 
ATOM      6  N   UNL     1      -3.475   2.203   0.023  0.00  0.00    -0.239 NA
ATOM      7  C   UNL     1      -4.707   1.732   0.025  0.00  0.00    +0.116 A 
ATOM      8  N   UNL     1      -1.137   1.940   0.018  0.00  0.00    -0.175 N 
ATOM      9  C   UNL     1      -0.863   3.240  -0.210  0.00  0.00    +0.266 C 
ATOM     10  O   UNL     1      -1.657   4.125  -0.441  0.00  0.00    -0.272 OA
ATOM     11  C   UNL     1       0.646   3.362  -0.121  0.00  0.00    +0.234 C 
ATOM     12  N   UNL     1       1.087   1.989   0.180  0.00  0.00    -0.274 N 
ATOM     13  C   UNL     1      -0.023   1.233   0.244  0.00  0.00    +0.315 C 
ATOM     14  O   UNL     1      -0.016   0.040   0.478  0.00  0.00    -0.252 OA
ATOM     15  H   UNL     1       2.001   1.689   0.306  0.00  0.00    +0.152 HD
ENDROOT
BRANCH  11  16
ATOM     16  C   UNL     1       1.037   4.301   0.991  0.00  0.00    -0.006 A 
ATOM     17  C   UNL     1       0.248   5.399   1.277  0.00  0.00    +0.009 A 
ATOM     18  C   UNL     1       0.603   6.258   2.300  0.00  0.00    +0.039 A 
ATOM     19  C   UNL     1       1.755   6.024   3.032  0.00  0.00    +0.123 A 
ATOM     20  C   UNL     1       2.547   4.926   2.741  0.00  0.00    +0.039 A 
ATOM     21  C   UNL     1       2.187   4.065   1.721  0.00  0.00    +0.009 A 
ATOM     22  F   UNL     1       2.106   6.865   4.029  0.00  0.00    -0.205 F 
ENDBRANCH  11  16
BRANCH  11  23
ATOM     23  C   UNL     1       1.227   3.834  -1.455  0.00  0.00    +0.424 C 
ATOM     24  F   UNL     1       0.808   2.975  -2.477  0.00  0.00    -0.167 F 
ATOM     25  F   UNL     1       0.780   5.132  -1.725  0.00  0.00    -0.167 F 
ATOM     26  F   UNL     1       2.624   3.827  -1.384  0.00  0.00    -0.167 F 
ENDBRANCH  11  23
TORSDOF 2
