REMARK  Name = ZINC67017335
REMARK  12 active torsions:
REMARK  status: ('A' for Active; 'I' for Inactive)
REMARK    1  A    between atoms: C_1  and  C_2
REMARK    2  A    between atoms: C_4  and  N_11
REMARK    3  A    between atoms: N_5  and  C_7
REMARK    4  A    between atoms: C_7  and  C_8
REMARK    5  A    between atoms: C_7  and  C_9
REMARK    6  A    between atoms: C_7  and  C_10
REMARK    7  A    between atoms: N_14  and  C_15
REMARK    8  A    between atoms: C_15  and  C_17
REMARK    9  A    between atoms: C_15  and  C_18
REMARK   10  A    between atoms: C_22  and  S_24
REMARK   11  A    between atoms: S_24  and  N_27
REMARK   12  A    between atoms: N_27  and  C_28
REMARK                            x       y       z     vdW  Elec       q    Type
REMARK                         _______ _______ _______ _____ _____    ______ ____
ROOT
ATOM      1  N   UNL     1       0.039  -3.240  -1.543  0.00  0.00    -0.254 N 
ATOM      2  C   UNL     1       0.031  -3.097  -2.884  0.00  0.00    +0.305 C 
ATOM      3  O   UNL     1       0.014  -1.986  -3.376  0.00  0.00    -0.252 OA
ATOM      4  N   UNL     1       0.041  -4.186  -3.677  0.00  0.00    -0.293 N 
ATOM      5  H   UNL     1       0.052  -4.127  -1.150  0.00  0.00    +0.158 HD
ATOM      6  H   UNL     1       0.055  -5.073  -3.284  0.00  0.00    +0.151 HD
ENDROOT
BRANCH   1  10
ATOM      7  C   UNL     1      -0.018   1.503   0.010  0.00  0.00    +0.067 C 
ATOM      8  C   UNL     1       0.002  -0.004   0.002  0.00  0.00    +0.062 A 
ATOM      9  C   UNL     1       0.008  -0.816  -1.135  0.00  0.00    +0.068 A 
ATOM     10  C   UNL     1       0.027  -2.113  -0.722  0.00  0.00    +0.125 A 
ATOM     11  N   UNL     1       0.034  -2.110   0.631  0.00  0.00    -0.245 N 
ATOM     12  N   UNL     1       0.023  -0.776   1.058  0.00  0.00    -0.174 NA
BRANCH  11  13
ATOM     13  C   UNL     1       0.053  -3.292   1.495  0.00  0.00    +0.057 C 
ATOM     14  C   UNL     1       1.312  -4.113   1.208  0.00  0.00    +0.036 C 
ATOM     15  C   UNL     1       0.054  -2.852   2.961  0.00  0.00    +0.036 C 
ATOM     16  C   UNL     1      -1.186  -4.146   1.220  0.00  0.00    +0.036 C 
ENDBRANCH  11  13
ENDBRANCH   1  10
BRANCH   4  17
ATOM     17  C   UNL     1       0.033  -4.031  -5.134  0.00  0.00    +0.102 C 
ATOM     18  C   UNL     1      -1.409  -3.871  -5.621  0.00  0.00    +0.033 C 
BRANCH  17  19
ATOM     19  C   UNL     1       0.646  -5.250  -5.773  0.00  0.00    -0.026 A 
ATOM     20  C   UNL     1       0.368  -6.508  -5.271  0.00  0.00    +0.005 A 
ATOM     21  C   UNL     1       0.931  -7.626  -5.857  0.00  0.00    +0.002 A 
ATOM     22  C   UNL     1       1.772  -7.487  -6.945  0.00  0.00    +0.028 A 
ATOM     23  C   UNL     1       2.050  -6.230  -7.447  0.00  0.00    +0.106 A 
ATOM     24  C   UNL     1       1.483  -5.111  -6.864  0.00  0.00    +0.034 A 
BRANCH  23  25
ATOM     25  S   UNL     1       3.122  -6.052  -8.834  0.00  0.00    +0.058 S 
ATOM     26  O   UNL     1       3.653  -4.735  -8.771  0.00  0.00    -0.153 OA
ATOM     27  O   UNL     1       3.950  -7.207  -8.858  0.00  0.00    -0.153 OA
BRANCH  25  28
ATOM     28  N   UNL     1       2.179  -6.118 -10.194  0.00  0.00    -0.193 NA
ATOM     29  C   UNL     1       1.189  -5.070 -10.450  0.00  0.00    +0.127 C 
ATOM     30  H   UNL     1       2.283  -6.851 -10.821  0.00  0.00    +0.148 HD
ENDBRANCH  25  28
ENDBRANCH  23  25
ENDBRANCH  17  19
ENDBRANCH   4  17
TORSDOF 6
