REMARK  Name = ZINC20885810
REMARK  9 active torsions:
REMARK  status: ('A' for Active; 'I' for Inactive)
REMARK    1  A    between atoms: C_1  and  C_2
REMARK    2  A    between atoms: C_2  and  C_3
REMARK    3  A    between atoms: C_2  and  O_4
REMARK    4  A    between atoms: O_4  and  C_5
REMARK    5  A    between atoms: C_8  and  C_13
REMARK    6  A    between atoms: C_10  and  O_11
REMARK    7  A    between atoms: O_11  and  C_12
REMARK    8  A    between atoms: C_18  and  C_28
REMARK    9  A    between atoms: C_31  and  C_34
REMARK                            x       y       z     vdW  Elec       q    Type
REMARK                         _______ _______ _______ _____ _____    ______ ____
ROOT
ATOM      1  C   UNL     1      -5.121  -0.348   5.776  0.00  0.00    +0.032 C 
ATOM      2  C   UNL     1      -6.335   0.573   5.667  0.00  0.00    +0.059 C 
ATOM      3  C   UNL     1      -5.957   1.849   4.932  0.00  0.00    +0.017 C 
ATOM      4  C   UNL     1      -4.713   2.347   5.028  0.00  0.00    +0.036 C 
ATOM      5  C   UNL     1      -4.207   3.601   4.354  0.00  0.00    +0.136 C 
ATOM      6  N   UNL     1      -5.244   4.420   3.764  0.00  0.00    -0.331 N 
ATOM      7  C   UNL     1      -6.010   3.953   2.701  0.00  0.00    +0.049 A 
ATOM      8  C   UNL     1      -5.912   4.515   1.437  0.00  0.00    +0.025 A 
ATOM      9  C   UNL     1      -6.632   3.966   0.390  0.00  0.00    +0.002 A 
ATOM     10  C   UNL     1      -7.444   2.866   0.599  0.00  0.00    +0.002 A 
ATOM     11  C   UNL     1      -7.563   2.317   1.864  0.00  0.00    +0.025 A 
ATOM     12  C   UNL     1      -6.859   2.877   2.914  0.00  0.00    +0.052 A 
ATOM     13  N   UNL     1      -6.968   2.409   4.220  0.00  0.00    -0.316 N 
ATOM     14  C   UNL     1      -3.739   1.687   5.813  0.00  0.00    +0.163 C 
ATOM     15  O   UNL     1      -2.628   2.173   5.899  0.00  0.00    -0.292 OA
ATOM     16  C   UNL     1      -4.029   0.409   6.541  0.00  0.00    +0.088 C 
ATOM     17  H   UNL     1      -5.437   5.429   4.155  0.00  0.00    +0.147 HD
ATOM     18  H   UNL     1      -7.965   2.520   4.673  0.00  0.00    +0.152 HD
ENDROOT
BRANCH   1  22
ATOM     19  C   UNL     1      -6.186  -3.899   7.907  0.00  0.00    +0.162 A 
ATOM     20  C   UNL     1      -6.306  -2.660   8.516  0.00  0.00    +0.050 A 
ATOM     21  C   UNL     1      -5.956  -1.514   7.826  0.00  0.00    +0.008 A 
ATOM     22  C   UNL     1      -5.496  -1.601   6.525  0.00  0.00    -0.040 A 
ATOM     23  C   UNL     1      -5.373  -2.834   5.912  0.00  0.00    +0.053 A 
ATOM     24  C   UNL     1      -5.717  -3.986   6.600  0.00  0.00    +0.162 A 
BRANCH  24  25
ATOM     25  O   UNL     1      -5.596  -5.200   5.999  0.00  0.00    -0.491 OA
ATOM     26  C   UNL     1      -5.108  -5.213   4.656  0.00  0.00    +0.277 C 
ENDBRANCH  24  25
BRANCH  19  27
ATOM     27  O   UNL     1      -6.524  -5.028   8.587  0.00  0.00    -0.486 OA
BRANCH  27  29
ATOM     28  C   UNL     1      -8.368  -4.537  10.070  0.00  0.00    +0.051 C 
ATOM     29  C   UNL     1      -6.880  -4.875   9.962  0.00  0.00    +0.167 C 
ATOM     30  C   UNL     1      -6.598  -6.180  10.710  0.00  0.00    +0.051 C 
ENDBRANCH  27  29
ENDBRANCH  19  27
ENDBRANCH   1  22
BRANCH   5  31
ATOM     31  C   UNL     1      -3.238   3.203   3.271  0.00  0.00    -0.023 A 
ATOM     32  C   UNL     1      -1.907   3.563   3.367  0.00  0.00    +0.006 A 
ATOM     33  C   UNL     1      -1.018   3.198   2.374  0.00  0.00    +0.013 A 
ATOM     34  C   UNL     1      -1.460   2.472   1.284  0.00  0.00    +0.055 A 
ATOM     35  C   UNL     1      -2.792   2.116   1.184  0.00  0.00    +0.013 A 
ATOM     36  C   UNL     1      -3.680   2.477   2.180  0.00  0.00    +0.006 A 
BRANCH  34  37
ATOM     37  C   UNL     1      -0.491   2.074   0.200  0.00  0.00    +0.417 C 
ATOM     38  F   UNL     1       0.067   0.828   0.508  0.00  0.00    -0.166 F 
ATOM     39  F   UNL     1       0.526   3.030   0.110  0.00  0.00    -0.166 F 
ATOM     40  F   UNL     1      -1.166   1.993  -1.022  0.00  0.00    -0.166 F 
ENDBRANCH  34  37
ENDBRANCH   5  31
TORSDOF 6
