REMARK  Name = ZINC63375211
REMARK  7 active torsions:
REMARK  status: ('A' for Active; 'I' for Inactive)
REMARK    1  A    between atoms: C_1  and  C_2
REMARK    2  A    between atoms: C_2  and  C_3
REMARK    3  A    between atoms: C_3  and  N_4
REMARK    4  A    between atoms: C_5  and  C_7
REMARK    5  A    between atoms: C_10  and  N_13
REMARK    6  A    between atoms: C_29  and  C_34
REMARK    7  A    between atoms: C_37  and  C_40
REMARK                            x       y       z     vdW  Elec       q    Type
REMARK                         _______ _______ _______ _____ _____    ______ ____
ROOT
ATOM      1  N   UNL     1       1.399  -8.310  -2.404  0.00  0.00    -0.193 N 
ATOM      2  C   UNL     1       1.856  -9.082  -3.411  0.00  0.00    +0.248 C 
ATOM      3  O   UNL     1       2.290  -8.711  -4.480  0.00  0.00    -0.273 OA
ATOM      4  C   UNL     1       1.714 -10.509  -2.929  0.00  0.00    +0.169 C 
ATOM      5  C   UNL     1       0.809 -11.301  -3.889  0.00  0.00    +0.065 C 
ATOM      6  C   UNL     1       0.242 -12.450  -3.088  0.00  0.00    -0.034 C 
ATOM      7  C   UNL     1       0.256 -13.758  -3.321  0.00  0.00    -0.001 A 
ATOM      8  C   UNL     1       0.734 -14.541  -4.472  0.00  0.00    +0.010 A 
ATOM      9  C   UNL     1       0.612 -15.892  -4.370  0.00  0.00    +0.001 A 
ATOM     10  C   UNL     1       0.068 -16.533  -3.252  0.00  0.00    +0.002 A 
ATOM     11  C   UNL     1      -0.404 -15.890  -2.154  0.00  0.00    +0.026 A 
ATOM     12  C   UNL     1      -0.336 -14.467  -2.146  0.00  0.00    +0.043 A 
ATOM     13  N   UNL     1      -0.726 -13.611  -1.249  0.00  0.00    -0.375 N 
ATOM     14  C   UNL     1      -0.482 -12.261  -1.761  0.00  0.00    +0.131 C 
ATOM     15  C   UNL     1       0.463 -11.472  -0.844  0.00  0.00    +0.135 C 
ATOM     16  N   UNL     1       1.023 -10.361  -1.632  0.00  0.00    -0.264 N 
ATOM     17  C   UNL     1       0.957  -9.048  -1.376  0.00  0.00    +0.317 C 
ATOM     18  O   UNL     1       0.541  -8.579  -0.334  0.00  0.00    -0.252 OA
ATOM     19  H   UNL     1      -1.112 -13.830  -0.386  0.00  0.00    +0.160 HD
ENDROOT
BRANCH  15  20
ATOM     20  C   UNL     1       1.583 -12.361  -0.371  0.00  0.00    -0.025 A 
ATOM     21  C   UNL     1       2.520 -12.832  -1.273  0.00  0.00    +0.006 A 
ATOM     22  C   UNL     1       3.548 -13.648  -0.839  0.00  0.00    +0.004 A 
ATOM     23  C   UNL     1       3.639 -13.993   0.497  0.00  0.00    -0.050 A 
ATOM     24  C   UNL     1       2.704 -13.522   1.398  0.00  0.00    +0.004 A 
ATOM     25  C   UNL     1       1.678 -12.702   0.965  0.00  0.00    +0.006 A 
ATOM     26  C   UNL     1       4.760 -14.884   0.969  0.00  0.00    +0.044 C 
ENDBRANCH  15  20
BRANCH   1  30
ATOM     27  C   UNL     1       1.383  -4.142  -2.472  0.00  0.00    +0.037 A 
ATOM     28  C   UNL     1       0.785  -4.827  -1.411  0.00  0.00    +0.015 A 
ATOM     29  C   UNL     1       0.792  -6.204  -1.392  0.00  0.00    +0.025 A 
ATOM     30  C   UNL     1       1.394  -6.912  -2.427  0.00  0.00    +0.045 A 
ATOM     31  C   UNL     1       1.990  -6.233  -3.484  0.00  0.00    +0.025 A 
ATOM     32  C   UNL     1       1.982  -4.857  -3.513  0.00  0.00    +0.015 A 
BRANCH  27  34
ATOM     33  N   UNL     1       0.799  -1.977  -1.492  0.00  0.00    -0.311 N 
ATOM     34  C   UNL     1       1.377  -2.666  -2.497  0.00  0.00    +0.244 C 
ATOM     35  O   UNL     1       1.893  -2.071  -3.423  0.00  0.00    -0.270 OA
ATOM     36  H   UNL     1       0.387  -2.452  -0.753  0.00  0.00    +0.149 HD
BRANCH  33  37
ATOM     37  C   UNL     1       0.792  -0.512  -1.517  0.00  0.00    +0.104 C 
BRANCH  37  39
ATOM     38  C   UNL     1       0.073   1.545  -0.295  0.00  0.00    +0.005 C 
ATOM     39  C   UNL     1       0.080   0.015  -0.270  0.00  0.00    +0.015 C 
ENDBRANCH  37  39
ENDBRANCH  33  37
ENDBRANCH  27  34
ENDBRANCH   1  30
TORSDOF 5
