REMARK  Name = ZINC07061116
REMARK  6 active torsions:
REMARK  status: ('A' for Active; 'I' for Inactive)
REMARK    1  A    between atoms: C_1  and  C_2
REMARK    2  A    between atoms: C_9  and  S_12
REMARK    3  A    between atoms: S_12  and  C_13
REMARK    4  A    between atoms: C_13  and  C_15
REMARK    5  A    between atoms: C_13  and  C_16
REMARK    6  A    between atoms: N_18  and  C_19
REMARK                            x       y       z     vdW  Elec       q    Type
REMARK                         _______ _______ _______ _____ _____    ______ ____
ROOT
ATOM      1  C   UNL     1       0.080   5.799   0.007  0.00  0.00    +0.230 C 
ATOM      2  O   UNL     1       1.017   6.381  -0.498  0.00  0.00    -0.274 OA
ATOM      3  N   UNL     1      -0.856   6.491   0.686  0.00  0.00    -0.285 N 
ATOM      4  H   UNL     1      -1.644   6.038   1.024  0.00  0.00    +0.155 HD
ENDROOT
BRANCH   3   5
ATOM      5  C   UNL     1      -0.690   7.865   0.905  0.00  0.00    +0.035 A 
ATOM      6  C   UNL     1      -1.801   8.700   0.943  0.00  0.00    +0.025 A 
ATOM      7  C   UNL     1      -1.645  10.054   1.158  0.00  0.00    +0.029 A 
ATOM      8  C   UNL     1      -0.376  10.585   1.337  0.00  0.00    +0.067 A 
ATOM      9  C   UNL     1       0.742   9.748   1.299  0.00  0.00    +0.069 A 
ATOM     10  C   UNL     1       0.581   8.388   1.088  0.00  0.00    +0.051 A 
ATOM     11  N   UNL     1       1.857  10.557   1.507  0.00  0.00    -0.306 N 
ATOM     12  H   UNL     1       2.779  10.256   1.535  0.00  0.00    +0.170 HD
ATOM     13  C   UNL     1       1.438  11.826   1.664  0.00  0.00    +0.325 A 
ATOM     14  O   UNL     1       2.163  12.784   1.864  0.00  0.00    -0.247 OA
ATOM     15  N   UNL     1       0.096  11.877   1.567  0.00  0.00    -0.306 N 
ATOM     16  H   UNL     1      -0.449  12.675   1.643  0.00  0.00    +0.170 HD
ENDBRANCH   3   5
BRANCH   1  17
ATOM     17  C   UNL     1      -0.038   4.302  -0.126  0.00  0.00    +0.137 C 
ATOM     18  C   UNL     1      -0.940   3.965  -1.315  0.00  0.00    +0.029 C 
BRANCH  17  19
ATOM     19  S   UNL     1       1.604   3.589  -0.393  0.00  0.00    -0.075 S 
BRANCH  19  28
ATOM     20  C   UNL     1      -1.597  -3.371  -0.018  0.00  0.00    +0.044 C 
ATOM     21  C   UNL     1      -0.552  -2.295  -0.161  0.00  0.00    -0.048 A 
ATOM     22  C   UNL     1       0.773  -2.645  -0.373  0.00  0.00    +0.005 A 
ATOM     23  C   UNL     1       1.741  -1.671  -0.506  0.00  0.00    +0.028 A 
ATOM     24  C   UNL     1       1.388  -0.333  -0.427  0.00  0.00    +0.067 A 
ATOM     25  C   UNL     1       0.048   0.028  -0.213  0.00  0.00    +0.090 A 
ATOM     26  C   UNL     1      -0.921  -0.970  -0.081  0.00  0.00    +0.033 A 
ATOM     27  N   UNL     1      -0.002   1.386  -0.182  0.00  0.00    -0.222 NA
ATOM     28  C   UNL     1       1.202   1.874  -0.360  0.00  0.00    +0.168 A 
ATOM     29  N   UNL     1       2.097   0.854  -0.517  0.00  0.00    -0.333 N 
ATOM     30  H   UNL     1       3.082   0.947  -0.668  0.00  0.00    +0.168 HD
ENDBRANCH  19  28
ENDBRANCH  17  19
ENDBRANCH   1  17
TORSDOF 4
