REMARK  Name = ZINC45638186
REMARK  10 active torsions:
REMARK  status: ('A' for Active; 'I' for Inactive)
REMARK    1  A    between atoms: C_1  and  C_2
REMARK    2  A    between atoms: C_3  and  C_8
REMARK    3  A    between atoms: N_6  and  C_7
REMARK    4  A    between atoms: C_8  and  C_10
REMARK    5  A    between atoms: C_8  and  N_11
REMARK    6  A    between atoms: N_14  and  C_15
REMARK    7  A    between atoms: C_18  and  C_27
REMARK    8  A    between atoms: C_22  and  C_24
REMARK    9  A    between atoms: C_24  and  C_25
REMARK   10  A    between atoms: C_24  and  C_26
REMARK                            x       y       z     vdW  Elec       q    Type
REMARK                         _______ _______ _______ _____ _____    ______ ____
ROOT
ATOM      1  N   UNL     1       0.529  -1.726  -3.455  0.00  0.00    -0.293 N 
ATOM      2  C   UNL     1       1.080  -1.430  -4.649  0.00  0.00    +0.300 C 
ATOM      3  O   UNL     1       1.051  -0.288  -5.065  0.00  0.00    -0.253 OA
ATOM      4  N   UNL     1       1.661  -2.400  -5.382  0.00  0.00    -0.296 N 
ATOM      5  H   UNL     1       0.552  -2.638  -3.123  0.00  0.00    +0.151 HD
ATOM      6  H   UNL     1       1.684  -3.311  -5.051  0.00  0.00    +0.151 HD
ENDROOT
BRANCH   4   7
ATOM      7  C   UNL     1       2.259  -2.078  -6.680  0.00  0.00    +0.078 C 
ATOM      8  C   UNL     1       1.151  -1.846  -7.709  0.00  0.00    +0.026 C 
ATOM      9  C   UNL     1       0.302  -3.112  -7.839  0.00  0.00    -0.012 C 
ATOM     10  C   UNL     1       1.187  -4.274  -8.295  0.00  0.00    +0.004 C 
ATOM     11  C   UNL     1       2.295  -4.506  -7.266  0.00  0.00    +0.006 C 
ATOM     12  C   UNL     1       3.144  -3.240  -7.137  0.00  0.00    +0.012 C 
ATOM     13  C   UNL     1      -0.322  -3.448  -6.483  0.00  0.00    +0.007 C 
BRANCH  12  14
ATOM     14  C   UNL     1       4.252  -3.472  -6.108  0.00  0.00    -0.012 C 
ATOM     15  C   UNL     1       5.136  -4.634  -6.564  0.00  0.00    +0.007 C 
ATOM     16  C   UNL     1       5.101  -2.205  -5.978  0.00  0.00    +0.007 C 
ENDBRANCH  12  14
ENDBRANCH   4   7
BRANCH   1  17
ATOM     17  C   UNL     1      -0.103  -0.672  -2.658  0.00  0.00    +0.105 C 
ATOM     18  C   UNL     1      -1.551  -0.487  -3.114  0.00  0.00    +0.033 C 
BRANCH  17  21
ATOM     19  C   UNL     1      -0.408   1.273  -0.227  0.00  0.00    +0.065 C 
ATOM     20  C   UNL     1      -0.213  -0.220  -0.151  0.00  0.00    +0.041 A 
ATOM     21  C   UNL     1      -0.081  -1.061  -1.202  0.00  0.00    +0.013 A 
ATOM     22  C   UNL     1       0.080  -2.357  -0.699  0.00  0.00    +0.140 A 
ATOM     23  N   UNL     1       0.045  -2.295   0.608  0.00  0.00    -0.179 NA
ATOM     24  N   UNL     1      -0.134  -0.956   0.978  0.00  0.00    -0.271 N 
ATOM     25  C   UNL     1      -0.222  -0.445   2.348  0.00  0.00    +0.172 C 
ENDBRANCH  17  21
ENDBRANCH   1  17
TORSDOF 4
