REMARK  Name = ZINC36205437
REMARK  14 active torsions:
REMARK  status: ('A' for Active; 'I' for Inactive)
REMARK    1  A    between atoms: C_1  and  C_2
REMARK    2  A    between atoms: C_2  and  C_3
REMARK    3  A    between atoms: C_2  and  C_4
REMARK    4  A    between atoms: C_4  and  O_5
REMARK    5  A    between atoms: O_5  and  C_6
REMARK    6  A    between atoms: C_6  and  C_7
REMARK    7  A    between atoms: C_7  and  C_9
REMARK    8  A    between atoms: C_7  and  O_36
REMARK    9  A    between atoms: C_9  and  N_10
REMARK   10  A    between atoms: N_10  and  C_11
REMARK   11  A    between atoms: N_10  and  C_17
REMARK   12  A    between atoms: C_11  and  C_12
REMARK   13  A    between atoms: C_17  and  C_18
REMARK   14  A    between atoms: C_24  and  C_29
REMARK                            x       y       z     vdW  Elec       q    Type
REMARK                         _______ _______ _______ _____ _____    ______ ____
ROOT
ATOM      1  C   UNL     1       0.223  -0.290   8.468  0.00  0.00    -0.003 C 
ENDROOT
BRANCH   1   2
ATOM      2  C   UNL     1      -0.646   0.194   9.599  0.00  0.00    +0.094 A 
ATOM      3  N   UNL     1      -0.200   0.085  10.877  0.00  0.00    -0.312 N 
ATOM      4  H   UNL     1       0.672  -0.304  11.044  0.00  0.00    +0.170 HD
ATOM      5  C   UNL     1      -0.945   0.506  11.916  0.00  0.00    +0.260 A 
ATOM      6  O   UNL     1      -0.530   0.402  13.057  0.00  0.00    -0.267 OA
ATOM      7  C   UNL     1      -2.232   1.079  11.660  0.00  0.00    +0.080 A 
ATOM      8  C   UNL     1      -3.213   1.603  12.603  0.00  0.00    +0.005 A 
ATOM      9  C   UNL     1      -4.376   2.103  12.122  0.00  0.00    +0.056 A 
ATOM     10  S   UNL     1      -4.217   1.897  10.359  0.00  0.00    -0.076 S 
ATOM     11  C   UNL     1      -2.608   1.151  10.309  0.00  0.00    +0.116 A 
ATOM     12  N   UNL     1      -1.813   0.717   9.334  0.00  0.00    -0.229 NA
BRANCH   8  13
ATOM     13  C   UNL     1      -2.942   1.587  14.061  0.00  0.00    +0.002 A 
ATOM     14  C   UNL     1      -3.721   0.801  14.909  0.00  0.00    +0.010 A 
ATOM     15  C   UNL     1      -3.464   0.790  16.264  0.00  0.00    +0.001 A 
ATOM     16  C   UNL     1      -2.437   1.558  16.783  0.00  0.00    +0.001 A 
ATOM     17  C   UNL     1      -1.660   2.340  15.948  0.00  0.00    +0.020 A 
ATOM     18  C   UNL     1      -1.904   2.355  14.588  0.00  0.00    +0.049 A 
ATOM     19 CL   UNL     1      -0.924   3.332  13.540  0.00  0.00    -0.083 Cl
ENDBRANCH   8  13
ENDBRANCH   1   2
BRANCH   1  20
ATOM     20  N   UNL     1      -0.465  -0.063   7.190  0.00  0.00    +0.391 N 
ATOM     21  H   UNL     1      -1.379  -0.487   7.220  0.00  0.00    -0.080 HD
BRANCH  20  22
ATOM     22  C   UNL     1       0.317  -0.660   6.099  0.00  0.00    -0.044 C 
BRANCH  22  23
ATOM     23  C   UNL     1       0.295  -2.184   6.231  0.00  0.00    +0.124 C 
BRANCH  23  24
ATOM     24  O   UNL     1       1.036  -2.573   7.389  0.00  0.00    -0.391 OA
ATOM     25  H   UNL     1       1.964  -2.302   7.371  0.00  0.00    +0.210 HD
ENDBRANCH  23  24
BRANCH  23  26
ATOM     26  C   UNL     1       0.925  -2.814   4.987  0.00  0.00    +0.189 C 
BRANCH  26  27
ATOM     27  O   UNL     1       0.799  -4.235   5.057  0.00  0.00    -0.377 OA
BRANCH  27  28
ATOM     28  C   UNL     1       1.359  -4.924   3.937  0.00  0.00    +0.163 C 
BRANCH  28  30
ATOM     29  C   UNL     1      -0.326  -6.763   4.091  0.00  0.00    +0.009 C 
ATOM     30  C   UNL     1       1.168  -6.431   4.117  0.00  0.00    +0.009 C 
ATOM     31  C   UNL     1       1.875  -7.174   2.982  0.00  0.00    +0.009 C 
ENDBRANCH  28  30
ENDBRANCH  27  28
ENDBRANCH  26  27
ENDBRANCH  23  26
ENDBRANCH  22  23
ENDBRANCH  20  22
BRANCH  20  32
ATOM     32  C   UNL     1      -0.603   1.381   6.959  0.00  0.00    -0.002 C 
BRANCH  32  33
ATOM     33  C   UNL     1      -1.434   1.615   5.723  0.00  0.00    +0.089 A 
ATOM     34  C   UNL     1      -2.759   1.842   5.698  0.00  0.00    +0.042 A 
ATOM     35  C   UNL     1      -3.121   2.006   4.341  0.00  0.00    +0.041 A 
ATOM     36  C   UNL     1      -1.994   1.869   3.618  0.00  0.00    +0.195 A 
ATOM     37  O   UNL     1      -0.975   1.638   4.461  0.00  0.00    -0.470 OA
ENDBRANCH  32  33
ENDBRANCH  20  32
ENDBRANCH   1  20
TORSDOF 12
