REMARK  Name = ZINC04928971
REMARK  7 active torsions:
REMARK  status: ('A' for Active; 'I' for Inactive)
REMARK    1  A    between atoms: C_1  and  C_2
REMARK    2  A    between atoms: C_5  and  C_8
REMARK    3  A    between atoms: C_17  and  C_19
REMARK    4  A    between atoms: C_22  and  C_25
REMARK    5  A    between atoms: C_25  and  C_26
REMARK    6  A    between atoms: C_25  and  C_27
REMARK    7  A    between atoms: C_25  and  C_28
REMARK                            x       y       z     vdW  Elec       q    Type
REMARK                         _______ _______ _______ _____ _____    ______ ____
ROOT
ATOM      1  C   UNL     1       0.059  -4.256  -0.021  0.00  0.00    +0.099 A 
ATOM      2  C   UNL     1       0.717  -5.081   0.898  0.00  0.00    +0.035 A 
ATOM      3  C   UNL     1       0.457  -6.377   0.495  0.00  0.00    +0.126 A 
ATOM      4  N   UNL     1      -0.326  -6.277  -0.621  0.00  0.00    -0.272 N 
ATOM      5  H   UNL     1      -0.669  -7.029  -1.129  0.00  0.00    +0.189 HD
ATOM      6  N   UNL     1      -0.545  -5.040  -0.893  0.00  0.00    -0.173 NA
ATOM      7  C   UNL     1       1.122  -7.297   1.423  0.00  0.00    +0.263 C 
ATOM      8  O   UNL     1       1.088  -8.510   1.343  0.00  0.00    -0.269 OA
ATOM      9  N   UNL     1       1.777  -6.609   2.376  0.00  0.00    -0.299 N 
ATOM     10  C   UNL     1       1.579  -5.175   2.127  0.00  0.00    +0.138 C 
ATOM     11  H   UNL     1       2.292  -6.993   3.103  0.00  0.00    +0.150 HD
ENDROOT
BRANCH   1  16
ATOM     12  C   UNL     1      -0.018   1.503   0.010  0.00  0.00    +0.044 C 
ATOM     13  C   UNL     1       0.002  -0.004   0.002  0.00  0.00    -0.050 A 
ATOM     14  C   UNL     1       0.006  -0.687  -1.201  0.00  0.00    +0.004 A 
ATOM     15  C   UNL     1       0.024  -2.067  -1.214  0.00  0.00    +0.010 A 
ATOM     16  C   UNL     1       0.040  -2.772  -0.013  0.00  0.00    +0.002 A 
ATOM     17  C   UNL     1       0.036  -2.080   1.196  0.00  0.00    +0.010 A 
ATOM     18  C   UNL     1       0.023  -0.700   1.198  0.00  0.00    +0.004 A 
ENDBRANCH   1  16
BRANCH  10  19
ATOM     19  C   UNL     1       2.905  -4.502   1.883  0.00  0.00    -0.023 A 
ATOM     20  C   UNL     1       3.897  -5.163   1.183  0.00  0.00    +0.006 A 
ATOM     21  C   UNL     1       5.114  -4.546   0.959  0.00  0.00    +0.004 A 
ATOM     22  C   UNL     1       5.338  -3.268   1.435  0.00  0.00    -0.042 A 
ATOM     23  C   UNL     1       4.346  -2.607   2.135  0.00  0.00    +0.004 A 
ATOM     24  C   UNL     1       3.128  -3.222   2.355  0.00  0.00    +0.006 A 
BRANCH  22  25
ATOM     25  C   UNL     1       6.665  -2.595   1.192  0.00  0.00    -0.013 C 
ATOM     26  C   UNL     1       6.908  -2.477  -0.314  0.00  0.00    +0.015 C 
ATOM     27  C   UNL     1       6.651  -1.199   1.818  0.00  0.00    +0.015 C 
ATOM     28  C   UNL     1       7.782  -3.427   1.826  0.00  0.00    +0.015 C 
ENDBRANCH  22  25
ENDBRANCH  10  19
TORSDOF 3
