REMARK  Name = ZINC06197947
REMARK  10 active torsions:
REMARK  status: ('A' for Active; 'I' for Inactive)
REMARK    1  A    between atoms: C_1  and  C_2
REMARK    2  A    between atoms: C_2  and  C_3
REMARK    3  A    between atoms: C_10  and  C_15
REMARK    4  A    between atoms: C_15  and  C_17
REMARK    5  A    between atoms: C_15  and  N_70
REMARK    6  A    between atoms: N_21  and  C_22
REMARK    7  A    between atoms: C_27  and  C_28
REMARK    8  A    between atoms: C_27  and  N_70
REMARK    9  A    between atoms: C_34  and  C_35
REMARK   10  A    between atoms: C_34  and  N_70
REMARK                            x       y       z     vdW  Elec       q    Type
REMARK                         _______ _______ _______ _____ _____    ______ ____
ROOT
ATOM      1  C   UNL     1       0.476  -0.453  -1.460  0.00  0.00    +0.040 C 
ENDROOT
BRANCH   1   9
ATOM      2  C   UNL     1       1.760  -6.414  -2.509  0.00  0.00    -0.047 A 
ATOM      3  C   UNL     1       0.463  -6.884  -2.346  0.00  0.00    +0.005 A 
ATOM      4  C   UNL     1      -0.566  -6.018  -2.044  0.00  0.00    +0.026 A 
ATOM      5  C   UNL     1      -0.305  -4.659  -1.902  0.00  0.00    +0.049 A 
ATOM      6  C   UNL     1       1.011  -4.187  -2.068  0.00  0.00    -0.001 A 
ATOM      7  C   UNL     1       2.039  -5.084  -2.374  0.00  0.00    +0.013 A 
ATOM      8  C   UNL     1       1.274  -2.754  -1.923  0.00  0.00    +0.017 A 
ATOM      9  C   UNL     1       0.238  -1.932  -1.622  0.00  0.00    +0.011 A 
ATOM     10  C   UNL     1      -1.063  -2.457  -1.465  0.00  0.00    +0.251 A 
ATOM     11  O   UNL     1      -1.980  -1.700  -1.200  0.00  0.00    -0.268 OA
ATOM     12  N   UNL     1      -1.315  -3.770  -1.602  0.00  0.00    -0.322 N 
ATOM     13  H   UNL     1      -2.249  -4.108  -1.484  0.00  0.00    +0.169 HD
BRANCH   2  15
ATOM     14  C   UNL     1       3.491  -7.903  -1.542  0.00  0.00    +0.009 C 
ATOM     15  C   UNL     1       2.868  -7.381  -2.838  0.00  0.00    +0.032 C 
ENDBRANCH   2  15
ENDBRANCH   1   9
BRANCH   1  16
ATOM     16  C   UNL     1      -0.224   0.292  -2.568  0.00  0.00    +0.143 A 
ATOM     17  N   UNL     1      -1.511   0.515  -2.670  0.00  0.00    -0.115 NA
ATOM     18  N   UNL     1      -1.715   1.183  -3.752  0.00  0.00    -0.023 NA
ATOM     19  N   UNL     1      -0.591   1.393  -4.343  0.00  0.00    -0.044 NA
ATOM     20  N   UNL     1       0.353   0.863  -3.642  0.00  0.00    -0.227 N 
BRANCH  20  21
ATOM     21  C   UNL     1       1.784   0.878  -3.956  0.00  0.00    +0.111 C 
ATOM     22  C   UNL     1       2.282   2.332  -4.085  0.00  0.00    +0.027 C 
ATOM     23  C   UNL     1       3.314   2.278  -5.240  0.00  0.00    +0.002 C 
ATOM     24  C   UNL     1       2.671   1.274  -6.228  0.00  0.00    +0.002 C 
ATOM     25  C   UNL     1       2.031   0.205  -5.317  0.00  0.00    +0.027 C 
ENDBRANCH  20  21
ENDBRANCH   1  16
BRANCH   1  26
ATOM     26  N   UNL     1      -0.081  -0.018  -0.162  0.00  0.00    +0.397 N 
ATOM     27  H   UNL     1      -1.079  -0.257  -0.130  0.00  0.00    -0.079 HD
BRANCH  26  28
ATOM     28  C   UNL     1       0.067   1.446  -0.014  0.00  0.00    -0.041 C 
BRANCH  28  29
ATOM     29  C   UNL     1      -0.825   1.911   1.108  0.00  0.00    -0.064 A 
ATOM     30  C   UNL     1      -2.162   2.168   0.867  0.00  0.00    +0.002 A 
ATOM     31  C   UNL     1      -2.981   2.590   1.897  0.00  0.00    +0.000 A 
ATOM     32  C   UNL     1      -2.461   2.765   3.166  0.00  0.00    +0.000 A 
ATOM     33  C   UNL     1      -1.123   2.513   3.406  0.00  0.00    +0.000 A 
ATOM     34  C   UNL     1      -0.305   2.086   2.377  0.00  0.00    +0.002 A 
ENDBRANCH  28  29
ENDBRANCH  26  28
BRANCH  26  35
ATOM     35  C   UNL     1       0.615  -0.710   0.943  0.00  0.00    -0.001 C 
BRANCH  35  36
ATOM     36  C   UNL     1       2.099  -0.457   0.874  0.00  0.00    +0.089 A 
ATOM     37  C   UNL     1       2.768   0.494   1.551  0.00  0.00    +0.042 A 
ATOM     38  C   UNL     1       4.129   0.374   1.189  0.00  0.00    +0.041 A 
ATOM     39  C   UNL     1       4.211  -0.643   0.312  0.00  0.00    +0.195 A 
ATOM     40  O   UNL     1       2.980  -1.146   0.129  0.00  0.00    -0.470 OA
ENDBRANCH  35  36
ENDBRANCH  26  35
ENDBRANCH   1  26
TORSDOF 9
