REMARK  Name = ZINC06706259
REMARK  11 active torsions:
REMARK  status: ('A' for Active; 'I' for Inactive)
REMARK    1  A    between atoms: C_1  and  C_2
REMARK    2  A    between atoms: C_2  and  C_3
REMARK    3  A    between atoms: C_12  and  C_13
REMARK    4  A    between atoms: C_13  and  C_15
REMARK    5  A    between atoms: C_13  and  C_23
REMARK    6  A    between atoms: C_15  and  C_16
REMARK    7  A    between atoms: N_18  and  C_19
REMARK    8  A    between atoms: C_19  and  C_20
REMARK    9  A    between atoms: C_20  and  N_59
REMARK   10  A    between atoms: C_21  and  N_59
REMARK   11  A    between atoms: C_22  and  N_59
REMARK                            x       y       z     vdW  Elec       q    Type
REMARK                         _______ _______ _______ _____ _____    ______ ____
ROOT
ATOM      1  C   UNL     1       5.163   3.176  -3.112  0.00  0.00    +0.060 C 
ENDROOT
BRANCH   1  11
ATOM      2  C   UNL     1       1.395   2.047  -0.000  0.00  0.00    -0.024 A 
ATOM      3  C   UNL     1       2.019   2.378   1.183  0.00  0.00    +0.005 A 
ATOM      4  C   UNL     1       3.321   2.859   1.187  0.00  0.00    +0.001 A 
ATOM      5  C   UNL     1       4.007   3.013   0.015  0.00  0.00    +0.010 A 
ATOM      6  C   UNL     1       3.394   2.684  -1.196  0.00  0.00    +0.004 A 
ATOM      7  C   UNL     1       2.077   2.192  -1.204  0.00  0.00    +0.050 A 
ATOM      8  N   UNL     1       1.738   1.961  -2.519  0.00  0.00    -0.360 N 
ATOM      9  H   UNL     1       0.882   1.619  -2.822  0.00  0.00    +0.165 HD
ATOM     10  C   UNL     1       2.790   2.281  -3.333  0.00  0.00    +0.088 A 
ATOM     11  C   UNL     1       3.821   2.724  -2.596  0.00  0.00    -0.015 A 
BRANCH   2  13
ATOM     12  C   UNL     1       0.002  -0.004   0.002  0.00  0.00    +0.009 C 
ATOM     13  C   UNL     1      -0.019   1.526   0.010  0.00  0.00    +0.034 C 
ENDBRANCH   2  13
ENDBRANCH   1  11
BRANCH   1  14
ATOM     14  C   UNL     1       5.825   2.042  -3.852  0.00  0.00    -0.036 A 
ATOM     15  C   UNL     1       5.206   1.484  -4.956  0.00  0.00    +0.008 A 
ATOM     16  C   UNL     1       5.811   0.447  -5.641  0.00  0.00    +0.050 A 
ATOM     17  C   UNL     1       7.036  -0.043  -5.215  0.00  0.00    +0.166 A 
ATOM     18  C   UNL     1       7.656   0.515  -4.100  0.00  0.00    +0.167 A 
ATOM     19  C   UNL     1       7.046   1.557  -3.422  0.00  0.00    +0.053 A 
ATOM     20  O   UNL     1       8.837  -0.136  -3.887  0.00  0.00    -0.453 OA
ATOM     21  C   UNL     1       9.126  -0.821  -5.120  0.00  0.00    +0.466 C 
ATOM     22  O   UNL     1       7.828  -1.043  -5.701  0.00  0.00    -0.453 OA
ENDBRANCH   1  14
BRANCH   1  23
ATOM     23  C   UNL     1       4.971   4.361  -4.061  0.00  0.00    +0.108 C 
BRANCH  23  24
ATOM     24  C   UNL     1       6.318   4.891  -4.481  0.00  0.00    +0.214 C 
ATOM     25  O   UNL     1       7.331   4.372  -4.063  0.00  0.00    -0.276 OA
ATOM     26  N   UNL     1       6.396   5.941  -5.322  0.00  0.00    -0.317 N 
ATOM     27  H   UNL     1       5.586   6.356  -5.656  0.00  0.00    +0.149 HD
BRANCH  26  28
ATOM     28  C   UNL     1       7.706   6.457  -5.730  0.00  0.00    +0.085 C 
BRANCH  28  29
ATOM     29  C   UNL     1       7.514   7.642  -6.678  0.00  0.00    -0.061 C 
BRANCH  29  32
ATOM     30  C   UNL     1       9.550   7.172  -7.902  0.00  0.00    -0.097 C 
ATOM     31  C   UNL     1       8.691   9.434  -7.804  0.00  0.00    -0.097 C 
ATOM     32  N   UNL     1       8.842   8.163  -7.064  0.00  0.00    +0.377 N 
ATOM     33  H   UNL     1       9.393   8.335  -6.214  0.00  0.00    -0.083 HD
ENDBRANCH  29  32
ENDBRANCH  28  29
ENDBRANCH  26  28
ENDBRANCH  23  24
ENDBRANCH   1  23
TORSDOF 8
