REMARK  Name = ZINC08734793
REMARK  9 active torsions:
REMARK  status: ('A' for Active; 'I' for Inactive)
REMARK    1  A    between atoms: C_1  and  C_2
REMARK    2  A    between atoms: C_2  and  C_3
REMARK    3  A    between atoms: C_2  and  C_4
REMARK    4  A    between atoms: C_4  and  C_6
REMARK    5  A    between atoms: C_4  and  N_52
REMARK    6  A    between atoms: C_17  and  C_18
REMARK    7  A    between atoms: C_17  and  N_52
REMARK    8  A    between atoms: N_20  and  C_21
REMARK    9  A    between atoms: C_22  and  C_26
REMARK                            x       y       z     vdW  Elec       q    Type
REMARK                         _______ _______ _______ _____ _____    ______ ____
ROOT
ATOM      1  N   UNL     1       0.216   1.353  -0.093  0.00  0.00    +0.389 N 
ATOM      2  H   UNL     1      -0.522   1.937   0.319  0.00  0.00    -0.084 HD
ATOM      3  H   UNL     1       0.301   0.482   0.443  0.00  0.00    -0.084 HD
ENDROOT
BRANCH   1   4
ATOM      4  C   UNL     1       1.497   2.082  -0.046  0.00  0.00    -0.038 C 
BRANCH   4   5
ATOM      5  C   UNL     1       1.262   3.536  -0.363  0.00  0.00    -0.057 A 
ATOM      6  C   UNL     1       0.142   4.177   0.135  0.00  0.00    +0.006 A 
ATOM      7  C   UNL     1      -0.081   5.512  -0.153  0.00  0.00    +0.049 A 
ATOM      8  C   UNL     1       0.822   6.205  -0.942  0.00  0.00    +0.162 A 
ATOM      9  C   UNL     1       1.946   5.561  -1.440  0.00  0.00    +0.162 A 
ATOM     10  C   UNL     1       2.169   4.227  -1.146  0.00  0.00    +0.051 A 
ATOM     11  O   UNL     1       2.830   6.252  -2.217  0.00  0.00    -0.488 OA
ATOM     12  C   UNL     1       3.579   7.273  -1.554  0.00  0.00    +0.232 C 
ATOM     13  C   UNL     1       2.789   8.570  -1.494  0.00  0.00    +0.082 C 
ATOM     14  C   UNL     1       1.533   8.444  -0.646  0.00  0.00    +0.232 C 
ATOM     15  O   UNL     1       0.614   7.521  -1.234  0.00  0.00    -0.488 OA
ENDBRANCH   4   5
BRANCH   4  17
ATOM     16  C   UNL     1       2.241   0.476   1.718  0.00  0.00    +0.006 C 
ATOM     17  C   UNL     1       2.094   1.956   1.357  0.00  0.00    -0.027 C 
ATOM     18  C   UNL     1       3.469   2.627   1.389  0.00  0.00    +0.006 C 
ENDBRANCH   4  17
ENDBRANCH   1   4
BRANCH   1  19
ATOM     19  C   UNL     1      -0.140   1.033  -1.489  0.00  0.00    +0.016 C 
BRANCH  19  20
ATOM     20  C   UNL     1      -1.395   0.199  -1.500  0.00  0.00    +0.201 C 
ATOM     21  O   UNL     1      -1.935  -0.098  -0.455  0.00  0.00    -0.278 OA
ATOM     22  N   UNL     1      -1.917  -0.218  -2.670  0.00  0.00    -0.281 N 
ATOM     23  H   UNL     1      -1.485   0.019  -3.506  0.00  0.00    +0.155 HD
BRANCH  22  24
ATOM     24  C   UNL     1      -3.071  -0.986  -2.680  0.00  0.00    +0.084 A 
ATOM     25  C   UNL     1      -3.757  -1.500  -3.775  0.00  0.00    +0.065 A 
ATOM     26  C   UNL     1      -4.941  -2.276  -3.493  0.00  0.00    +0.022 A 
ATOM     27  C   UNL     1      -5.284  -2.426  -2.201  0.00  0.00    +0.048 A 
ATOM     28  S   UNL     1      -4.013  -1.530  -1.333  0.00  0.00    -0.081 S 
BRANCH  25  29
ATOM     29  C   UNL     1      -3.298  -1.268  -5.148  0.00  0.00    +0.244 C 
ATOM     30  O   UNL     1      -2.293  -0.612  -5.351  0.00  0.00    -0.270 OA
ATOM     31  N   UNL     1      -3.988  -1.782  -6.185  0.00  0.00    -0.325 N 
ATOM     32  H   UNL     1      -4.789  -2.305  -6.023  0.00  0.00    +0.145 HD
ATOM     33  H   UNL     1      -3.685  -1.629  -7.093  0.00  0.00    +0.145 HD
ENDBRANCH  25  29
ENDBRANCH  22  24
ENDBRANCH  19  20
ENDBRANCH   1  19
TORSDOF 7
