REMARK  Name = ZINC39664401
REMARK  9 active torsions:
REMARK  status: ('A' for Active; 'I' for Inactive)
REMARK    1  A    between atoms: C_1  and  C_2
REMARK    2  A    between atoms: C_2  and  C_3
REMARK    3  A    between atoms: C_3  and  C_5
REMARK    4  A    between atoms: C_3  and  C_11
REMARK    5  A    between atoms: C_15  and  C_24
REMARK    6  A    between atoms: N_26  and  C_27
REMARK    7  A    between atoms: C_27  and  C_28
REMARK    8  A    between atoms: C_28  and  C_30
REMARK    9  A    between atoms: C_28  and  N_36
REMARK                            x       y       z     vdW  Elec       q    Type
REMARK                         _______ _______ _______ _____ _____    ______ ____
ROOT
ATOM      1  C   UNL     1      -0.762  -0.327  -0.450  0.00  0.00    +0.223 C 
ATOM      2  O   UNL     1       0.364  -0.701  -0.199  0.00  0.00    -0.275 OA
ATOM      3  N   UNL     1      -1.740  -1.230  -0.664  0.00  0.00    -0.300 N 
ATOM      4  C   UNL     1      -3.163  -0.969  -0.987  0.00  0.00    +0.121 C 
ATOM      5  C   UNL     1      -3.530  -2.046  -2.033  0.00  0.00    +0.100 C 
ATOM      6  C   UNL     1      -2.525  -3.185  -1.792  0.00  0.00    -0.004 C 
ATOM      7  C   UNL     1      -1.634  -2.708  -0.636  0.00  0.00    +0.115 C 
ATOM      8  C   UNL     1      -1.680  -3.417  -3.041  0.00  0.00    -0.010 C 
ATOM      9  C   UNL     1      -0.728  -4.591  -2.796  0.00  0.00    -0.082 C 
ATOM     10  N   UNL     1      -1.505  -5.795  -2.477  0.00  0.00    +0.379 N 
ATOM     11  C   UNL     1      -2.244  -5.596  -1.224  0.00  0.00    -0.082 C 
ATOM     12  C   UNL     1      -3.259  -4.464  -1.401  0.00  0.00    -0.010 C 
ATOM     13  H   UNL     1      -2.157  -5.981  -3.224  0.00  0.00    -0.086 HD
ATOM     14  H   UNL     1      -0.880  -6.580  -2.376  0.00  0.00    -0.086 HD
ENDROOT
BRANCH   5  15
ATOM     15  C   UNL     1      -3.378  -1.495  -3.427  0.00  0.00    +0.218 C 
ATOM     16  O   UNL     1      -2.585  -0.604  -3.645  0.00  0.00    -0.275 OA
ATOM     17  N   UNL     1      -4.124  -1.994  -4.433  0.00  0.00    -0.313 N 
ATOM     18  H   UNL     1      -4.759  -2.707  -4.259  0.00  0.00    +0.149 HD
BRANCH  17  19
ATOM     19  C   UNL     1      -3.977  -1.459  -5.789  0.00  0.00    +0.127 C 
BRANCH  19  20
ATOM     20  C   UNL     1      -4.932  -2.193  -6.733  0.00  0.00    +0.104 C 
BRANCH  20  21
ATOM     21  C   UNL     1      -4.694  -1.730  -8.147  0.00  0.00    -0.029 A 
ATOM     22  C   UNL     1      -5.762  -1.346  -8.937  0.00  0.00    +0.005 A 
ATOM     23  C   UNL     1      -5.544  -0.921 -10.234  0.00  0.00    +0.000 A 
ATOM     24  C   UNL     1      -4.259  -0.879 -10.742  0.00  0.00    +0.000 A 
ATOM     25  C   UNL     1      -3.191  -1.262  -9.951  0.00  0.00    +0.000 A 
ATOM     26  C   UNL     1      -3.409  -1.683  -8.653  0.00  0.00    +0.005 A 
ENDBRANCH  20  21
BRANCH  20  27
ATOM     27  N   UNL     1      -4.692  -3.639  -6.645  0.00  0.00    -0.290 NA
ATOM     28  C   UNL     1      -3.331  -3.976  -7.089  0.00  0.00    +0.113 C 
ATOM     29  C   UNL     1      -3.104  -5.481  -6.925  0.00  0.00    +0.175 C 
ATOM     30  O   UNL     1      -4.105  -6.192  -7.659  0.00  0.00    -0.377 OA
ATOM     31  C   UNL     1      -5.442  -5.889  -7.251  0.00  0.00    +0.175 C 
ATOM     32  C   UNL     1      -5.693  -4.388  -7.419  0.00  0.00    +0.113 C 
ENDBRANCH  20  27
ENDBRANCH  19  20
ENDBRANCH  17  19
ENDBRANCH   5  15
BRANCH   1  33
ATOM     33  C   UNL     1      -1.069   1.147  -0.522  0.00  0.00    +0.105 C 
BRANCH  33  34
ATOM     34  C   UNL     1       0.186   1.935  -0.247  0.00  0.00    -0.036 A 
ATOM     35  C   UNL     1       0.845   1.785   0.959  0.00  0.00    +0.004 A 
ATOM     36  C   UNL     1       1.996   2.508   1.212  0.00  0.00    +0.000 A 
ATOM     37  C   UNL     1       2.488   3.380   0.259  0.00  0.00    +0.000 A 
ATOM     38  C   UNL     1       1.829   3.529  -0.947  0.00  0.00    +0.000 A 
ATOM     39  C   UNL     1       0.680   2.803  -1.202  0.00  0.00    +0.004 A 
ENDBRANCH  33  34
BRANCH  33  41
ATOM     40  C   UNL     1      -2.533   2.967   0.364  0.00  0.00    +0.005 C 
ATOM     41  C   UNL     1      -2.131   1.499   0.520  0.00  0.00    +0.014 C 
ENDBRANCH  33  41
ENDBRANCH   1  33
TORSDOF 8
