REMARK  Name = ZINC59023536
REMARK  11 active torsions:
REMARK  status: ('A' for Active; 'I' for Inactive)
REMARK    1  A    between atoms: C_1  and  C_2
REMARK    2  A    between atoms: C_2  and  C_4
REMARK    3  A    between atoms: C_2  and  N_11
REMARK    4  A    between atoms: C_12  and  C_14
REMARK    5  A    between atoms: C_14  and  N_15
REMARK    6  A    between atoms: C_18  and  N_21
REMARK    7  A    between atoms: C_22  and  O_24
REMARK    8  A    between atoms: O_24  and  C_25
REMARK    9  A    between atoms: C_25  and  C_26
REMARK   10  A    between atoms: C_25  and  C_27
REMARK   11  A    between atoms: C_25  and  C_28
REMARK                            x       y       z     vdW  Elec       q    Type
REMARK                         _______ _______ _______ _____ _____    ______ ____
ROOT
ATOM      1  N   UNL     1       4.226  -1.127   2.125  0.00  0.00    +0.385 N 
ATOM      2  C   UNL     1       4.506  -2.106   1.068  0.00  0.00    -0.076 C 
ATOM      3  C   UNL     1       5.998  -2.082   0.727  0.00  0.00    +0.004 C 
ATOM      4  C   UNL     1       6.808  -2.434   1.978  0.00  0.00    +0.073 C 
ATOM      5  C   UNL     1       6.452  -1.451   3.098  0.00  0.00    +0.004 C 
ATOM      6  C   UNL     1       4.944  -1.499   3.351  0.00  0.00    -0.076 C 
ATOM      7  H   UNL     1       4.529  -0.213   1.823  0.00  0.00    -0.081 HD
ENDROOT
BRANCH   4   8
ATOM      8  N   UNL     1       8.239  -2.338   1.679  0.00  0.00    -0.278 N 
ATOM      9  C   UNL     1       9.127  -3.051   2.399  0.00  0.00    +0.401 C 
ATOM     10  O   UNL     1       8.742  -3.773   3.298  0.00  0.00    -0.226 OA
ATOM     11  H   UNL     1       8.547  -1.762   0.962  0.00  0.00    +0.152 HD
BRANCH   9  12
ATOM     12  O   UNL     1      10.442  -2.963   2.124  0.00  0.00    -0.445 OA
BRANCH  12  13
ATOM     13  C   UNL     1      11.327  -3.746   2.928  0.00  0.00    +0.107 C 
ATOM     14  C   UNL     1      10.974  -5.227   2.780  0.00  0.00    +0.055 C 
ATOM     15  C   UNL     1      12.769  -3.517   2.470  0.00  0.00    +0.055 C 
ATOM     16  C   UNL     1      11.186  -3.332   4.394  0.00  0.00    +0.055 C 
ENDBRANCH  12  13
ENDBRANCH   9  12
ENDBRANCH   4   8
BRANCH   1  17
ATOM     17  C   UNL     1       2.783  -1.099   2.395  0.00  0.00    +0.019 C 
BRANCH  17  19
ATOM     18  N   UNL     1       0.711  -0.489   1.189  0.00  0.00    -0.310 N 
ATOM     19  C   UNL     1       2.054  -0.600   1.174  0.00  0.00    +0.197 C 
ATOM     20  O   UNL     1       2.676  -0.297   0.177  0.00  0.00    -0.278 OA
ATOM     21  H   UNL     1       0.213  -0.731   1.986  0.00  0.00    +0.149 HD
BRANCH  18  23
ATOM     22  C   UNL     1      -0.019   1.526   0.010  0.00  0.00    +0.033 C 
ATOM     23  C   UNL     1       0.002  -0.004   0.002  0.00  0.00    +0.100 C 
BRANCH  23  24
ATOM     24  C   UNL     1      -1.412  -0.526   0.013  0.00  0.00    -0.027 A 
ATOM     25  C   UNL     1      -2.123  -0.571   1.198  0.00  0.00    +0.006 A 
ATOM     26  C   UNL     1      -3.420  -1.049   1.208  0.00  0.00    +0.015 A 
ATOM     27  C   UNL     1      -4.006  -1.482   0.032  0.00  0.00    +0.018 A 
ATOM     28  C   UNL     1      -3.294  -1.437  -1.153  0.00  0.00    +0.015 A 
ATOM     29  C   UNL     1      -1.999  -0.954  -1.163  0.00  0.00    +0.006 A 
ATOM     30 BR   UNL     1      -5.780  -2.136   0.046  0.00  0.00    -0.050 Br
ENDBRANCH  23  24
ENDBRANCH  18  23
ENDBRANCH  17  19
ENDBRANCH   1  17
TORSDOF 7
