REMARK  Name = ZINC39610145
REMARK  5 active torsions:
REMARK  status: ('A' for Active; 'I' for Inactive)
REMARK    1  A    between atoms: C_6  and  C_7
REMARK    2  A    between atoms: C_7  and  N_8
REMARK    3  A    between atoms: C_9  and  C_11
REMARK    4  A    between atoms: C_22  and  C_24
REMARK    5  A    between atoms: C_28  and  C_30
REMARK                            x       y       z     vdW  Elec       q    Type
REMARK                         _______ _______ _______ _____ _____    ______ ____
ROOT
ATOM      1  C   UNL     1      -3.302  -1.905  -3.714  0.00  0.00    +0.100 C 
ATOM      2  C   UNL     1      -2.098  -2.764  -4.162  0.00  0.00    +0.121 C 
ATOM      3  N   UNL     1      -2.546  -4.164  -3.971  0.00  0.00    -0.296 N 
ATOM      4  C   UNL     1      -3.964  -4.159  -4.403  0.00  0.00    +0.115 C 
ATOM      5  C   UNL     1      -4.525  -2.823  -3.877  0.00  0.00    -0.004 C 
ATOM      6  C   UNL     1      -5.502  -2.227  -4.886  0.00  0.00    -0.010 C 
ATOM      7  C   UNL     1      -6.736  -3.127  -4.988  0.00  0.00    -0.082 C 
ATOM      8  N   UNL     1      -7.372  -3.241  -3.670  0.00  0.00    +0.379 N 
ATOM      9  C   UNL     1      -6.458  -3.900  -2.729  0.00  0.00    -0.082 C 
ATOM     10  C   UNL     1      -5.212  -3.033  -2.531  0.00  0.00    -0.010 C 
ATOM     11  C   UNL     1      -1.827  -5.206  -3.510  0.00  0.00    +0.247 C 
ATOM     12  O   UNL     1      -0.706  -5.026  -3.075  0.00  0.00    -0.270 OA
ATOM     13  H   UNL     1      -7.598  -2.320  -3.326  0.00  0.00    -0.086 HD
ATOM     14  H   UNL     1      -8.218  -3.784  -3.751  0.00  0.00    -0.086 HD
ENDROOT
BRANCH  11  15
ATOM     15  C   UNL     1      -2.400  -6.567  -3.533  0.00  0.00    +0.038 A 
ATOM     16  C   UNL     1      -3.457  -6.868  -4.395  0.00  0.00    +0.016 A 
ATOM     17  C   UNL     1      -3.988  -8.140  -4.412  0.00  0.00    +0.039 A 
ATOM     18  C   UNL     1      -3.474  -9.120  -3.576  0.00  0.00    +0.135 A 
ATOM     19  C   UNL     1      -2.425  -8.827  -2.719  0.00  0.00    +0.091 A 
ATOM     20  C   UNL     1      -1.883  -7.560  -2.698  0.00  0.00    +0.028 A 
ATOM     21  F   UNL     1      -3.999 -10.365  -3.597  0.00  0.00    -0.205 F 
BRANCH  19  22
ATOM     22  C   UNL     1      -1.872  -9.897  -1.813  0.00  0.00    +0.420 C 
ATOM     23  F   UNL     1      -0.828  -9.367  -1.048  0.00  0.00    -0.166 F 
ATOM     24  F   UNL     1      -2.884 -10.358  -0.964  0.00  0.00    -0.166 F 
ATOM     25  F   UNL     1      -1.392 -10.960  -2.586  0.00  0.00    -0.166 F 
ENDBRANCH  19  22
ENDBRANCH  11  15
BRANCH   1  27
ATOM     26  N   UNL     1      -3.778  -0.395  -1.814  0.00  0.00    -0.311 N 
ATOM     27  C   UNL     1      -3.145  -1.492  -2.273  0.00  0.00    +0.218 C 
ATOM     28  O   UNL     1      -2.448  -2.147  -1.527  0.00  0.00    -0.275 OA
ATOM     29  H   UNL     1      -4.335   0.129  -2.411  0.00  0.00    +0.149 HD
BRANCH  26  30
ATOM     30  C   UNL     1      -3.625   0.007  -0.413  0.00  0.00    +0.139 C 
BRANCH  30  36
ATOM     31  C   UNL     1      -5.745   1.156   0.254  0.00  0.00    +0.009 A 
ATOM     32  C   UNL     1      -6.487   2.299   0.489  0.00  0.00    +0.050 A 
ATOM     33  C   UNL     1      -5.913   3.547   0.312  0.00  0.00    +0.166 A 
ATOM     34  C   UNL     1      -4.587   3.647  -0.104  0.00  0.00    +0.167 A 
ATOM     35  C   UNL     1      -3.850   2.498  -0.338  0.00  0.00    +0.054 A 
ATOM     36  C   UNL     1      -4.430   1.256  -0.158  0.00  0.00    -0.027 A 
ATOM     37  O   UNL     1      -4.260   4.969  -0.204  0.00  0.00    -0.453 OA
ATOM     38  C   UNL     1      -5.515   5.674  -0.241  0.00  0.00    +0.466 C 
ATOM     39  O   UNL     1      -6.416   4.806   0.472  0.00  0.00    -0.453 OA
ENDBRANCH  30  36
ENDBRANCH  26  30
ENDBRANCH   1  27
TORSDOF 5
