REMARK  Name = ZINC39774428
REMARK  4 active torsions:
REMARK  status: ('A' for Active; 'I' for Inactive)
REMARK    1  A    between atoms: C_1  and  C_2
REMARK    2  A    between atoms: N_16  and  N_17
REMARK    3  A    between atoms: C_18  and  C_19
REMARK    4  A    between atoms: C_24  and  O_25
REMARK                            x       y       z     vdW  Elec       q    Type
REMARK                         _______ _______ _______ _____ _____    ______ ____
ROOT
ATOM      1  C   UNL     1      -0.387   2.263   0.135  0.00  0.00    +0.046 C 
ATOM      2  C   UNL     1      -0.843   0.861  -0.173  0.00  0.00    -0.027 A 
ATOM      3  C   UNL     1      -1.209   0.521  -1.430  0.00  0.00    +0.005 A 
ATOM      4  C   UNL     1      -1.635  -0.775  -1.749  0.00  0.00    +0.001 A 
ATOM      5  C   UNL     1      -1.735  -1.754  -0.822  0.00  0.00    +0.012 A 
ATOM      6  C   UNL     1      -1.408  -1.501   0.529  0.00  0.00    +0.025 A 
ATOM      7  C   UNL     1      -1.516  -2.226   1.689  0.00  0.00    +0.115 C 
ATOM      8  C   UNL     1      -0.736  -1.435   2.733  0.00  0.00    +0.253 C 
ATOM      9  N   UNL     1      -0.572  -0.106   2.157  0.00  0.00    -0.358 N 
ATOM     10  C   UNL     1      -0.888  -0.155   0.886  0.00  0.00    +0.049 A 
ATOM     11  N   UNL     1      -1.546  -1.466   3.952  0.00  0.00    -0.220 NA
ATOM     12  C   UNL     1      -2.347  -2.486   4.136  0.00  0.00    +0.227 C 
ATOM     13  N   UNL     1      -2.513  -3.485   3.237  0.00  0.00    -0.247 N 
ATOM     14  N   UNL     1      -2.133  -3.365   2.007  0.00  0.00    -0.171 NA
ATOM     15  N   UNL     1      -3.064  -2.545   5.314  0.00  0.00    -0.206 N 
ATOM     16  H   UNL     1      -3.666  -3.288   5.479  0.00  0.00    +0.177 HD
ATOM     17  H   UNL     1      -2.937  -4.310   3.522  0.00  0.00    +0.192 HD
ATOM     18  H   UNL     1      -0.273   0.683   2.635  0.00  0.00    +0.162 HD
ENDROOT
BRANCH  15  19
ATOM     19  N   UNL     1      -2.922  -1.533   6.272  0.00  0.00    -0.187 NA
ATOM     20  C   UNL     1      -3.512  -1.642   7.424  0.00  0.00    +0.142 C 
BRANCH  20  21
ATOM     21  C   UNL     1      -4.114  -2.926   7.825  0.00  0.00    +0.038 A 
ATOM     22  C   UNL     1      -3.631  -4.124   7.293  0.00  0.00    +0.033 A 
ATOM     23  C   UNL     1      -4.199  -5.324   7.673  0.00  0.00    +0.043 A 
ATOM     24  C   UNL     1      -5.246  -5.344   8.580  0.00  0.00    +0.039 A 
ATOM     25  C   UNL     1      -5.731  -4.164   9.114  0.00  0.00    +0.061 A 
ATOM     26  C   UNL     1      -5.169  -2.952   8.747  0.00  0.00    +0.139 A 
ATOM     27 BR   UNL     1      -7.160  -4.206  10.351  0.00  0.00    -0.046 Br
ATOM     28 CL   UNL     1      -3.599  -6.812   7.010  0.00  0.00    -0.083 Cl
BRANCH  26  29
ATOM     29  O   UNL     1      -5.641  -1.793   9.276  0.00  0.00    -0.505 OA
ATOM     30  H   UNL     1      -6.305  -1.353   8.727  0.00  0.00    +0.292 HD
ENDBRANCH  26  29
ENDBRANCH  20  21
ENDBRANCH  15  19
TORSDOF 3
