REMARK  Name = ZINC36595257
REMARK  17 active torsions:
REMARK  status: ('A' for Active; 'I' for Inactive)
REMARK    1  A    between atoms: C_1  and  C_2
REMARK    2  A    between atoms: C_5  and  C_7
REMARK    3  A    between atoms: C_7  and  N_8
REMARK    4  A    between atoms: N_8  and  C_9
REMARK    5  A    between atoms: C_9  and  C_11
REMARK    6  A    between atoms: C_9  and  C_18
REMARK    7  A    between atoms: C_14  and  O_17
REMARK    8  A    between atoms: N_20  and  C_21
REMARK    9  A    between atoms: C_21  and  C_22
REMARK   10  A    between atoms: C_21  and  C_23
REMARK   11  A    between atoms: C_21  and  C_24
REMARK   12  A    between atoms: C_24  and  C_25
REMARK   13  A    between atoms: C_25  and  C_26
REMARK   14  A    between atoms: C_25  and  C_27
REMARK   15  A    between atoms: C_25  and  C_28
REMARK   16  A    between atoms: C_29  and  C_31
REMARK   17  A    between atoms: C_36  and  O_37
REMARK                            x       y       z     vdW  Elec       q    Type
REMARK                         _______ _______ _______ _____ _____    ______ ____
ROOT
ATOM      1  C   UNL     1       2.548  -2.869  -1.106  0.00  0.00    +0.193 C 
ENDROOT
BRANCH   1   2
ATOM      2  C   UNL     1       3.832  -3.658  -1.094  0.00  0.00    -0.018 A 
ATOM      3  C   UNL     1       3.941  -4.809  -1.853  0.00  0.00    +0.009 A 
ATOM      4  C   UNL     1       5.116  -5.535  -1.844  0.00  0.00    +0.046 A 
ATOM      5  C   UNL     1       6.187  -5.109  -1.072  0.00  0.00    +0.117 A 
ATOM      6  C   UNL     1       6.075  -3.954  -0.311  0.00  0.00    +0.046 A 
ATOM      7  C   UNL     1       4.900  -3.229  -0.328  0.00  0.00    +0.009 A 
BRANCH   5   8
ATOM      8  O   UNL     1       7.344  -5.822  -1.061  0.00  0.00    -0.507 OA
ATOM      9  H   UNL     1       7.980  -5.551  -1.738  0.00  0.00    +0.292 HD
ENDBRANCH   5   8
ENDBRANCH   1   2
BRANCH   1  10
ATOM     10  C   UNL     1       2.724  -1.637  -1.956  0.00  0.00    +0.239 C 
ATOM     11  O   UNL     1       1.752  -1.045  -2.375  0.00  0.00    -0.273 OA
ATOM     12  N   UNL     1       3.962  -1.194  -2.253  0.00  0.00    -0.308 N 
ATOM     13  H   UNL     1       4.740  -1.667  -1.918  0.00  0.00    +0.149 HD
BRANCH  12  14
ATOM     14  C   UNL     1       4.133   0.003  -3.080  0.00  0.00    +0.030 C 
ATOM     15  C   UNL     1       3.710  -0.306  -4.517  0.00  0.00    +0.031 C 
ATOM     16  C   UNL     1       3.266   1.135  -2.525  0.00  0.00    +0.031 C 
BRANCH  14  17
ATOM     17  C   UNL     1       5.602   0.431  -3.061  0.00  0.00    +0.031 C 
BRANCH  17  18
ATOM     18  C   UNL     1       6.122   0.404  -1.622  0.00  0.00    -0.036 C 
ATOM     19  C   UNL     1       6.702  -0.978  -1.315  0.00  0.00    +0.010 C 
ATOM     20  C   UNL     1       7.213   1.464  -1.455  0.00  0.00    +0.010 C 
ATOM     21  C   UNL     1       4.972   0.700  -0.658  0.00  0.00    +0.010 C 
ENDBRANCH  17  18
ENDBRANCH  14  17
ENDBRANCH  12  14
ENDBRANCH   1  10
BRANCH   1  22
ATOM     22  N   UNL     1       1.472  -3.694  -1.658  0.00  0.00    -0.275 N 
ATOM     23  C   UNL     1       0.873  -4.624  -0.888  0.00  0.00    +0.251 C 
ATOM     24  O   UNL     1       0.021  -5.350  -1.363  0.00  0.00    -0.270 OA
BRANCH  23  25
ATOM     25  C   UNL     1       1.251  -4.761   0.531  0.00  0.00    +0.078 A 
ATOM     26  C   UNL     1       2.441  -4.198   0.999  0.00  0.00    +0.017 A 
ATOM     27  C   UNL     1       2.788  -4.330   2.326  0.00  0.00    +0.001 A 
ATOM     28  C   UNL     1       1.962  -5.018   3.200  0.00  0.00    +0.004 A 
ATOM     29  C   UNL     1       0.783  -5.579   2.751  0.00  0.00    +0.046 A 
ATOM     30  C   UNL     1       0.416  -5.452   1.419  0.00  0.00    +0.129 A 
BRANCH  30  31
ATOM     31  O   UNL     1      -0.745  -5.999   0.978  0.00  0.00    -0.506 OA
ATOM     32  H   UNL     1      -0.656  -6.909   0.664  0.00  0.00    +0.292 HD
ENDBRANCH  30  31
ENDBRANCH  23  25
BRANCH  22  33
ATOM     33  C   UNL     1       1.046  -3.509  -3.048  0.00  0.00    +0.183 C 
BRANCH  33  38
ATOM     34  C   UNL     1       4.771  -4.106  -6.396  0.00  0.00    +0.086 C 
ATOM     35  C   UNL     1       3.662  -4.423  -5.426  0.00  0.00    +0.102 A 
ATOM     36  C   UNL     1       3.226  -5.654  -5.105  0.00  0.00    +0.045 A 
ATOM     37  C   UNL     1       2.182  -5.487  -4.166  0.00  0.00    +0.046 A 
ATOM     38  C   UNL     1       2.042  -4.163  -3.970  0.00  0.00    +0.122 A 
ATOM     39  O   UNL     1       2.946  -3.524  -4.731  0.00  0.00    -0.463 OA
ENDBRANCH  33  38
ENDBRANCH  22  33
ENDBRANCH   1  22
TORSDOF 11
