REMARK  Name = ZINC59115579
REMARK  18 active torsions:
REMARK  status: ('A' for Active; 'I' for Inactive)
REMARK    1  A    between atoms: C_1  and  C_2
REMARK    2  A    between atoms: C_2  and  C_4
REMARK    3  A    between atoms: C_2  and  N_19
REMARK    4  A    between atoms: C_4  and  N_5
REMARK    5  A    between atoms: N_5  and  C_6
REMARK    6  A    between atoms: C_6  and  N_8
REMARK    7  A    between atoms: N_8  and  C_9
REMARK    8  A    between atoms: C_13  and  O_17
REMARK    9  A    between atoms: C_14  and  O_15
REMARK   10  A    between atoms: O_15  and  C_16
REMARK   11  A    between atoms: O_17  and  C_18
REMARK   12  A    between atoms: N_19  and  C_20
REMARK   13  A    between atoms: C_20  and  N_22
REMARK   14  A    between atoms: N_22  and  C_23
REMARK   15  A    between atoms: C_27  and  O_31
REMARK   16  A    between atoms: C_28  and  O_29
REMARK   17  A    between atoms: O_29  and  C_30
REMARK   18  A    between atoms: O_31  and  C_32
REMARK                            x       y       z     vdW  Elec       q    Type
REMARK                         _______ _______ _______ _____ _____    ______ ____
ROOT
ATOM      1  C   UNL     1      -0.091   0.868   0.095  0.00  0.00    +0.029 C 
ATOM      2  C   UNL     1      -0.000  -0.642  -0.136  0.00  0.00    +0.086 C 
ENDROOT
BRANCH   2   3
ATOM      3  N   UNL     1       0.564  -0.900  -1.463  0.00  0.00    -0.322 N 
ATOM      4  H   UNL     1       1.515  -1.061  -1.562  0.00  0.00    +0.148 HD
BRANCH   3   5
ATOM      5  C   UNL     1      -0.238  -0.913  -2.545  0.00  0.00    +0.135 C 
ATOM      6  S   UNL     1      -1.917  -0.628  -2.370  0.00  0.00    -0.019 S 
BRANCH   5   7
ATOM      7  N   UNL     1       0.281  -1.150  -3.766  0.00  0.00    -0.294 N 
ATOM      8  H   UNL     1       1.223  -1.360  -3.860  0.00  0.00    +0.154 HD
BRANCH   7   9
ATOM      9  C   UNL     1      -0.541  -1.094  -4.900  0.00  0.00    +0.079 A 
ATOM     10  C   UNL     1      -1.537  -0.131  -4.990  0.00  0.00    +0.027 A 
ATOM     11  C   UNL     1      -2.347  -0.075  -6.108  0.00  0.00    +0.006 A 
ATOM     12  C   UNL     1      -2.170  -0.977  -7.141  0.00  0.00    +0.049 A 
ATOM     13  C   UNL     1      -1.178  -1.942  -7.059  0.00  0.00    +0.163 A 
ATOM     14  C   UNL     1      -0.357  -2.000  -5.940  0.00  0.00    +0.183 A 
BRANCH  14  15
ATOM     15  O   UNL     1       0.621  -2.942  -5.858  0.00  0.00    -0.490 OA
ATOM     16  C   UNL     1       0.268  -4.194  -5.266  0.00  0.00    +0.277 C 
ENDBRANCH  14  15
BRANCH  13  17
ATOM     17  O   UNL     1      -1.005  -2.828  -8.076  0.00  0.00    -0.491 OA
ATOM     18  C   UNL     1      -1.882  -2.707  -9.198  0.00  0.00    +0.277 C 
ENDBRANCH  13  17
ENDBRANCH   7   9
ENDBRANCH   5   7
ENDBRANCH   3   5
ENDBRANCH   2   3
BRANCH   2  19
ATOM     19  C   UNL     1       0.900  -1.268   0.932  0.00  0.00    +0.125 C 
BRANCH  19  20
ATOM     20  N   UNL     1       1.083  -2.692   0.642  0.00  0.00    -0.325 N 
ATOM     21  H   UNL     1       0.657  -3.088  -0.135  0.00  0.00    +0.148 HD
BRANCH  20  22
ATOM     22  C   UNL     1       1.844  -3.452   1.454  0.00  0.00    +0.135 C 
ATOM     23  S   UNL     1       2.596  -2.754   2.824  0.00  0.00    -0.019 S 
BRANCH  22  24
ATOM     24  N   UNL     1       2.013  -4.763   1.187  0.00  0.00    -0.294 N 
ATOM     25  H   UNL     1       1.531  -5.174   0.452  0.00  0.00    +0.154 HD
BRANCH  24  26
ATOM     26  C   UNL     1       2.884  -5.531   1.971  0.00  0.00    +0.079 A 
ATOM     27  C   UNL     1       2.852  -5.423   3.355  0.00  0.00    +0.027 A 
ATOM     28  C   UNL     1       3.711  -6.180   4.128  0.00  0.00    +0.006 A 
ATOM     29  C   UNL     1       4.604  -7.048   3.529  0.00  0.00    +0.049 A 
ATOM     30  C   UNL     1       4.643  -7.163   2.147  0.00  0.00    +0.163 A 
ATOM     31  C   UNL     1       3.778  -6.407   1.365  0.00  0.00    +0.183 A 
BRANCH  31  32
ATOM     32  O   UNL     1       3.809  -6.520   0.009  0.00  0.00    -0.490 OA
ATOM     33  C   UNL     1       4.694  -5.647  -0.695  0.00  0.00    +0.277 C 
ENDBRANCH  31  32
BRANCH  30  34
ATOM     34  O   UNL     1       5.522  -8.017   1.559  0.00  0.00    -0.491 OA
ATOM     35  C   UNL     1       6.377  -8.766   2.426  0.00  0.00    +0.277 C 
ENDBRANCH  30  34
ENDBRANCH  24  26
ENDBRANCH  22  24
ENDBRANCH  20  22
ENDBRANCH  19  20
ENDBRANCH   2  19
TORSDOF 13
