REMARK  Name = ZINC34755956
REMARK  8 active torsions:
REMARK  status: ('A' for Active; 'I' for Inactive)
REMARK    1  A    between atoms: C_1  and  C_2
REMARK    2  A    between atoms: C_2  and  C_3
REMARK    3  A    between atoms: C_3  and  S_4
REMARK    4  A    between atoms: S_4  and  C_5
REMARK    5  A    between atoms: N_21  and  C_24
REMARK    6  A    between atoms: C_24  and  C_25
REMARK    7  A    between atoms: C_25  and  C_26
REMARK    8  A    between atoms: C_25  and  C_27
REMARK                            x       y       z     vdW  Elec       q    Type
REMARK                         _______ _______ _______ _____ _____    ______ ____
ROOT
ATOM      1  C   UNL     1       0.924  -2.867  -2.529  0.00  0.00    +0.191 A 
ATOM      2  N   UNL     1       1.247  -4.107  -2.878  0.00  0.00    -0.206 NA
ATOM      3  C   UNL     1       2.053  -4.363  -3.895  0.00  0.00    +0.134 A 
ATOM      4  C   UNL     1       2.595  -3.281  -4.643  0.00  0.00    +0.051 A 
ATOM      5  C   UNL     1       3.499  -3.326  -5.795  0.00  0.00    -0.025 A 
ATOM      6  C   UNL     1       3.869  -2.145  -6.329  0.00  0.00    -0.004 A 
ATOM      7  S   UNL     1       3.048  -0.917  -5.348  0.00  0.00    -0.073 S 
ATOM      8  C   UNL     1       2.208  -1.995  -4.218  0.00  0.00    +0.115 A 
ATOM      9  N   UNL     1       1.395  -1.821  -3.194  0.00  0.00    -0.215 NA
ATOM     10  C   UNL     1       4.778  -1.923  -7.499  0.00  0.00    +0.043 C 
ATOM     11  C   UNL     1       5.533  -3.229  -7.781  0.00  0.00    +0.005 C 
ATOM     12  C   UNL     1       4.527  -4.384  -7.795  0.00  0.00    +0.005 C 
ATOM     13  C   UNL     1       4.012  -4.640  -6.378  0.00  0.00    +0.037 C 
ATOM     14  N   UNL     1       2.366  -5.669  -4.227  0.00  0.00    -0.318 N 
ATOM     15  C   UNL     1       3.596  -6.302  -3.728  0.00  0.00    +0.088 C 
ATOM     16  C   UNL     1       3.228  -7.654  -3.107  0.00  0.00    -0.060 C 
ATOM     17  N   UNL     1       2.489  -8.457  -4.088  0.00  0.00    +0.382 N 
ATOM     18  C   UNL     1       1.210  -7.808  -4.404  0.00  0.00    -0.060 C 
ATOM     19  C   UNL     1       1.475  -6.465  -5.085  0.00  0.00    +0.088 C 
ATOM     20  H   UNL     1       3.037  -8.546  -4.930  0.00  0.00    -0.082 HD
ENDROOT
BRANCH   1  21
ATOM     21  S   UNL     1      -0.156  -2.608  -1.161  0.00  0.00    -0.086 S 
BRANCH  21  22
ATOM     22  C   UNL     1      -0.316  -0.804  -1.063  0.00  0.00    +0.077 C 
BRANCH  22  24
ATOM     23  C   UNL     1      -1.375   1.086   0.181  0.00  0.00    +0.004 C 
ATOM     24  C   UNL     1      -1.240  -0.436   0.099  0.00  0.00    +0.008 C 
ENDBRANCH  22  24
ENDBRANCH  21  22
ENDBRANCH   1  21
BRANCH  17  25
ATOM     25  C   UNL     1       2.232  -9.793  -3.532  0.00  0.00    -0.076 C 
BRANCH  25  26
ATOM     26  C   UNL     1       3.560 -10.531  -3.346  0.00  0.00    -0.034 C 
ATOM     27  C   UNL     1       3.306 -11.867  -2.643  0.00  0.00    +0.005 C 
ATOM     28  C   UNL     1       4.197 -10.787  -4.713  0.00  0.00    +0.005 C 
ENDBRANCH  25  26
ENDBRANCH  17  25
TORSDOF 5
