REMARK  Name = ZINC38965802
REMARK  5 active torsions:
REMARK  status: ('A' for Active; 'I' for Inactive)
REMARK    1  A    between atoms: C_1  and  C_2
REMARK    2  A    between atoms: C_5  and  O_8
REMARK    3  A    between atoms: O_8  and  C_9
REMARK    4  A    between atoms: C_9  and  C_10
REMARK    5  A    between atoms: C_13  and  C_19
REMARK                            x       y       z     vdW  Elec       q    Type
REMARK                         _______ _______ _______ _____ _____    ______ ____
ROOT
ATOM      1  C   UNL     1       0.090  -6.277   1.043  0.00  0.00    +0.137 C 
ATOM      2  N   UNL     1       0.098  -6.942  -0.067  0.00  0.00    -0.170 NA
ATOM      3  N   UNL     1       0.115  -8.332  -0.086  0.00  0.00    -0.175 N 
ATOM      4  C   UNL     1       0.129  -9.435  -1.081  0.00  0.00    +0.230 C 
ATOM      5  N   UNL     1       0.143 -10.662  -0.271  0.00  0.00    -0.242 N 
ATOM      6  N   UNL     1       0.138 -10.244   1.066  0.00  0.00    -0.161 NA
ATOM      7  C   UNL     1       0.123  -8.961   1.152  0.00  0.00    +0.201 C 
ATOM      8  S   UNL     1       0.114  -7.574   2.270  0.00  0.00    -0.031 S 
ATOM      9  H   UNL     1       0.154 -11.575  -0.596  0.00  0.00    +0.170 HD
ENDROOT
BRANCH   4  10
ATOM     10  C   UNL     1       1.383  -9.352  -1.952  0.00  0.00    +0.197 C 
ATOM     11  C   UNL     1       1.375 -10.437  -3.009  0.00  0.00    -0.017 C 
ATOM     12  C   UNL     1       2.451 -11.176  -2.746  0.00  0.00    +0.065 C 
ATOM     13  C   UNL     1       2.555 -12.310  -3.750  0.00  0.00    +0.057 C 
ATOM     14  C   UNL     1       1.156 -12.406  -4.396  0.00  0.00    +0.011 C 
ATOM     15  C   UNL     1       0.623 -10.968  -4.203  0.00  0.00    +0.035 C 
ATOM     16  N   UNL     1       3.104 -10.673  -1.663  0.00  0.00    -0.158 NA
ATOM     17  N   UNL     1       2.587  -9.667  -1.165  0.00  0.00    -0.176 NA
ENDBRANCH   4  10
BRANCH   1  18
ATOM     18  C   UNL     1       0.072  -4.785   1.249  0.00  0.00    +0.293 C 
BRANCH  18  19
ATOM     19  O   UNL     1       0.057  -4.129  -0.021  0.00  0.00    -0.485 OA
BRANCH  19  24
ATOM     20  C   UNL     1      -0.018   1.503   0.010  0.00  0.00    +0.044 C 
ATOM     21  C   UNL     1       0.002  -0.004   0.002  0.00  0.00    -0.050 A 
ATOM     22  C   UNL     1       0.006  -0.688  -1.200  0.00  0.00    +0.007 A 
ATOM     23  C   UNL     1       0.024  -2.069  -1.210  0.00  0.00    +0.046 A 
ATOM     24  C   UNL     1       0.039  -2.770  -0.013  0.00  0.00    +0.121 A 
ATOM     25  C   UNL     1       0.036  -2.082   1.191  0.00  0.00    +0.046 A 
ATOM     26  C   UNL     1       0.023  -0.701   1.196  0.00  0.00    +0.007 A 
ENDBRANCH  19  24
ENDBRANCH  18  19
ENDBRANCH   1  18
TORSDOF 4
