REMARK  Name = ZINC00718905
REMARK  5 active torsions:
REMARK  status: ('A' for Active; 'I' for Inactive)
REMARK    1  A    between atoms: C_4  and  C_7
REMARK    2  A    between atoms: C_7  and  N_8
REMARK    3  A    between atoms: C_17  and  C_26
REMARK    4  A    between atoms: C_17  and  C_30
REMARK    5  A    between atoms: C_18  and  C_20
REMARK                            x       y       z     vdW  Elec       q    Type
REMARK                         _______ _______ _______ _____ _____    ______ ____
ROOT
ATOM      1  N   UNL     1       2.413  -0.866   0.621  0.00  0.00    -0.277 N 
ATOM      2  C   UNL     1       1.137  -1.270   0.319  0.00  0.00    +0.120 A 
ATOM      3  C   UNL     1       0.118  -0.364   0.340  0.00  0.00    +0.098 A 
ATOM      4  C   UNL     1       0.400   0.969   0.682  0.00  0.00    +0.262 A 
ATOM      5  O   UNL     1      -0.494   1.798   0.709  0.00  0.00    -0.267 OA
ATOM      6  N   UNL     1       1.666   1.326   0.975  0.00  0.00    -0.275 N 
ATOM      7  H   UNL     1       1.870   2.274   1.219  0.00  0.00    +0.173 HD
ATOM      8  C   UNL     1       2.659   0.418   0.943  0.00  0.00    +0.331 A 
ATOM      9  O   UNL     1       3.794   0.762   1.209  0.00  0.00    -0.246 OA
ATOM     10  C   UNL     1      -1.284  -0.780  -0.002  0.00  0.00    +0.264 C 
ATOM     11  C   UNL     1      -0.425  -3.041   0.032  0.00  0.00    +0.125 C 
ATOM     12  N   UNL     1       0.875  -2.580  -0.005  0.00  0.00    -0.285 N 
ATOM     13  H   UNL     1       1.598  -3.175  -0.258  0.00  0.00    +0.155 HD
ATOM     14  N   UNL     1      -1.515  -2.268   0.041  0.00  0.00    -0.347 N 
ATOM     15  H   UNL     1      -2.460  -2.667   0.075  0.00  0.00    +0.162 HD
ENDROOT
BRANCH  11  16
ATOM     16  C   UNL     1      -0.674  -4.502   0.066  0.00  0.00    +0.102 A 
ATOM     17  C   UNL     1      -1.983  -4.979   0.103  0.00  0.00    +0.031 A 
ATOM     18  C   UNL     1      -2.200  -6.347   0.135  0.00  0.00    +0.004 A 
ATOM     19  C   UNL     1      -1.100  -7.192   0.128  0.00  0.00    +0.020 A 
ATOM     20  C   UNL     1       0.173  -6.648   0.090  0.00  0.00    +0.111 A 
ATOM     21  N   UNL     1       0.350  -5.345   0.055  0.00  0.00    -0.252 NA
ENDBRANCH  11  16
BRANCH  10  22
ATOM     22  C   UNL     1      -2.252  -0.151   1.002  0.00  0.00    +0.426 C 
ATOM     23  F   UNL     1      -2.414   1.207   0.705  0.00  0.00    -0.167 F 
ATOM     24  F   UNL     1      -3.491  -0.796   0.922  0.00  0.00    -0.167 F 
ATOM     25  F   UNL     1      -1.737  -0.288   2.295  0.00  0.00    -0.167 F 
ENDBRANCH  10  22
BRANCH  10  26
ATOM     26  C   UNL     1      -1.626  -0.280  -1.407  0.00  0.00    +0.426 C 
ATOM     27  F   UNL     1      -0.733  -0.835  -2.330  0.00  0.00    -0.167 F 
ATOM     28  F   UNL     1      -2.931  -0.664  -1.733  0.00  0.00    -0.167 F 
ATOM     29  F   UNL     1      -1.528   1.115  -1.442  0.00  0.00    -0.167 F 
ENDBRANCH  10  26
BRANCH   1  30
ATOM     30  C   UNL     1       3.512  -1.835   0.594  0.00  0.00    +0.163 C 
BRANCH  30  34
ATOM     31  C   UNL     1       5.233  -1.930  -3.314  0.00  0.00    +0.000 A 
ATOM     32  C   UNL     1       5.722  -1.053  -2.365  0.00  0.00    +0.000 A 
ATOM     33  C   UNL     1       5.165  -1.022  -1.100  0.00  0.00    +0.005 A 
ATOM     34  C   UNL     1       4.119  -1.868  -0.785  0.00  0.00    -0.028 A 
ATOM     35  C   UNL     1       3.633  -2.749  -1.732  0.00  0.00    +0.005 A 
ATOM     36  C   UNL     1       4.187  -2.777  -2.999  0.00  0.00    +0.000 A 
ENDBRANCH  30  34
ENDBRANCH   1  30
TORSDOF 5
