REMARK  Name = ZINC09408660
REMARK  14 active torsions:
REMARK  status: ('A' for Active; 'I' for Inactive)
REMARK    1  A    between atoms: C_1  and  C_2
REMARK    2  A    between atoms: C_5  and  C_8
REMARK    3  A    between atoms: C_8  and  N_65
REMARK    4  A    between atoms: C_9  and  C_10
REMARK    5  A    between atoms: C_9  and  N_65
REMARK    6  A    between atoms: C_10  and  C_12
REMARK    7  A    between atoms: C_10  and  O_34
REMARK    8  A    between atoms: C_12  and  O_13
REMARK    9  A    between atoms: O_13  and  C_14
REMARK   10  A    between atoms: C_20  and  C_31
REMARK   11  A    between atoms: C_21  and  C_30
REMARK   12  A    between atoms: N_22  and  C_23
REMARK   13  A    between atoms: C_26  and  C_29
REMARK   14  A    between atoms: C_31  and  C_33
REMARK                            x       y       z     vdW  Elec       q    Type
REMARK                         _______ _______ _______ _____ _____    ______ ____
ROOT
ATOM      1  C   UNL     1       1.472  -2.553  -2.254  0.00  0.00    +0.121 A 
ATOM      2  C   UNL     1       2.078  -1.778  -3.239  0.00  0.00    +0.048 A 
ATOM      3  C   UNL     1       2.589  -2.365  -4.376  0.00  0.00    +0.030 A 
ATOM      4  C   UNL     1       2.491  -3.742  -4.553  0.00  0.00    +0.055 A 
ATOM      5  C   UNL     1       1.875  -4.522  -3.562  0.00  0.00    +0.014 A 
ATOM      6  C   UNL     1       1.367  -3.922  -2.414  0.00  0.00    +0.056 A 
ATOM      7  C   UNL     1       1.934  -5.915  -4.047  0.00  0.00    +0.046 A 
ATOM      8  C   UNL     1       2.569  -5.872  -5.271  0.00  0.00    +0.032 A 
ATOM      9  N   UNL     1       2.896  -4.593  -5.566  0.00  0.00    -0.313 N 
ATOM     10  C   UNL     1       2.854  -7.067  -6.144  0.00  0.00    +0.064 C 
ENDROOT
BRANCH   9  11
ATOM     11  C   UNL     1       3.552  -4.186  -6.734  0.00  0.00    +0.047 A 
ATOM     12  C   UNL     1       4.822  -3.628  -6.660  0.00  0.00    +0.026 A 
ATOM     13  C   UNL     1       5.470  -3.234  -7.815  0.00  0.00    +0.005 A 
ATOM     14  C   UNL     1       4.850  -3.384  -9.042  0.00  0.00    -0.050 A 
ATOM     15  C   UNL     1       3.584  -3.933  -9.118  0.00  0.00    +0.005 A 
ATOM     16  C   UNL     1       2.933  -4.335  -7.968  0.00  0.00    +0.026 A 
ATOM     17  C   UNL     1       5.558  -2.947 -10.299  0.00  0.00    +0.044 C 
ENDBRANCH   9  11
BRANCH   7  18
ATOM     18  C   UNL     1       1.438  -7.067  -3.387  0.00  0.00    +0.162 C 
ATOM     19  O   UNL     1       2.155  -7.690  -2.631  0.00  0.00    -0.292 OA
ATOM     20  C   UNL     1       0.019  -7.518  -3.623  0.00  0.00    +0.091 C 
ENDBRANCH   7  18
BRANCH   1  21
ATOM     21  O   UNL     1       0.977  -1.960  -1.135  0.00  0.00    -0.489 OA
BRANCH  21  22
ATOM     22  C   UNL     1       1.120  -0.542  -1.034  0.00  0.00    +0.258 C 
BRANCH  22  23
ATOM     23  C   UNL     1       0.508  -0.060   0.283  0.00  0.00    +0.135 C 
BRANCH  23  24
ATOM     24  O   UNL     1       1.256  -0.593   1.378  0.00  0.00    -0.390 OA
ATOM     25  H   UNL     1       2.187  -0.332   1.383  0.00  0.00    +0.210 HD
ENDBRANCH  23  24
BRANCH  23  26
ATOM     26  C   UNL     1       0.548   1.469   0.335  0.00  0.00    -0.047 C 
BRANCH  26  27
ATOM     27  N   UNL     1      -0.042   1.925   1.607  0.00  0.00    +0.383 N 
ATOM     28  H   UNL     1      -1.014   1.599   1.665  0.00  0.00    -0.085 HD
ATOM     29  H   UNL     1       0.496   1.535   2.389  0.00  0.00    -0.085 HD
BRANCH  27  30
ATOM     30  C   UNL     1      -0.017   3.398   1.684  0.00  0.00    -0.047 C 
BRANCH  30  35
ATOM     31  C   UNL     1      -2.351   5.072   6.699  0.00  0.00    +0.044 C 
ATOM     32  C   UNL     1      -1.742   4.636   5.391  0.00  0.00    -0.050 A 
ATOM     33  C   UNL     1      -0.384   4.389   5.309  0.00  0.00    +0.003 A 
ATOM     34  C   UNL     1       0.174   3.989   4.109  0.00  0.00    +0.002 A 
ATOM     35  C   UNL     1      -0.626   3.834   2.992  0.00  0.00    -0.064 A 
ATOM     36  C   UNL     1      -1.982   4.086   3.073  0.00  0.00    +0.002 A 
ATOM     37  C   UNL     1      -2.542   4.482   4.274  0.00  0.00    +0.003 A 
ENDBRANCH  30  35
ENDBRANCH  27  30
ENDBRANCH  26  27
ENDBRANCH  23  26
ENDBRANCH  22  23
ENDBRANCH  21  22
ENDBRANCH   1  21
TORSDOF 10
