REMARK  Name = ZINC39737231
REMARK  6 active torsions:
REMARK  status: ('A' for Active; 'I' for Inactive)
REMARK    1  A    between atoms: C_7  and  C_10
REMARK    2  A    between atoms: C_10  and  C_11
REMARK    3  A    between atoms: C_11  and  N_12
REMARK    4  A    between atoms: C_13  and  C_15
REMARK    5  A    between atoms: C_15  and  N_16
REMARK    6  A    between atoms: C_20  and  C_23
REMARK                            x       y       z     vdW  Elec       q    Type
REMARK                         _______ _______ _______ _____ _____    ______ ____
ROOT
ATOM      1  C   UNL     1      -5.660   7.126  -2.507  0.00  0.00    +0.019 C 
ENDROOT
BRANCH   1   2
ATOM      2  N   UNL     1      -5.736   7.634  -3.883  0.00  0.00    +0.386 N 
ATOM      3  C   UNL     1      -4.382   7.734  -4.441  0.00  0.00    -0.078 C 
ATOM      4  C   UNL     1      -4.460   8.185  -5.901  0.00  0.00    -0.018 C 
ATOM      5  C   UNL     1      -5.145   9.553  -5.971  0.00  0.00    +0.002 C 
ATOM      6  C   UNL     1      -6.527   9.454  -5.320  0.00  0.00    +0.003 C 
ATOM      7  C   UNL     1      -6.373   8.956  -3.881  0.00  0.00    -0.072 C 
ATOM      8  H   UNL     1      -6.283   6.999  -4.445  0.00  0.00    -0.081 HD
BRANCH   6   9
ATOM      9  C   UNL     1      -7.190  10.833  -5.315  0.00  0.00    +0.135 C 
ATOM     10  N   UNL     1      -7.278  11.382  -6.675  0.00  0.00    -0.331 N 
ATOM     11  C   UNL     1      -6.594  12.568  -6.937  0.00  0.00    +0.042 A 
ATOM     12  C   UNL     1      -6.562  13.239  -8.173  0.00  0.00    +0.024 A 
ATOM     13  C   UNL     1      -5.855  14.408  -8.331  0.00  0.00    +0.002 A 
ATOM     14  C   UNL     1      -5.151  14.964  -7.279  0.00  0.00    +0.001 A 
ATOM     15  C   UNL     1      -5.164  14.326  -6.051  0.00  0.00    +0.016 A 
ATOM     16  C   UNL     1      -5.873  13.156  -5.894  0.00  0.00    +0.031 A 
ATOM     17  S   UNL     1      -6.116  12.080  -4.497  0.00  0.00    -0.101 S 
ATOM     18  H   UNL     1      -7.792  10.935  -7.366  0.00  0.00    +0.147 HD
ENDBRANCH   6   9
ENDBRANCH   1   2
BRANCH   1  20
ATOM     19  N   UNL     1      -4.962   5.047  -1.362  0.00  0.00    -0.317 N 
ATOM     20  C   UNL     1      -5.120   5.719  -2.519  0.00  0.00    +0.196 C 
ATOM     21  O   UNL     1      -4.826   5.191  -3.571  0.00  0.00    -0.278 OA
ATOM     22  H   UNL     1      -5.197   5.469  -0.520  0.00  0.00    +0.149 HD
BRANCH  19  23
ATOM     23  C   UNL     1      -4.437   3.680  -1.374  0.00  0.00    +0.109 C 
BRANCH  23  24
ATOM     24  C   UNL     1      -4.358   3.151   0.060  0.00  0.00    +0.056 C 
BRANCH  24  31
ATOM     25  C   UNL     1      -0.017   1.384   0.010  0.00  0.00    +0.001 A 
ATOM     26  C   UNL     1       0.002  -0.004   0.002  0.00  0.00    +0.002 A 
ATOM     27  C   UNL     1      -1.173  -0.723   0.009  0.00  0.00    +0.026 A 
ATOM     28  C   UNL     1      -2.392  -0.053   0.024  0.00  0.00    +0.047 A 
ATOM     29  N   UNL     1      -3.704  -0.472   0.034  0.00  0.00    -0.360 N 
ATOM     30  C   UNL     1      -4.539   0.612   0.047  0.00  0.00    +0.087 A 
ATOM     31  C   UNL     1      -3.818   1.744   0.047  0.00  0.00    -0.021 A 
ATOM     32  C   UNL     1      -2.406   1.353   0.032  0.00  0.00    +0.003 A 
ATOM     33  C   UNL     1      -1.203   2.062   0.030  0.00  0.00    +0.010 A 
ATOM     34  H   UNL     1      -3.993  -1.398   0.030  0.00  0.00    +0.165 HD
ENDBRANCH  24  31
ENDBRANCH  23  24
ENDBRANCH  19  23
ENDBRANCH   1  20
TORSDOF 6
