REMARK  Name = ZINC09731582
REMARK  6 active torsions:
REMARK  status: ('A' for Active; 'I' for Inactive)
REMARK    1  A    between atoms: C_1  and  C_2
REMARK    2  A    between atoms: C_2  and  C_4
REMARK    3  A    between atoms: C_2  and  S_19
REMARK    4  A    between atoms: N_6  and  C_7
REMARK    5  A    between atoms: C_8  and  C_17
REMARK    6  A    between atoms: S_19  and  C_20
REMARK                            x       y       z     vdW  Elec       q    Type
REMARK                         _______ _______ _______ _____ _____    ______ ____
ROOT
ATOM      1  C   UNL     1      -2.006  -1.826  -0.112  0.00  0.00    +0.231 C 
ATOM      2  O   UNL     1      -1.147  -2.606   0.240  0.00  0.00    -0.274 OA
ATOM      3  N   UNL     1      -3.167  -2.287  -0.620  0.00  0.00    -0.278 N 
ATOM      4  H   UNL     1      -3.854  -1.663  -0.902  0.00  0.00    +0.155 HD
ENDROOT
BRANCH   3   5
ATOM      5  C   UNL     1      -3.378  -3.653  -0.739  0.00  0.00    +0.090 A 
ATOM      6  C   UNL     1      -4.493  -4.312  -1.231  0.00  0.00    +0.084 A 
ATOM      7  C   UNL     1      -4.466  -5.768  -1.253  0.00  0.00    -0.018 A 
ATOM      8  C   UNL     1      -3.333  -6.323  -0.770  0.00  0.00    -0.004 A 
ATOM      9  S   UNL     1      -2.310  -4.949  -0.316  0.00  0.00    -0.077 S 
ATOM     10  C   UNL     1      -3.008  -7.779  -0.645  0.00  0.00    +0.043 C 
ATOM     11  C   UNL     1      -3.317  -8.481  -1.974  0.00  0.00    +0.005 C 
ATOM     12  C   UNL     1      -4.768  -8.952  -1.946  0.00  0.00    +0.001 C 
ATOM     13  C   UNL     1      -5.622  -7.977  -1.139  0.00  0.00    +0.005 C 
ATOM     14  C   UNL     1      -5.622  -6.599  -1.794  0.00  0.00    +0.037 C 
BRANCH   6  15
ATOM     15  C   UNL     1      -5.633  -3.586  -1.703  0.00  0.00    +0.102 C 
ATOM     16  N   UNL     1      -6.538  -3.010  -2.078  0.00  0.00    -0.191 NA
ENDBRANCH   6  15
ENDBRANCH   3   5
BRANCH   1  18
ATOM     17  C   UNL     1      -2.378   0.154   1.333  0.00  0.00    +0.029 C 
ATOM     18  C   UNL     1      -1.776  -0.343   0.017  0.00  0.00    +0.137 C 
BRANCH  18  19
ATOM     19  S   UNL     1       0.002  -0.004   0.002  0.00  0.00    -0.075 S 
BRANCH  19  20
ATOM     20  C   UNL     1      -0.022   1.758   0.012  0.00  0.00    +0.169 A 
ATOM     21  N   UNL     1       1.086   2.559   0.005  0.00  0.00    -0.318 N 
ATOM     22  H   UNL     1       2.038   2.252  -0.005  0.00  0.00    +0.169 HD
ATOM     23  C   UNL     1       0.648   3.870   0.016  0.00  0.00    +0.159 A 
ATOM     24  C   UNL     1      -0.757   3.809   0.028  0.00  0.00    +0.110 A 
ATOM     25  N   UNL     1      -1.105   2.496   0.020  0.00  0.00    -0.220 NA
ATOM     26  C   UNL     1      -1.487   5.000   0.041  0.00  0.00    +0.053 A 
ATOM     27  C   UNL     1      -0.787   6.195   0.040  0.00  0.00    +0.061 A 
ATOM     28  C   UNL     1       0.598   6.174   0.028  0.00  0.00    +0.133 A 
ATOM     29  N   UNL     1       1.267   5.038   0.016  0.00  0.00    -0.234 NA
ATOM     30 CL   UNL     1      -1.639   7.707   0.055  0.00  0.00    -0.082 Cl
ENDBRANCH  19  20
ENDBRANCH  18  19
ENDBRANCH   1  18
TORSDOF 5
