REMARK  Name = ZINC05530189
REMARK  5 active torsions:
REMARK  status: ('A' for Active; 'I' for Inactive)
REMARK    1  A    between atoms: C_1  and  C_2
REMARK    2  A    between atoms: C_8  and  O_14
REMARK    3  A    between atoms: O_14  and  C_15
REMARK    4  A    between atoms: C_15  and  C_17
REMARK    5  A    between atoms: C_20  and  N_23
REMARK                            x       y       z     vdW  Elec       q    Type
REMARK                         _______ _______ _______ _____ _____    ______ ____
ROOT
ATOM      1  C   UNL     1      -4.935  -0.273   0.402  0.00  0.00    +0.044 C 
ATOM      2  C   UNL     1      -3.592  -0.939   0.246  0.00  0.00    -0.050 A 
ATOM      3  C   UNL     1      -3.514  -2.323   0.177  0.00  0.00    +0.005 A 
ATOM      4  C   UNL     1      -2.297  -2.952   0.034  0.00  0.00    +0.026 A 
ATOM      5  C   UNL     1      -1.133  -2.194  -0.042  0.00  0.00    +0.053 A 
ATOM      6  C   UNL     1      -1.216  -0.792   0.028  0.00  0.00    +0.041 A 
ATOM      7  C   UNL     1      -2.461  -0.175   0.173  0.00  0.00    +0.017 A 
ATOM      8  C   UNL     1       0.019  -0.002  -0.053  0.00  0.00    +0.146 A 
ATOM      9  C   UNL     1       1.204  -0.665  -0.200  0.00  0.00    +0.117 A 
ATOM     10  C   UNL     1       1.226  -2.068  -0.259  0.00  0.00    +0.253 A 
ATOM     11  O   UNL     1       2.296  -2.639  -0.386  0.00  0.00    -0.268 OA
ATOM     12  N   UNL     1       0.100  -2.797  -0.185  0.00  0.00    -0.322 N 
ATOM     13  H   UNL     1       0.156  -3.795  -0.235  0.00  0.00    +0.169 HD
ENDROOT
BRANCH   8  14
ATOM     14  O   UNL     1      -0.016   1.350   0.009  0.00  0.00    -0.422 OA
BRANCH  14  15
ATOM     15  C   UNL     1      -0.394   1.898   1.182  0.00  0.00    +0.344 C 
ATOM     16  O   UNL     1      -0.591   1.190   2.148  0.00  0.00    -0.245 OA
BRANCH  15  17
ATOM     17  C   UNL     1      -0.569   3.361   1.290  0.00  0.00    +0.060 A 
ATOM     18  C   UNL     1      -0.337   4.179   0.183  0.00  0.00    +0.017 A 
ATOM     19  C   UNL     1      -0.507   5.544   0.290  0.00  0.00    +0.033 A 
ATOM     20  C   UNL     1      -0.894   6.103   1.495  0.00  0.00    +0.126 A 
ATOM     21  C   UNL     1      -1.120   5.299   2.598  0.00  0.00    +0.033 A 
ATOM     22  C   UNL     1      -0.960   3.932   2.503  0.00  0.00    +0.017 A 
BRANCH  20  23
ATOM     23  N   UNL     1      -1.068   7.569   1.604  0.00  0.00    +0.056 N 
ATOM     24  O   UNL     1      -1.409   8.065   2.663  0.00  0.00    -0.126 OA
ATOM     25  O   UNL     1      -0.870   8.280   0.635  0.00  0.00    -0.126 OA
ENDBRANCH  20  23
ENDBRANCH  15  17
ENDBRANCH  14  15
ENDBRANCH   8  14
TORSDOF 4
