REMARK  Name = ZINC37393071
REMARK  4 active torsions:
REMARK  status: ('A' for Active; 'I' for Inactive)
REMARK    1  A    between atoms: C_3  and  S_8
REMARK    2  A    between atoms: C_6  and  O_7
REMARK    3  A    between atoms: S_8  and  N_11
REMARK    4  A    between atoms: N_11  and  C_12
REMARK                            x       y       z     vdW  Elec       q    Type
REMARK                         _______ _______ _______ _____ _____    ______ ____
ROOT
ATOM      1  S   UNL     1       3.890   2.317  -0.023  0.00  0.00    +0.092 S 
ATOM      2  O   UNL     1       4.872   1.459  -0.588  0.00  0.00    -0.148 OA
ATOM      3  O   UNL     1       3.595   3.597  -0.565  0.00  0.00    -0.148 OA
ENDROOT
BRANCH   1   6
ATOM      4  C   UNL     1      -0.017   1.383   0.010  0.00  0.00    +0.047 A 
ATOM      5  C   UNL     1       1.171   2.089   0.002  0.00  0.00    +0.032 A 
ATOM      6  C   UNL     1       2.377   1.414  -0.013  0.00  0.00    +0.111 A 
ATOM      7  C   UNL     1       2.399   0.031  -0.021  0.00  0.00    +0.032 A 
ATOM      8  C   UNL     1       1.214  -0.679  -0.013  0.00  0.00    +0.047 A 
ATOM      9  C   UNL     1       0.002  -0.004   0.002  0.00  0.00    +0.117 A 
BRANCH   9  10
ATOM     10  O   UNL     1      -1.165  -0.701   0.010  0.00  0.00    -0.507 OA
ATOM     11  H   UNL     1      -1.511  -0.897  -0.871  0.00  0.00    +0.292 HD
ENDBRANCH   9  10
ENDBRANCH   1   6
BRANCH   1  12
ATOM     12  N   UNL     1       4.326   2.560   1.556  0.00  0.00    -0.094 NA
BRANCH  12  13
ATOM     13  C   UNL     1       5.502   3.259   1.858  0.00  0.00    +0.123 A 
ATOM     14  C   UNL     1       6.301   3.753   0.834  0.00  0.00    +0.152 A 
ATOM     15  C   UNL     1       7.461   4.442   1.135  0.00  0.00    +0.078 A 
ATOM     16  C   UNL     1       7.827   4.640   2.457  0.00  0.00    +0.127 A 
ATOM     17  C   UNL     1       7.033   4.147   3.478  0.00  0.00    +0.055 A 
ATOM     18  C   UNL     1       5.868   3.463   3.182  0.00  0.00    +0.048 A 
ATOM     19 BR   UNL     1       4.780   2.798   4.578  0.00  0.00    -0.048 Br
ATOM     20  F   UNL     1       8.961   5.313   2.749  0.00  0.00    -0.205 F 
ATOM     21  F   UNL     1       5.945   3.561  -0.455  0.00  0.00    -0.203 F 
ENDBRANCH  12  13
ENDBRANCH   1  12
TORSDOF 4
