REMARK  Name = ZINC13388461
REMARK  15 active torsions:
REMARK  status: ('A' for Active; 'I' for Inactive)
REMARK    1  A    between atoms: C_1  and  C_2
REMARK    2  A    between atoms: C_2  and  C_3
REMARK    3  A    between atoms: C_3  and  C_5
REMARK    4  A    between atoms: C_3  and  O_6
REMARK    5  A    between atoms: O_6  and  C_7
REMARK    6  A    between atoms: C_7  and  C_9
REMARK    7  A    between atoms: C_10  and  C_40
REMARK    8  A    between atoms: C_14  and  C_16
REMARK    9  A    between atoms: C_19  and  S_22
REMARK   10  A    between atoms: S_22  and  C_23
REMARK   11  A    between atoms: C_27  and  C_30
REMARK   12  A    between atoms: C_33  and  O_38
REMARK   13  A    between atoms: C_34  and  O_36
REMARK   14  A    between atoms: O_36  and  C_37
REMARK   15  A    between atoms: O_38  and  C_39
REMARK                            x       y       z     vdW  Elec       q    Type
REMARK                         _______ _______ _______ _____ _____    ______ ____
ROOT
ATOM      1  C   UNL     1      -9.389  -4.458   1.512  0.00  0.00    +0.154 C 
ATOM      2  C   UNL     1      -8.656  -4.060   2.566  0.00  0.00    +0.031 C 
ATOM      3  N   UNL     1      -7.676  -3.119   2.413  0.00  0.00    -0.260 NA
ATOM      4  C   UNL     1      -7.150  -2.854   1.178  0.00  0.00    +0.049 C 
ATOM      5  C   UNL     1      -7.816  -3.207   0.059  0.00  0.00    +0.025 C 
ATOM      6  C   UNL     1      -9.162  -3.883   0.145  0.00  0.00    +0.073 C 
ATOM      7  C   UNL     1      -7.278  -2.957  -1.216  0.00  0.00    +0.162 C 
ATOM      8  O   UNL     1      -7.909  -3.280  -2.203  0.00  0.00    -0.292 OA
ATOM      9  C   UNL     1      -5.936  -2.298  -1.379  0.00  0.00    +0.088 C 
ATOM     10  C   UNL     1      -5.069  -2.619  -0.157  0.00  0.00    +0.032 C 
ATOM     11  C   UNL     1      -5.812  -2.159   1.102  0.00  0.00    +0.064 C 
ATOM     12  C   UNL     1      -8.917  -4.654   3.926  0.00  0.00    +0.061 C 
ENDROOT
BRANCH   6  13
ATOM     13  C   UNL     1     -10.242  -2.874  -0.152  0.00  0.00    -0.039 A 
ATOM     14  C   UNL     1     -10.378  -1.754   0.647  0.00  0.00    +0.005 A 
ATOM     15  C   UNL     1     -11.363  -0.825   0.376  0.00  0.00    +0.015 A 
ATOM     16  C   UNL     1     -12.225  -1.023  -0.696  0.00  0.00    +0.008 A 
ATOM     17  C   UNL     1     -12.089  -2.153  -1.494  0.00  0.00    +0.015 A 
ATOM     18  C   UNL     1     -11.098  -3.074  -1.220  0.00  0.00    +0.005 A 
BRANCH  16  19
ATOM     19  S   UNL     1     -13.489   0.155  -1.042  0.00  0.00    -0.129 S 
ATOM     20  C   UNL     1     -13.272   1.420   0.240  0.00  0.00    +0.090 C 
ENDBRANCH  16  19
ENDBRANCH   6  13
BRANCH  10  21
ATOM     21  C   UNL     1      -3.755  -1.890  -0.263  0.00  0.00    -0.040 A 
ATOM     22  C   UNL     1      -3.736  -0.510  -0.340  0.00  0.00    +0.008 A 
ATOM     23  C   UNL     1      -2.532   0.164  -0.430  0.00  0.00    +0.049 A 
ATOM     24  C   UNL     1      -1.342  -0.544  -0.457  0.00  0.00    +0.161 A 
ATOM     25  C   UNL     1      -1.361  -1.934  -0.381  0.00  0.00    +0.162 A 
ATOM     26  C   UNL     1      -2.570  -2.603  -0.284  0.00  0.00    +0.053 A 
BRANCH  25  27
ATOM     27  O   UNL     1      -0.195  -2.634  -0.402  0.00  0.00    -0.491 OA
ATOM     28  C   UNL     1      -0.291  -4.057  -0.319  0.00  0.00    +0.277 C 
ENDBRANCH  25  27
BRANCH  24  29
ATOM     29  O   UNL     1      -0.157   0.117  -0.553  0.00  0.00    -0.491 OA
ATOM     30  C   UNL     1      -0.214   1.542  -0.628  0.00  0.00    +0.277 C 
ENDBRANCH  24  29
ENDBRANCH  10  21
BRANCH   1  31
ATOM     31  C   UNL     1     -10.393  -5.438   1.694  0.00  0.00    +0.317 C 
ATOM     32  O   UNL     1     -10.517  -5.988   2.772  0.00  0.00    -0.250 OA
BRANCH  31  33
ATOM     33  O   UNL     1     -11.213  -5.762   0.673  0.00  0.00    -0.461 OA
BRANCH  33  34
ATOM     34  C   UNL     1     -12.203  -6.760   0.928  0.00  0.00    +0.173 C 
ATOM     35  C   UNL     1     -11.632  -8.141   0.602  0.00  0.00    +0.052 C 
BRANCH  34  37
ATOM     36  C   UNL     1     -14.075  -5.171   0.464  0.00  0.00    +0.007 C 
ATOM     37  C   UNL     1     -13.430  -6.496   0.052  0.00  0.00    +0.041 C 
ENDBRANCH  34  37
ENDBRANCH  33  34
ENDBRANCH  31  33
ENDBRANCH   1  31
TORSDOF 9
