REMARK  Name = ZINC39912343
REMARK  8 active torsions:
REMARK  status: ('A' for Active; 'I' for Inactive)
REMARK    1  A    between atoms: C_1  and  C_2
REMARK    2  A    between atoms: C_5  and  C_8
REMARK    3  A    between atoms: C_8  and  N_9
REMARK    4  A    between atoms: C_10  and  C_29
REMARK    5  A    between atoms: C_13  and  C_20
REMARK    6  A    between atoms: C_22  and  C_28
REMARK    7  A    between atoms: C_24  and  C_27
REMARK    8  A    between atoms: C_25  and  O_26
REMARK                            x       y       z     vdW  Elec       q    Type
REMARK                         _______ _______ _______ _____ _____    ______ ____
ROOT
ATOM      1  N   UNL     1       1.243  -4.525  -0.255  0.00  0.00    -0.281 N 
ATOM      2  C   UNL     1       2.340  -4.721  -1.211  0.00  0.00    +0.142 C 
ATOM      3  C   UNL     1       3.537  -5.126  -0.394  0.00  0.00    +0.035 A 
ATOM      4  C   UNL     1       4.888  -5.490  -0.381  0.00  0.00    +0.102 A 
ATOM      5  N   UNL     1       5.225  -5.709   0.874  0.00  0.00    -0.173 NA
ATOM      6  N   UNL     1       4.222  -5.520   1.655  0.00  0.00    -0.272 N 
ATOM      7  H   UNL     1       4.239  -5.623   2.619  0.00  0.00    +0.189 HD
ATOM      8  C   UNL     1       3.127  -5.152   0.925  0.00  0.00    +0.126 A 
ATOM      9  C   UNL     1       1.711  -4.772   0.982  0.00  0.00    +0.266 C 
ATOM     10  O   UNL     1       1.053  -4.695   2.002  0.00  0.00    -0.268 OA
ENDROOT
BRANCH   4  11
ATOM     11  C   UNL     1       5.777  -5.608  -1.564  0.00  0.00    +0.044 A 
ATOM     12  C   UNL     1       5.340  -6.280  -2.703  0.00  0.00    +0.017 A 
ATOM     13  C   UNL     1       6.171  -6.387  -3.800  0.00  0.00    -0.049 A 
ATOM     14  C   UNL     1       7.437  -5.829  -3.772  0.00  0.00    +0.010 A 
ATOM     15  C   UNL     1       7.880  -5.160  -2.647  0.00  0.00    -0.008 A 
ATOM     16  C   UNL     1       7.054  -5.040  -1.541  0.00  0.00    +0.129 A 
ATOM     17  C   UNL     1       9.260  -4.555  -2.625  0.00  0.00    +0.047 C 
ATOM     18  C   UNL     1       5.697  -7.114  -5.032  0.00  0.00    +0.044 C 
BRANCH  16  19
ATOM     19  O   UNL     1       7.486  -4.379  -0.436  0.00  0.00    -0.506 OA
ATOM     20  H   UNL     1       7.940  -4.941   0.207  0.00  0.00    +0.292 HD
ENDBRANCH  16  19
ENDBRANCH   4  11
BRANCH   2  21
ATOM     21  C   UNL     1       2.623  -3.437  -1.947  0.00  0.00    -0.021 A 
ATOM     22  C   UNL     1       2.805  -2.262  -1.241  0.00  0.00    +0.006 A 
ATOM     23  C   UNL     1       3.064  -1.084  -1.916  0.00  0.00    +0.001 A 
ATOM     24  C   UNL     1       3.142  -1.080  -3.296  0.00  0.00    +0.015 A 
ATOM     25  C   UNL     1       2.960  -2.255  -4.002  0.00  0.00    +0.018 A 
ATOM     26  C   UNL     1       2.705  -3.435  -3.326  0.00  0.00    +0.021 A 
ATOM     27 BR   UNL     1       3.064  -2.250  -5.890  0.00  0.00    -0.050 Br
ENDBRANCH   2  21
BRANCH   1  28
ATOM     28  C   UNL     1      -0.126  -4.123  -0.590  0.00  0.00    +0.144 C 
BRANCH  28  33
ATOM     29  C   UNL     1      -0.515   1.642  -0.518  0.00  0.00    +0.044 C 
ATOM     30  C   UNL     1      -0.414   0.138  -0.536  0.00  0.00    -0.050 A 
ATOM     31  C   UNL     1      -0.072  -0.517  -1.705  0.00  0.00    +0.003 A 
ATOM     32  C   UNL     1       0.021  -1.896  -1.722  0.00  0.00    +0.005 A 
ATOM     33  C   UNL     1      -0.227  -2.620  -0.571  0.00  0.00    -0.030 A 
ATOM     34  C   UNL     1      -0.567  -1.965   0.598  0.00  0.00    +0.005 A 
ATOM     35  C   UNL     1      -0.656  -0.585   0.616  0.00  0.00    +0.003 A 
ENDBRANCH  28  33
ENDBRANCH   1  28
TORSDOF 5
