REMARK  Name = ZINC36484961
REMARK  16 active torsions:
REMARK  status: ('A' for Active; 'I' for Inactive)
REMARK    1  A    between atoms: C_1  and  C_2
REMARK    2  A    between atoms: C_3  and  C_4
REMARK    3  A    between atoms: C_4  and  C_6
REMARK    4  A    between atoms: C_4  and  N_17
REMARK    5  A    between atoms: N_8  and  C_9
REMARK    6  A    between atoms: C_9  and  C_10
REMARK    7  A    between atoms: C_9  and  C_11
REMARK    8  A    between atoms: C_9  and  C_12
REMARK    9  A    between atoms: C_12  and  C_13
REMARK   10  A    between atoms: C_13  and  C_14
REMARK   11  A    between atoms: C_13  and  C_15
REMARK   12  A    between atoms: C_13  and  C_16
REMARK   13  A    between atoms: N_17  and  C_18
REMARK   14  A    between atoms: C_25  and  C_27
REMARK   15  A    between atoms: C_28  and  O_34
REMARK   16  A    between atoms: C_32  and  O_33
REMARK                            x       y       z     vdW  Elec       q    Type
REMARK                         _______ _______ _______ _____ _____    ______ ____
ROOT
ATOM      1  N   UNL     1       0.417  -3.521  -1.482  0.00  0.00    -0.252 N 
ATOM      2  C   UNL     1       0.698  -4.802  -1.174  0.00  0.00    +0.259 C 
ATOM      3  O   UNL     1      -0.109  -5.470  -0.557  0.00  0.00    -0.269 OA
ENDROOT
BRANCH   1   4
ATOM      4  C   UNL     1       1.285  -2.792  -2.302  0.00  0.00    +0.039 A 
ATOM      5  C   UNL     1       1.087  -1.430  -2.488  0.00  0.00    +0.023 A 
ATOM      6  C   UNL     1       1.946  -0.713  -3.298  0.00  0.00    +0.003 A 
ATOM      7  C   UNL     1       3.002  -1.349  -3.924  0.00  0.00    +0.020 A 
ATOM      8  C   UNL     1       3.202  -2.706  -3.742  0.00  0.00    +0.043 A 
ATOM      9  C   UNL     1       2.349  -3.428  -2.928  0.00  0.00    +0.043 A 
ATOM     10 CL   UNL     1       4.528  -3.501  -4.530  0.00  0.00    -0.083 Cl
ENDBRANCH   1   4
BRANCH   2  11
ATOM     11  C   UNL     1       1.982  -5.393  -1.585  0.00  0.00    +0.120 A 
ATOM     12  C   UNL     1       3.124  -5.225  -0.788  0.00  0.00    +0.133 A 
ATOM     13  C   UNL     1       4.328  -5.786  -1.184  0.00  0.00    +0.046 A 
ATOM     14  C   UNL     1       4.405  -6.510  -2.359  0.00  0.00    +0.007 A 
ATOM     15  C   UNL     1       3.286  -6.682  -3.152  0.00  0.00    +0.046 A 
ATOM     16  C   UNL     1       2.071  -6.134  -2.772  0.00  0.00    +0.133 A 
BRANCH  16  17
ATOM     17  O   UNL     1       0.973  -6.310  -3.549  0.00  0.00    -0.506 OA
ATOM     18  H   UNL     1       0.851  -5.624  -4.220  0.00  0.00    +0.292 HD
ENDBRANCH  16  17
BRANCH  12  19
ATOM     19  O   UNL     1       3.051  -4.514   0.365  0.00  0.00    -0.506 OA
ATOM     20  H   UNL     1       2.830  -5.046   1.142  0.00  0.00    +0.292 HD
ENDBRANCH  12  19
ENDBRANCH   2  11
BRANCH   1  21
ATOM     21  C   UNL     1      -0.797  -2.891  -0.959  0.00  0.00    +0.190 C 
BRANCH  21  22
ATOM     22  C   UNL     1      -1.668  -2.446  -2.106  0.00  0.00    +0.238 C 
ATOM     23  O   UNL     1      -1.309  -2.637  -3.249  0.00  0.00    -0.273 OA
ATOM     24  N   UNL     1      -2.845  -1.837  -1.862  0.00  0.00    -0.308 N 
ATOM     25  H   UNL     1      -3.132  -1.685  -0.948  0.00  0.00    +0.149 HD
BRANCH  24  26
ATOM     26  C   UNL     1      -3.691  -1.405  -2.978  0.00  0.00    +0.030 C 
ATOM     27  C   UNL     1      -3.211  -0.043  -3.484  0.00  0.00    +0.031 C 
ATOM     28  C   UNL     1      -3.604  -2.430  -4.110  0.00  0.00    +0.031 C 
BRANCH  26  29
ATOM     29  C   UNL     1      -5.141  -1.291  -2.503  0.00  0.00    +0.031 C 
BRANCH  29  30
ATOM     30  C   UNL     1      -5.501  -2.518  -1.663  0.00  0.00    -0.036 C 
ATOM     31  C   UNL     1      -5.033  -2.305  -0.222  0.00  0.00    +0.010 C 
ATOM     32  C   UNL     1      -7.017  -2.722  -1.682  0.00  0.00    +0.010 C 
ATOM     33  C   UNL     1      -4.813  -3.755  -2.246  0.00  0.00    +0.010 C 
ENDBRANCH  29  30
ENDBRANCH  26  29
ENDBRANCH  24  26
ENDBRANCH  21  22
BRANCH  21  36
ATOM     34  C   UNL     1       1.214  -0.181   0.874  0.00  0.00    +0.035 C 
ATOM     35  C   UNL     1       0.838  -1.376   0.036  0.00  0.00    -0.032 C 
ATOM     36  C   UNL     1      -0.422  -1.696  -0.121  0.00  0.00    +0.000 C 
ENDBRANCH  21  36
ENDBRANCH   1  21
TORSDOF 10
