REMARK  Name = ZINC36316356
REMARK  20 active torsions:
REMARK  status: ('A' for Active; 'I' for Inactive)
REMARK    1  A    between atoms: C_1  and  C_2
REMARK    2  A    between atoms: C_2  and  C_3
REMARK    3  A    between atoms: C_4  and  C_23
REMARK    4  A    between atoms: C_5  and  O_14
REMARK    5  A    between atoms: N_6  and  C_8
REMARK    6  A    between atoms: O_14  and  C_15
REMARK    7  A    between atoms: C_18  and  O_21
REMARK    8  A    between atoms: O_21  and  C_22
REMARK    9  A    between atoms: C_23  and  N_24
REMARK   10  A    between atoms: N_24  and  C_25
REMARK   11  A    between atoms: N_24  and  C_34
REMARK   12  A    between atoms: C_25  and  C_26
REMARK   13  A    between atoms: C_26  and  C_28
REMARK   14  A    between atoms: C_26  and  O_33
REMARK   15  A    between atoms: C_28  and  O_29
REMARK   16  A    between atoms: O_29  and  C_30
REMARK   17  A    between atoms: C_30  and  C_31
REMARK   18  A    between atoms: C_34  and  C_35
REMARK   19  A    between atoms: C_35  and  C_36
REMARK   20  A    between atoms: C_35  and  C_37
REMARK                            x       y       z     vdW  Elec       q    Type
REMARK                         _______ _______ _______ _____ _____    ______ ____
ROOT
ATOM      1  C   UNL     1      -2.450  -0.401  -0.587  0.00  0.00    +0.068 A 
ATOM      2  C   UNL     1      -2.365  -0.617   0.792  0.00  0.00    +0.021 A 
ATOM      3  C   UNL     1      -3.505  -1.244   1.188  0.00  0.00    +0.225 A 
ATOM      4  N   UNL     1      -4.281  -1.415   0.085  0.00  0.00    -0.200 N 
ATOM      5  N   UNL     1      -3.596  -0.872  -1.010  0.00  0.00    -0.168 NA
ENDROOT
BRANCH   4   6
ATOM      6  C   UNL     1      -5.544  -2.022   0.049  0.00  0.00    +0.069 A 
ATOM      7  C   UNL     1      -5.766  -3.206   0.739  0.00  0.00    +0.028 A 
ATOM      8  C   UNL     1      -7.011  -3.802   0.703  0.00  0.00    +0.002 A 
ATOM      9  C   UNL     1      -8.037  -3.221  -0.020  0.00  0.00    +0.000 A 
ATOM     10  C   UNL     1      -7.819  -2.042  -0.709  0.00  0.00    +0.002 A 
ATOM     11  C   UNL     1      -6.577  -1.438  -0.671  0.00  0.00    +0.028 A 
ENDBRANCH   4   6
BRANCH   1  13
ATOM     12  C   UNL     1      -1.729   1.756  -1.575  0.00  0.00    +0.010 C 
ATOM     13  C   UNL     1      -1.403   0.267  -1.440  0.00  0.00    +0.054 C 
ENDBRANCH   1  13
BRANCH   3  14
ATOM     14  O   UNL     1      -3.811  -1.630   2.453  0.00  0.00    -0.438 OA
BRANCH  14  15
ATOM     15  C   UNL     1      -3.335  -2.826   2.888  0.00  0.00    +0.131 A 
ATOM     16  C   UNL     1      -2.466  -3.558   2.092  0.00  0.00    +0.050 A 
ATOM     17  C   UNL     1      -1.982  -4.774   2.535  0.00  0.00    +0.049 A 
ATOM     18  C   UNL     1      -2.364  -5.262   3.775  0.00  0.00    +0.120 A 
ATOM     19  C   UNL     1      -3.232  -4.530   4.572  0.00  0.00    +0.049 A 
ATOM     20  C   UNL     1      -3.712  -3.312   4.131  0.00  0.00    +0.050 A 
BRANCH  18  21
ATOM     21  O   UNL     1      -1.888  -6.459   4.211  0.00  0.00    -0.495 OA
ATOM     22  C   UNL     1      -2.323  -6.901   5.498  0.00  0.00    +0.277 C 
ENDBRANCH  18  21
ENDBRANCH  14  15
ENDBRANCH   3  14
BRANCH   2  23
ATOM     23  C   UNL     1      -1.214  -0.225   1.682  0.00  0.00    -0.036 C 
BRANCH  23  24
ATOM     24  N   UNL     1      -1.374   1.173   2.103  0.00  0.00    +0.384 N 
ATOM     25  H   UNL     1      -1.447   1.764   1.288  0.00  0.00    -0.081 HD
BRANCH  24  26
ATOM     26  C   UNL     1      -2.594   1.304   2.912  0.00  0.00    -0.044 C 
BRANCH  26  27
ATOM     27  C   UNL     1      -2.870   2.784   3.182  0.00  0.00    +0.124 C 
BRANCH  27  28
ATOM     28  O   UNL     1      -1.861   3.307   4.049  0.00  0.00    -0.391 OA
ATOM     29  H   UNL     1      -1.812   2.865   4.907  0.00  0.00    +0.210 HD
ENDBRANCH  27  28
BRANCH  27  30
ATOM     30  C   UNL     1      -4.240   2.934   3.846  0.00  0.00    +0.189 C 
BRANCH  30  31
ATOM     31  O   UNL     1      -4.550   4.322   3.993  0.00  0.00    -0.373 OA
BRANCH  31  32
ATOM     32  C   UNL     1      -5.816   4.573   4.606  0.00  0.00    +0.186 C 
BRANCH  32  33
ATOM     33  C   UNL     1      -6.037   6.060   4.710  0.00  0.00    -0.007 C 
ATOM     34  C   UNL     1      -7.195   6.575   4.379  0.00  0.00    +0.006 C 
ENDBRANCH  32  33
ENDBRANCH  31  32
ENDBRANCH  30  31
ENDBRANCH  27  30
ENDBRANCH  26  27
ENDBRANCH  24  26
BRANCH  24  35
ATOM     35  C   UNL     1      -0.211   1.581   2.902  0.00  0.00    -0.075 C 
BRANCH  35  36
ATOM     36  C   UNL     1       1.052   1.502   2.041  0.00  0.00    -0.034 C 
ATOM     37  C   UNL     1       0.940   2.491   0.879  0.00  0.00    +0.005 C 
ATOM     38  C   UNL     1       2.273   1.853   2.893  0.00  0.00    +0.005 C 
ENDBRANCH  35  36
ENDBRANCH  24  35
ENDBRANCH  23  24
ENDBRANCH   2  23
TORSDOF 16
