REMARK  Name = ZINC13033995
REMARK  15 active torsions:
REMARK  status: ('A' for Active; 'I' for Inactive)
REMARK    1  A    between atoms: C_1  and  C_2
REMARK    2  A    between atoms: C_2  and  C_3
REMARK    3  A    between atoms: C_10  and  C_15
REMARK    4  A    between atoms: C_15  and  N_71
REMARK    5  A    between atoms: C_16  and  C_17
REMARK    6  A    between atoms: C_16  and  N_71
REMARK    7  A    between atoms: C_24  and  C_26
REMARK    8  A    between atoms: C_24  and  C_28
REMARK    9  A    between atoms: C_24  and  N_71
REMARK   10  A    between atoms: C_26  and  C_27
REMARK   11  A    between atoms: N_32  and  C_33
REMARK   12  A    between atoms: C_33  and  C_34
REMARK   13  A    between atoms: C_33  and  C_35
REMARK   14  A    between atoms: C_33  and  C_36
REMARK   15  A    between atoms: C_36  and  C_37
REMARK                            x       y       z     vdW  Elec       q    Type
REMARK                         _______ _______ _______ _____ _____    ______ ____
ROOT
ATOM      1  N   UNL     1      -0.264  -0.216   4.321  0.00  0.00    +0.392 N 
ATOM      2  H   UNL     1      -0.549   0.295   5.164  0.00  0.00    -0.080 HD
ENDROOT
BRANCH   1   3
ATOM      3  C   UNL     1       0.829  -1.148   4.670  0.00  0.00    -0.036 C 
BRANCH   3  11
ATOM      4  C   UNL     1       2.510   0.583  10.368  0.00  0.00    -0.047 A 
ATOM      5  C   UNL     1       3.690   1.214   9.997  0.00  0.00    +0.005 A 
ATOM      6  C   UNL     1       4.079   1.259   8.676  0.00  0.00    +0.026 A 
ATOM      7  C   UNL     1       3.280   0.668   7.701  0.00  0.00    +0.049 A 
ATOM      8  C   UNL     1       2.085   0.030   8.081  0.00  0.00    -0.001 A 
ATOM      9  C   UNL     1       1.711  -0.004   9.428  0.00  0.00    +0.013 A 
ATOM     10  C   UNL     1       1.249  -0.583   7.047  0.00  0.00    +0.017 A 
ATOM     11  C   UNL     1       1.664  -0.522   5.758  0.00  0.00    +0.001 A 
ATOM     12  C   UNL     1       2.872   0.130   5.430  0.00  0.00    +0.251 A 
ATOM     13  O   UNL     1       3.224   0.177   4.264  0.00  0.00    -0.268 OA
ATOM     14  N   UNL     1       3.644   0.700   6.372  0.00  0.00    -0.322 N 
ATOM     15  H   UNL     1       4.468   1.140   6.112  0.00  0.00    +0.169 HD
BRANCH   4  17
ATOM     16  C   UNL     1       2.687  -0.708  12.478  0.00  0.00    +0.009 C 
ATOM     17  C   UNL     1       2.107   0.546  11.819  0.00  0.00    +0.032 C 
ENDBRANCH   4  17
ENDBRANCH   3  11
ENDBRANCH   1   3
BRANCH   1  18
ATOM     18  C   UNL     1      -1.424  -0.971   3.802  0.00  0.00    -0.042 C 
BRANCH  18  19
ATOM     19  C   UNL     1      -2.106  -1.663   4.955  0.00  0.00    -0.064 A 
ATOM     20  C   UNL     1      -1.799  -2.978   5.250  0.00  0.00    +0.004 A 
ATOM     21  C   UNL     1      -2.420  -3.612   6.310  0.00  0.00    +0.038 A 
ATOM     22  C   UNL     1      -3.356  -2.932   7.070  0.00  0.00    +0.123 A 
ATOM     23  C   UNL     1      -3.666  -1.616   6.771  0.00  0.00    +0.038 A 
ATOM     24  C   UNL     1      -3.040  -0.983   5.714  0.00  0.00    +0.004 A 
ATOM     25  F   UNL     1      -3.967  -3.552   8.104  0.00  0.00    -0.205 F 
ENDBRANCH  18  19
ENDBRANCH   1  18
BRANCH   1  26
ATOM     26  C   UNL     1       0.203   0.752   3.306  0.00  0.00    +0.003 C 
BRANCH  26  27
ATOM     27  C   UNL     1       0.825   1.927   4.015  0.00  0.00    +0.139 A 
ATOM     28  N   UNL     1       1.450   1.905   5.166  0.00  0.00    -0.115 NA
ATOM     29  N   UNL     1       1.831   3.106   5.435  0.00  0.00    -0.023 NA
ATOM     30  N   UNL     1       1.470   3.893   4.483  0.00  0.00    -0.043 NA
ATOM     31  N   UNL     1       0.850   3.203   3.586  0.00  0.00    -0.225 N 
BRANCH  31  32
ATOM     32  C   UNL     1       0.275   3.713   2.339  0.00  0.00    +0.061 C 
ATOM     33  C   UNL     1      -1.251   3.622   2.406  0.00  0.00    +0.036 C 
ATOM     34  C   UNL     1       0.784   2.878   1.163  0.00  0.00    +0.036 C 
BRANCH  32  35
ATOM     35  C   UNL     1       0.690   5.173   2.146  0.00  0.00    +0.026 C 
ATOM     36  C   UNL     1       0.089   5.706   0.844  0.00  0.00    +0.006 C 
ENDBRANCH  32  35
ENDBRANCH  31  32
ENDBRANCH  26  27
BRANCH  26  37
ATOM     37  C   UNL     1       1.239   0.103   2.387  0.00  0.00    -0.011 C 
ATOM     38  C   UNL     1       0.606  -1.087   1.663  0.00  0.00    +0.002 C 
ENDBRANCH  26  37
ENDBRANCH   1  26
TORSDOF 10
