REMARK  Name = ZINC21166416
REMARK  12 active torsions:
REMARK  status: ('A' for Active; 'I' for Inactive)
REMARK    1  A    between atoms: C_1  and  C_2
REMARK    2  A    between atoms: C_2  and  C_3
REMARK    3  A    between atoms: C_3  and  C_4
REMARK    4  A    between atoms: C_4  and  N_5
REMARK    5  A    between atoms: C_9  and  S_29
REMARK    6  A    between atoms: C_13  and  C_14
REMARK    7  A    between atoms: C_14  and  S_15
REMARK    8  A    between atoms: S_15  and  C_16
REMARK    9  A    between atoms: C_21  and  O_26
REMARK   10  A    between atoms: O_26  and  C_27
REMARK   11  A    between atoms: C_27  and  C_28
REMARK   12  A    between atoms: S_29  and  N_32
REMARK                            x       y       z     vdW  Elec       q    Type
REMARK                         _______ _______ _______ _____ _____    ______ ____
ROOT
ATOM      1  N   UNL     1       1.525  -1.306  11.212  0.00  0.00    -0.327 N 
ATOM      2  C   UNL     1       1.943  -1.083  12.508  0.00  0.00    +0.069 A 
ATOM      3  C   UNL     1       1.740  -1.737  13.716  0.00  0.00    +0.030 A 
ATOM      4  C   UNL     1       2.315  -1.242  14.866  0.00  0.00    +0.030 A 
ATOM      5  C   UNL     1       3.096  -0.096  14.825  0.00  0.00    +0.107 A 
ATOM      6  C   UNL     1       3.308   0.561  13.646  0.00  0.00    +0.058 A 
ATOM      7  C   UNL     1       2.734   0.077  12.467  0.00  0.00    +0.091 A 
ATOM      8  N   UNL     1       2.761   0.492  11.174  0.00  0.00    -0.231 NA
ATOM      9  C   UNL     1       2.050  -0.315  10.441  0.00  0.00    +0.121 A 
ENDROOT
BRANCH   5  10
ATOM     10  S   UNL     1       3.822   0.519  16.308  0.00  0.00    +0.056 S 
ATOM     11  O   UNL     1       4.056   1.905  16.101  0.00  0.00    -0.153 OA
ATOM     12  O   UNL     1       3.028   0.032  17.381  0.00  0.00    -0.153 OA
BRANCH  10  13
ATOM     13  N   UNL     1       5.309  -0.195  16.458  0.00  0.00    -0.204 NA
ATOM     14  H   UNL     1       5.797   0.165  17.375  0.00  0.00    +0.144 HD
ATOM     15  H   UNL     1       5.929   0.064  15.587  0.00  0.00    +0.144 HD
ENDBRANCH  10  13
ENDBRANCH   5  10
BRANCH   1  16
ATOM     16  C   UNL     1       0.674  -2.406  10.751  0.00  0.00    +0.123 C 
BRANCH  16  17
ATOM     17  C   UNL     1       1.550  -3.595  10.351  0.00  0.00    +0.021 C 
BRANCH  17  19
ATOM     18  C   UNL     1       1.538  -5.933   9.469  0.00  0.00    +0.004 C 
ATOM     19  C   UNL     1       0.662  -4.744   9.869  0.00  0.00    -0.002 C 
ENDBRANCH  17  19
ENDBRANCH  16  17
ENDBRANCH   1  16
BRANCH   9  20
ATOM     20  C   UNL     1       1.843  -0.176   8.955  0.00  0.00    +0.151 C 
BRANCH  20  21
ATOM     21  S   UNL     1       0.374   0.834   8.642  0.00  0.00    -0.080 S 
BRANCH  21  22
ATOM     22  C   UNL     1       0.371   0.832   6.880  0.00  0.00    +0.168 A 
ATOM     23  N   UNL     1      -0.552   1.465   6.096  0.00  0.00    -0.333 N 
ATOM     24  H   UNL     1      -1.373   2.031   6.560  0.00  0.00    +0.168 HD
ATOM     25  C   UNL     1      -0.204   1.224   4.776  0.00  0.00    +0.070 A 
ATOM     26  C   UNL     1      -0.746   1.600   3.557  0.00  0.00    +0.073 A 
ATOM     27  C   UNL     1      -0.148   1.182   2.380  0.00  0.00    +0.123 A 
ATOM     28  C   UNL     1       0.998   0.395   2.416  0.00  0.00    +0.048 A 
ATOM     29  C   UNL     1       1.548   0.018   3.621  0.00  0.00    +0.033 A 
ATOM     30  C   UNL     1       0.953   0.429   4.816  0.00  0.00    +0.090 A 
ATOM     31  N   UNL     1       1.254   0.225   6.127  0.00  0.00    -0.222 NA
BRANCH  27  32
ATOM     32  O   UNL     1      -0.682   1.547   1.184  0.00  0.00    -0.492 OA
BRANCH  32  33
ATOM     33  C   UNL     1      -0.013   1.086   0.008  0.00  0.00    +0.225 C 
ATOM     34  C   UNL     1      -0.753   1.593  -1.232  0.00  0.00    +0.048 C 
ENDBRANCH  32  33
ENDBRANCH  27  32
ENDBRANCH  21  22
ENDBRANCH  20  21
ENDBRANCH   9  20
TORSDOF 10
