REMARK  Name = ZINC44878660
REMARK  14 active torsions:
REMARK  status: ('A' for Active; 'I' for Inactive)
REMARK    1  A    between atoms: C_1  and  C_2
REMARK    2  A    between atoms: N_7  and  C_9
REMARK    3  A    between atoms: C_9  and  C_10
REMARK    4  A    between atoms: C_13  and  C_16
REMARK    5  A    between atoms: C_16  and  N_17
REMARK    6  A    between atoms: C_18  and  C_20
REMARK    7  A    between atoms: C_20  and  N_21
REMARK    8  A    between atoms: N_21  and  C_22
REMARK    9  A    between atoms: N_21  and  S_32
REMARK   10  A    between atoms: C_25  and  C_28
REMARK   11  A    between atoms: C_28  and  C_29
REMARK   12  A    between atoms: C_28  and  C_30
REMARK   13  A    between atoms: C_28  and  C_31
REMARK   14  A    between atoms: S_32  and  C_35
REMARK                            x       y       z     vdW  Elec       q    Type
REMARK                         _______ _______ _______ _____ _____    ______ ____
ROOT
ATOM      1  N   UNL     1       0.855  -9.470   2.377  0.00  0.00    -0.310 N 
ATOM      2  C   UNL     1       0.414 -10.631   1.852  0.00  0.00    +0.232 C 
ATOM      3  O   UNL     1       0.562 -11.668   2.463  0.00  0.00    -0.274 OA
ATOM      4  H   UNL     1       0.737  -8.641   1.888  0.00  0.00    +0.149 HD
ENDROOT
BRANCH   1   5
ATOM      5  C   UNL     1       1.513  -9.461   3.686  0.00  0.00    +0.139 C 
BRANCH   5   9
ATOM      6  C   UNL     1       2.631  -5.464   4.693  0.00  0.00    -0.064 A 
ATOM      7  C   UNL     1       1.390  -5.948   5.061  0.00  0.00    +0.002 A 
ATOM      8  C   UNL     1       1.028  -7.241   4.735  0.00  0.00    +0.005 A 
ATOM      9  C   UNL     1       1.907  -8.051   4.040  0.00  0.00    -0.030 A 
ATOM     10  C   UNL     1       3.148  -7.566   3.671  0.00  0.00    +0.005 A 
ATOM     11  C   UNL     1       3.508  -6.271   3.994  0.00  0.00    +0.002 A 
BRANCH   6  12
ATOM     12  C   UNL     1       3.026  -4.053   5.048  0.00  0.00    -0.043 C 
BRANCH  12  18
ATOM     13  C   UNL     1       2.670   0.641   3.707  0.00  0.00    +0.005 C 
ATOM     14  C   UNL     1       2.387  -0.802   3.286  0.00  0.00    -0.031 C 
ATOM     15  C   UNL     1       3.117  -1.104   1.974  0.00  0.00    -0.001 C 
ATOM     16  C   UNL     1       2.892  -2.573   1.602  0.00  0.00    -0.018 C 
ATOM     17  C   UNL     1       3.371  -3.463   2.751  0.00  0.00    -0.078 C 
ATOM     18  N   UNL     1       2.617  -3.144   3.969  0.00  0.00    +0.383 N 
ATOM     19  C   UNL     1       2.884  -1.758   4.372  0.00  0.00    -0.075 C 
ATOM     20  H   UNL     1       1.630  -3.257   3.793  0.00  0.00    -0.081 HD
ENDBRANCH  12  18
ENDBRANCH   6  12
ENDBRANCH   5   9
ENDBRANCH   1   5
BRANCH   2  21
ATOM     21  C   UNL     1      -0.263 -10.640   0.506  0.00  0.00    +0.226 C 
BRANCH  21  22
ATOM     22  N   UNL     1      -0.647 -12.011   0.161  0.00  0.00    -0.199 N 
BRANCH  22  23
ATOM     23  C   UNL     1      -1.856 -12.535   0.623  0.00  0.00    +0.051 A 
ATOM     24  C   UNL     1      -1.863 -13.683   1.405  0.00  0.00    +0.025 A 
ATOM     25  C   UNL     1      -3.060 -14.199   1.861  0.00  0.00    +0.006 A 
ATOM     26  C   UNL     1      -4.251 -13.574   1.540  0.00  0.00    -0.042 A 
ATOM     27  C   UNL     1      -4.248 -12.431   0.761  0.00  0.00    +0.006 A 
ATOM     28  C   UNL     1      -3.054 -11.907   0.307  0.00  0.00    +0.025 A 
BRANCH  26  29
ATOM     29  C   UNL     1      -5.556 -14.140   2.038  0.00  0.00    -0.013 C 
ATOM     30  C   UNL     1      -5.551 -14.163   3.568  0.00  0.00    +0.015 C 
ATOM     31  C   UNL     1      -6.712 -13.268   1.545  0.00  0.00    +0.015 C 
ATOM     32  C   UNL     1      -5.729 -15.565   1.507  0.00  0.00    +0.015 C 
ENDBRANCH  26  29
ENDBRANCH  22  23
BRANCH  22  33
ATOM     33  S   UNL     1       0.354 -12.939  -0.777  0.00  0.00    +0.043 S 
ATOM     34  O   UNL     1      -0.485 -13.958  -1.304  0.00  0.00    -0.155 OA
ATOM     35  O   UNL     1       1.002 -12.015  -1.641  0.00  0.00    -0.155 OA
ATOM     36  C   UNL     1       1.550 -13.654   0.384  0.00  0.00    +0.218 C 
ENDBRANCH  22  33
ENDBRANCH  21  22
ENDBRANCH   2  21
TORSDOF 9
