REMARK  Name = ZINC38651949
REMARK  7 active torsions:
REMARK  status: ('A' for Active; 'I' for Inactive)
REMARK    1  A    between atoms: C_5  and  C_7
REMARK    2  A    between atoms: C_12  and  O_21
REMARK    3  A    between atoms: C_16  and  N_20
REMARK    4  A    between atoms: C_17  and  C_18
REMARK    5  A    between atoms: O_21  and  C_22
REMARK    6  A    between atoms: C_22  and  C_24
REMARK    7  A    between atoms: C_25  and  C_26
REMARK                            x       y       z     vdW  Elec       q    Type
REMARK                         _______ _______ _______ _____ _____    ______ ____
ROOT
ATOM      1  C   UNL     1       1.286  -2.200   0.004  0.00  0.00    +0.101 C 
ATOM      2  C   UNL     1       0.586  -2.710   1.236  0.00  0.00    +0.008 A 
ATOM      3  C   UNL     1       1.271  -2.761   2.437  0.00  0.00    +0.012 A 
ATOM      4  C   UNL     1       0.644  -3.227   3.576  0.00  0.00    +0.047 A 
ATOM      5  C   UNL     1      -0.678  -3.646   3.518  0.00  0.00    +0.135 A 
ATOM      6  C   UNL     1      -1.367  -3.596   2.317  0.00  0.00    +0.093 A 
ATOM      7  C   UNL     1      -0.735  -3.127   1.173  0.00  0.00    +0.138 A 
ATOM      8  O   UNL     1      -1.423  -3.084   0.005  0.00  0.00    -0.441 OA
ATOM      9  C   UNL     1      -0.759  -3.015  -1.161  0.00  0.00    +0.199 C 
ATOM     10  C   UNL     1       0.525  -2.602  -1.227  0.00  0.00    +0.098 C 
ENDROOT
BRANCH   1  15
ATOM     11  C   UNL     1       0.302   1.440   0.186  0.00  0.00    +0.000 A 
ATOM     12  C   UNL     1       1.536   2.062   0.182  0.00  0.00    +0.003 A 
ATOM     13  C   UNL     1       2.691   1.306   0.121  0.00  0.00    +0.038 A 
ATOM     14  C   UNL     1       2.612  -0.075   0.064  0.00  0.00    +0.127 A 
ATOM     15  C   UNL     1       1.375  -0.697   0.068  0.00  0.00    +0.000 A 
ATOM     16  C   UNL     1       0.221   0.062   0.129  0.00  0.00    +0.007 A 
ATOM     17  F   UNL     1       3.740  -0.815   0.003  0.00  0.00    -0.205 F 
ENDBRANCH   1  15
BRANCH   9  18
ATOM     18  N   UNL     1      -1.407  -3.371  -2.318  0.00  0.00    -0.328 N 
ATOM     19  H   UNL     1      -2.329  -3.668  -2.286  0.00  0.00    +0.145 HD
ATOM     20  H   UNL     1      -0.941  -3.326  -3.168  0.00  0.00    +0.145 HD
ENDBRANCH   9  18
BRANCH  10  21
ATOM     21  C   UNL     1       1.175  -2.549  -2.502  0.00  0.00    +0.101 C 
ATOM     22  N   UNL     1       1.691  -2.507  -3.514  0.00  0.00    -0.191 NA
ENDBRANCH  10  21
BRANCH   5  23
ATOM     23  O   UNL     1      -1.295  -4.106   4.638  0.00  0.00    -0.423 OA
BRANCH  23  24
ATOM     24  C   UNL     1      -1.569  -3.220   5.619  0.00  0.00    +0.337 C 
ATOM     25  O   UNL     1      -1.360  -2.035   5.444  0.00  0.00    -0.245 OA
BRANCH  24  26
ATOM     26  C   UNL     1      -2.116  -3.686   6.891  0.00  0.00    +0.092 C 
ATOM     27  C   UNL     1      -2.390  -2.800   7.873  0.00  0.00    +0.016 C 
BRANCH  27  28
ATOM     28  C   UNL     1      -2.942  -3.268   9.153  0.00  0.00    -0.006 A 
ATOM     29  C   UNL     1      -3.178  -4.632   9.361  0.00  0.00    +0.011 A 
ATOM     30  C   UNL     1      -3.694  -5.064  10.563  0.00  0.00    +0.020 A 
ATOM     31  C   UNL     1      -3.979  -4.151  11.567  0.00  0.00    +0.042 A 
ATOM     32  C   UNL     1      -3.749  -2.800  11.370  0.00  0.00    +0.040 A 
ATOM     33  C   UNL     1      -3.227  -2.353  10.174  0.00  0.00    +0.049 A 
ATOM     34 CL   UNL     1      -2.932  -0.659   9.931  0.00  0.00    -0.083 Cl
ATOM     35 CL   UNL     1      -4.629  -4.706  13.078  0.00  0.00    -0.083 Cl
ENDBRANCH  27  28
ENDBRANCH  24  26
ENDBRANCH  23  24
ENDBRANCH   5  23
TORSDOF 7
