REMARK  Name = ZINC08253578
REMARK  11 active torsions:
REMARK  status: ('A' for Active; 'I' for Inactive)
REMARK    1  A    between atoms: C_1  and  C_2
REMARK    2  A    between atoms: C_2  and  N_3
REMARK    3  A    between atoms: N_3  and  C_4
REMARK    4  A    between atoms: C_4  and  C_5
REMARK    5  A    between atoms: C_6  and  C_8
REMARK    6  A    between atoms: C_8  and  C_9
REMARK    7  A    between atoms: C_20  and  C_30
REMARK    8  A    between atoms: C_23  and  O_29
REMARK    9  A    between atoms: C_25  and  C_26
REMARK   10  A    between atoms: C_25  and  C_27
REMARK   11  A    between atoms: C_27  and  O_28
REMARK                            x       y       z     vdW  Elec       q    Type
REMARK                         _______ _______ _______ _____ _____    ______ ____
ROOT
ATOM      1  C   UNL     1       0.948   3.067  -0.163  0.00  0.00    +0.054 C 
ATOM      2  C   UNL     1       1.018   1.553  -0.041  0.00  0.00    +0.058 A 
ATOM      3  C   UNL     1       2.220   0.925  -0.031  0.00  0.00    +0.015 A 
ATOM      4  S   UNL     1       1.768  -0.783   0.117  0.00  0.00    -0.057 S 
ATOM      5  C   UNL     1       0.047  -0.544   0.156  0.00  0.00    +0.156 A 
ATOM      6  N   UNL     1      -0.053   0.765   0.057  0.00  0.00    -0.230 NA
ATOM      7  N   UNL     1      -0.962  -1.489   0.263  0.00  0.00    -0.338 N 
ATOM      8  C   UNL     1       3.570   1.544  -0.122  0.00  0.00    +0.049 C 
ATOM      9  C   UNL     1       3.422   3.003  -0.597  0.00  0.00    +0.011 C 
ATOM     10  C   UNL     1       2.307   3.676   0.206  0.00  0.00    -0.019 C 
ATOM     11  C   UNL     1       2.246   5.171  -0.127  0.00  0.00    +0.010 C 
ATOM     12  C   UNL     1       3.588   5.836   0.169  0.00  0.00    +0.032 C 
ATOM     13  C   UNL     1       4.666   5.182  -0.702  0.00  0.00    +0.123 C 
ATOM     14  C   UNL     1       4.760   3.702  -0.336  0.00  0.00    +0.021 C 
ATOM     15  C   UNL     1       5.851   3.040  -1.179  0.00  0.00    +0.016 C 
ATOM     16  C   UNL     1       2.571   3.494   1.702  0.00  0.00    +0.012 C 
ATOM     17  H   UNL     1      -1.890  -1.209   0.273  0.00  0.00    +0.144 HD
ATOM     18  H   UNL     1      -0.739  -2.431   0.329  0.00  0.00    +0.144 HD
ENDROOT
BRANCH  13  19
ATOM     19  O   UNL     1       5.924   5.816  -0.463  0.00  0.00    -0.391 OA
ATOM     20  H   UNL     1       5.933   6.762  -0.664  0.00  0.00    +0.210 HD
ENDBRANCH  13  19
BRANCH   1  21
ATOM     21  C   UNL     1      -0.126   3.606   0.785  0.00  0.00    +0.106 C 
BRANCH  21  23
ATOM     22  N   UNL     1      -2.590   3.529   0.987  0.00  0.00    -0.302 N 
ATOM     23  C   UNL     1      -1.486   3.169   0.303  0.00  0.00    +0.216 C 
ATOM     24  O   UNL     1      -1.586   2.494  -0.699  0.00  0.00    -0.276 OA
BRANCH  22  26
ATOM     25  C   UNL     1      -2.529   5.827   1.822  0.00  0.00    +0.024 C 
ATOM     26  C   UNL     1      -2.469   4.345   2.197  0.00  0.00    +0.104 C 
ENDBRANCH  22  26
BRANCH  22  27
ATOM     27  C   UNL     1      -3.912   3.105   0.519  0.00  0.00    +0.104 C 
ATOM     28  C   UNL     1      -4.269   1.759   1.153  0.00  0.00    +0.024 C 
ENDBRANCH  22  27
ENDBRANCH  21  23
ENDBRANCH   1  21
BRANCH  14  29
ATOM     29  C   UNL     1       5.120   3.569   1.145  0.00  0.00    +0.165 C 
BRANCH  29  30
ATOM     30  O   UNL     1       6.436   4.081   1.364  0.00  0.00    -0.394 OA
ATOM     31  H   UNL     1       6.731   4.028   2.284  0.00  0.00    +0.209 HD
ENDBRANCH  29  30
ENDBRANCH  14  29
TORSDOF 7
