REMARK  Name = ZINC04551206
REMARK  12 active torsions:
REMARK  status: ('A' for Active; 'I' for Inactive)
REMARK    1  A    between atoms: C_1  and  C_2
REMARK    2  A    between atoms: C_2  and  C_3
REMARK    3  A    between atoms: C_2  and  C_4
REMARK    4  A    between atoms: C_2  and  C_5
REMARK    5  A    between atoms: C_7  and  C_16
REMARK    6  A    between atoms: C_9  and  C_12
REMARK    7  A    between atoms: C_10  and  O_11
REMARK    8  A    between atoms: C_12  and  C_13
REMARK    9  A    between atoms: C_12  and  C_14
REMARK   10  A    between atoms: C_12  and  C_15
REMARK   11  A    between atoms: C_16  and  C_18
REMARK   12  A    between atoms: C_18  and  N_19
REMARK                            x       y       z     vdW  Elec       q    Type
REMARK                         _______ _______ _______ _____ _____    ______ ____
ROOT
ATOM      1  C   UNL     1       2.410   0.925  -4.255  0.00  0.00    +0.181 C 
ATOM      2  O   UNL     1       2.291   2.115  -4.056  0.00  0.00    -0.290 OA
ENDROOT
BRANCH   1   5
ATOM      3  C   UNL     1       0.707  -0.490  -1.238  0.00  0.00    +0.000 A 
ATOM      4  C   UNL     1       1.212   0.414  -2.137  0.00  0.00    +0.019 A 
ATOM      5  C   UNL     1       1.868  -0.039  -3.288  0.00  0.00    +0.020 A 
ATOM      6  C   UNL     1       2.004  -1.414  -3.515  0.00  0.00    +0.019 A 
ATOM      7  C   UNL     1       1.496  -2.310  -2.610  0.00  0.00    +0.000 A 
ATOM      8  C   UNL     1       0.850  -1.855  -1.466  0.00  0.00    +0.124 A 
BRANCH   3  10
ATOM      9  C   UNL     1      -0.019   1.526   0.010  0.00  0.00    +0.015 C 
ATOM     10  C   UNL     1       0.002  -0.004   0.002  0.00  0.00    -0.009 C 
ATOM     11  C   UNL     1       0.742  -0.511   1.242  0.00  0.00    +0.015 C 
ATOM     12  C   UNL     1      -1.433  -0.534   0.013  0.00  0.00    +0.015 C 
ENDBRANCH   3  10
BRANCH   7  13
ATOM     13  C   UNL     1       1.642  -3.790  -2.853  0.00  0.00    -0.009 C 
ATOM     14  C   UNL     1       2.389  -4.019  -4.168  0.00  0.00    +0.015 C 
ATOM     15  C   UNL     1       2.429  -4.420  -1.703  0.00  0.00    +0.015 C 
ATOM     16  C   UNL     1       0.256  -4.433  -2.935  0.00  0.00    +0.015 C 
ENDBRANCH   7  13
BRANCH   8  17
ATOM     17  O   UNL     1       0.354  -2.745  -0.570  0.00  0.00    -0.506 OA
ATOM     18  H   UNL     1      -0.559  -3.011  -0.745  0.00  0.00    +0.292 HD
ENDBRANCH   8  17
ENDBRANCH   1   5
BRANCH   1  19
ATOM     19  C   UNL     1       3.115   0.434  -5.493  0.00  0.00    +0.193 C 
BRANCH  19  20
ATOM     20  N   UNL     1       3.559   1.581  -6.289  0.00  0.00    -0.265 N 
ATOM     21  C   UNL     1       2.822   2.220  -7.287  0.00  0.00    +0.058 A 
ATOM     22  C   UNL     1       1.550   2.006  -7.797  0.00  0.00    +0.025 A 
ATOM     23  C   UNL     1       1.066   2.814  -8.807  0.00  0.00    +0.002 A 
ATOM     24  C   UNL     1       1.847   3.839  -9.313  0.00  0.00    +0.002 A 
ATOM     25  C   UNL     1       3.115   4.060  -8.813  0.00  0.00    +0.025 A 
ATOM     26  C   UNL     1       3.611   3.254  -7.798  0.00  0.00    +0.058 A 
ATOM     27  N   UNL     1       4.816   3.228  -7.112  0.00  0.00    -0.273 N 
ATOM     28  C   UNL     1       4.765   2.215  -6.178  0.00  0.00    +0.168 C 
ATOM     29  N   UNL     1       5.748   1.949  -5.358  0.00  0.00    -0.360 N 
ATOM     30  C   UNL     1       6.951   2.787  -5.381  0.00  0.00    +0.117 C 
ATOM     31  C   UNL     1       7.212   3.312  -6.794  0.00  0.00    +0.040 C 
ATOM     32  C   UNL     1       5.989   4.092  -7.290  0.00  0.00    +0.115 C 
ATOM     33  H   UNL     1       5.683   1.205  -4.739  0.00  0.00    +0.162 HD
ENDBRANCH  19  20
ENDBRANCH   1  19
TORSDOF 6
