REMARK  Name = ZINC03309291
REMARK  10 active torsions:
REMARK  status: ('A' for Active; 'I' for Inactive)
REMARK    1  A    between atoms: C_1  and  C_2
REMARK    2  A    between atoms: C_2  and  O_3
REMARK    3  A    between atoms: O_3  and  C_4
REMARK    4  A    between atoms: C_4  and  C_6
REMARK    5  A    between atoms: C_8  and  C_24
REMARK    6  A    between atoms: C_10  and  N_11
REMARK    7  A    between atoms: C_12  and  C_14
REMARK    8  A    between atoms: C_14  and  C_16
REMARK    9  A    between atoms: C_14  and  S_17
REMARK   10  A    between atoms: S_17  and  C_18
REMARK                            x       y       z     vdW  Elec       q    Type
REMARK                         _______ _______ _______ _____ _____    ______ ____
ROOT
ATOM      1  C   UNL     1       1.449  -2.344  -2.517  0.00  0.00    +0.088 A 
ATOM      2  C   UNL     1       1.997  -1.505  -3.490  0.00  0.00    +0.033 A 
ATOM      3  C   UNL     1       2.599  -2.117  -4.546  0.00  0.00    +0.022 A 
ATOM      4  S   UNL     1       2.394  -3.846  -4.169  0.00  0.00    -0.073 S 
ATOM      5  C   UNL     1       1.572  -3.717  -2.709  0.00  0.00    +0.086 A 
ENDROOT
BRANCH   3   6
ATOM      6  C   UNL     1       3.259  -1.501  -5.716  0.00  0.00    -0.011 A 
ATOM      7  C   UNL     1       3.325  -0.111  -5.832  0.00  0.00    +0.009 A 
ATOM      8  C   UNL     1       3.943   0.458  -6.926  0.00  0.00    +0.001 A 
ATOM      9  C   UNL     1       4.497  -0.345  -7.907  0.00  0.00    +0.000 A 
ATOM     10  C   UNL     1       4.435  -1.723  -7.798  0.00  0.00    +0.001 A 
ATOM     11  C   UNL     1       3.825  -2.305  -6.706  0.00  0.00    +0.009 A 
ENDBRANCH   3   6
BRANCH   5  12
ATOM     12  N   UNL     1       1.121  -4.738  -1.891  0.00  0.00    -0.278 N 
ATOM     13  C   UNL     1       1.331  -6.023  -2.238  0.00  0.00    +0.231 C 
ATOM     14  O   UNL     1       1.915  -6.285  -3.268  0.00  0.00    -0.274 OA
ATOM     15  H   UNL     1       0.654  -4.528  -1.067  0.00  0.00    +0.155 HD
BRANCH  13  16
ATOM     16  C   UNL     1       0.839  -7.134  -1.347  0.00  0.00    +0.136 C 
ATOM     17  C   UNL     1       1.818  -7.328  -0.187  0.00  0.00    +0.029 C 
BRANCH  16  18
ATOM     18  S   UNL     1       0.724  -8.671  -2.304  0.00  0.00    -0.084 S 
BRANCH  18  19
ATOM     19  C   UNL     1       0.005  -9.821  -1.179  0.00  0.00    +0.161 A 
ATOM     20  N   UNL     1      -0.378  -9.640   0.071  0.00  0.00    -0.133 NA
ATOM     21  N   UNL     1      -0.922 -10.687   0.778  0.00  0.00    -0.125 NA
ATOM     22  C   UNL     1      -1.058 -11.867   0.204  0.00  0.00    +0.180 A 
ATOM     23  S   UNL     1      -0.406 -11.541  -1.427  0.00  0.00    -0.025 S 
ATOM     24  N   UNL     1      -1.576 -13.046   0.726  0.00  0.00    -0.336 N 
ATOM     25  H   UNL     1      -1.901 -13.070   1.640  0.00  0.00    +0.144 HD
ATOM     26  H   UNL     1      -1.612 -13.845   0.177  0.00  0.00    +0.144 HD
ENDBRANCH  18  19
ENDBRANCH  16  18
ENDBRANCH  13  16
ENDBRANCH   5  12
BRANCH   1  27
ATOM     27  C   UNL     1       0.776  -1.800  -1.335  0.00  0.00    +0.342 C 
ATOM     28  O   UNL     1       0.312  -2.552  -0.499  0.00  0.00    -0.245 OA
BRANCH  27  29
ATOM     29  O   UNL     1       0.671  -0.465  -1.174  0.00  0.00    -0.461 OA
BRANCH  29  31
ATOM     30  C   UNL     1      -0.019   1.526   0.010  0.00  0.00    +0.048 C 
ATOM     31  C   UNL     1       0.002  -0.004   0.002  0.00  0.00    +0.229 C 
ENDBRANCH  29  31
ENDBRANCH  27  29
ENDBRANCH   1  27
TORSDOF 8
