REMARK  Name = ZINC64538265
REMARK  7 active torsions:
REMARK  status: ('A' for Active; 'I' for Inactive)
REMARK    1  A    between atoms: C_1  and  C_2
REMARK    2  A    between atoms: C_2  and  C_4
REMARK    3  A    between atoms: C_2  and  N_18
REMARK    4  A    between atoms: N_6  and  C_7
REMARK    5  A    between atoms: C_7  and  C_8
REMARK    6  A    between atoms: C_8  and  C_9
REMARK    7  A    between atoms: C_26  and  C_30
REMARK                            x       y       z     vdW  Elec       q    Type
REMARK                         _______ _______ _______ _____ _____    ______ ____
ROOT
ATOM      1  C   UNL     1      -0.013   1.515   0.184  0.00  0.00    +0.038 C 
ATOM      2  C   UNL     1       0.002  -0.004   0.002  0.00  0.00    +0.164 C 
ENDROOT
BRANCH   2   3
ATOM      3  N   UNL     1      -1.372  -0.511   0.012  0.00  0.00    -0.256 N 
ATOM      4  C   UNL     1      -1.853  -1.232  -1.087  0.00  0.00    +0.058 A 
ATOM      5  C   UNL     1      -1.169  -1.227  -2.292  0.00  0.00    +0.025 A 
ATOM      6  C   UNL     1      -1.658  -1.950  -3.365  0.00  0.00    +0.002 A 
ATOM      7  C   UNL     1      -2.827  -2.679  -3.242  0.00  0.00    +0.002 A 
ATOM      8  C   UNL     1      -3.518  -2.688  -2.043  0.00  0.00    +0.025 A 
ATOM      9  C   UNL     1      -3.035  -1.965  -0.967  0.00  0.00    +0.050 A 
ATOM     10  N   UNL     1      -3.718  -1.945   0.257  0.00  0.00    -0.325 N 
ATOM     11  C   UNL     1      -3.594  -0.743   1.095  0.00  0.00    +0.262 C 
ATOM     12  C   UNL     1      -2.158  -0.283   1.082  0.00  0.00    +0.250 C 
ATOM     13  O   UNL     1      -1.707   0.301   2.044  0.00  0.00    -0.273 OA
ATOM     14  H   UNL     1      -4.256  -2.700   0.542  0.00  0.00    +0.147 HD
BRANCH  11  15
ATOM     15  C   UNL     1      -4.497   0.362   0.542  0.00  0.00    +0.416 C 
ATOM     16  F   UNL     1      -5.826  -0.075   0.549  0.00  0.00    -0.168 F 
ATOM     17  F   UNL     1      -4.378   1.505   1.340  0.00  0.00    -0.168 F 
ATOM     18  F   UNL     1      -4.113   0.666  -0.768  0.00  0.00    -0.168 F 
ENDBRANCH  11  15
ENDBRANCH   2   3
BRANCH   2  19
ATOM     19  C   UNL     1       0.780  -0.637   1.127  0.00  0.00    +0.234 C 
ATOM     20  O   UNL     1       0.239  -1.434   1.865  0.00  0.00    -0.274 OA
ATOM     21  N   UNL     1       2.076  -0.318   1.313  0.00  0.00    -0.313 N 
ATOM     22  H   UNL     1       2.508   0.319   0.723  0.00  0.00    +0.149 HD
BRANCH  21  23
ATOM     23  C   UNL     1       2.832  -0.934   2.407  0.00  0.00    +0.108 C 
BRANCH  23  24
ATOM     24  C   UNL     1       4.267  -0.404   2.396  0.00  0.00    +0.052 C 
BRANCH  24  25
ATOM     25  C   UNL     1       5.045  -1.038   3.521  0.00  0.00    -0.040 C 
ATOM     26  C   UNL     1       5.837  -2.131   3.447  0.00  0.00    -0.001 A 
ATOM     27  C   UNL     1       6.197  -3.026   2.340  0.00  0.00    +0.010 A 
ATOM     28  C   UNL     1       7.031  -4.062   2.579  0.00  0.00    +0.001 A 
ATOM     29  C   UNL     1       7.560  -4.304   3.855  0.00  0.00    +0.002 A 
ATOM     30  C   UNL     1       7.275  -3.527   4.921  0.00  0.00    +0.026 A 
ATOM     31  C   UNL     1       6.408  -2.408   4.784  0.00  0.00    +0.043 A 
ATOM     32  N   UNL     1       5.986  -1.520   5.651  0.00  0.00    -0.380 N 
ATOM     33  C   UNL     1       5.103  -0.575   4.960  0.00  0.00    +0.144 C 
ATOM     34  H   UNL     1       6.221  -1.490   6.592  0.00  0.00    +0.160 HD
ENDBRANCH  24  25
ENDBRANCH  23  24
ENDBRANCH  21  23
ENDBRANCH   2  19
TORSDOF 6
