REMARK  Name = ZINC58848894
REMARK  8 active torsions:
REMARK  status: ('A' for Active; 'I' for Inactive)
REMARK    1  A    between atoms: C_1  and  C_2
REMARK    2  A    between atoms: C_5  and  C_36
REMARK    3  A    between atoms: C_6  and  C_8
REMARK    4  A    between atoms: C_19  and  S_24
REMARK    5  A    between atoms: S_24  and  N_27
REMARK    6  A    between atoms: N_27  and  C_28
REMARK    7  A    between atoms: C_33  and  O_34
REMARK    8  A    between atoms: O_34  and  C_35
REMARK                            x       y       z     vdW  Elec       q    Type
REMARK                         _______ _______ _______ _____ _____    ______ ____
ROOT
ATOM      1  C   UNL     1      -0.042  -2.306   2.513  0.00  0.00    +0.105 C 
ATOM      2  C   UNL     1      -1.420  -2.847   2.755  0.00  0.00    +0.029 C 
ATOM      3  C   UNL     1      -2.516  -1.792   2.503  0.00  0.00    +0.033 C 
ATOM      4  C   UNL     1      -3.648  -2.223   3.412  0.00  0.00    -0.030 C 
ATOM      5  C   UNL     1      -3.220  -3.049   4.331  0.00  0.00    -0.023 C 
ATOM      6  C   UNL     1      -1.734  -3.264   4.189  0.00  0.00    +0.049 C 
ATOM      7  C   UNL     1      -1.041  -2.415   5.217  0.00  0.00    -0.018 A 
ATOM      8  C   UNL     1      -1.474  -2.490   6.533  0.00  0.00    +0.034 A 
ATOM      9  C   UNL     1      -0.876  -1.721   7.511  0.00  0.00    +0.109 A 
ATOM     10  C   UNL     1       0.161  -0.867   7.185  0.00  0.00    +0.030 A 
ATOM     11  C   UNL     1       0.601  -0.788   5.880  0.00  0.00    +0.025 A 
ATOM     12  C   UNL     1       0.003  -1.568   4.893  0.00  0.00    +0.031 A 
ATOM     13  N   UNL     1       0.489  -1.511   3.601  0.00  0.00    -0.336 N 
ATOM     14  H   UNL     1       1.206  -0.885   3.412  0.00  0.00    +0.147 HD
ENDROOT
BRANCH   1  20
ATOM     15  C   UNL     1      -0.148   2.210   0.358  0.00  0.00    +0.044 C 
ATOM     16  C   UNL     1      -0.127   0.708   0.240  0.00  0.00    -0.050 A 
ATOM     17  C   UNL     1      -0.139   0.112  -1.007  0.00  0.00    +0.003 A 
ATOM     18  C   UNL     1      -0.120  -1.266  -1.115  0.00  0.00    +0.004 A 
ATOM     19  C   UNL     1      -0.088  -2.048   0.024  0.00  0.00    -0.045 A 
ATOM     20  C   UNL     1      -0.076  -1.453   1.271  0.00  0.00    -0.024 A 
ATOM     21  C   UNL     1      -0.091  -0.074   1.379  0.00  0.00    +0.009 A 
ATOM     22  C   UNL     1      -0.069  -3.551  -0.094  0.00  0.00    +0.044 C 
ENDBRANCH   1  20
BRANCH   9  23
ATOM     23  S   UNL     1      -1.437  -1.829   9.178  0.00  0.00    +0.072 S 
ATOM     24  O   UNL     1      -1.078  -0.605   9.807  0.00  0.00    -0.150 OA
ATOM     25  O   UNL     1      -2.778  -2.294   9.127  0.00  0.00    -0.150 OA
BRANCH  23  26
ATOM     26  N   UNL     1      -0.551  -3.017   9.917  0.00  0.00    -0.213 N 
ATOM     27  H   UNL     1      -0.997  -3.796  10.286  0.00  0.00    +0.174 HD
BRANCH  26  28
ATOM     28  C   UNL     1       0.840  -2.899  10.009  0.00  0.00    +0.090 A 
ATOM     29  C   UNL     1       1.421  -1.654  10.200  0.00  0.00    +0.028 A 
ATOM     30  C   UNL     1       2.796  -1.540  10.290  0.00  0.00    +0.002 A 
ATOM     31  C   UNL     1       3.594  -2.664  10.191  0.00  0.00    +0.004 A 
ATOM     32  C   UNL     1       3.022  -3.909  10.001  0.00  0.00    +0.047 A 
ATOM     33  C   UNL     1       1.645  -4.032   9.914  0.00  0.00    +0.142 A 
BRANCH  33  34
ATOM     34  O   UNL     1       1.081  -5.256   9.732  0.00  0.00    -0.493 OA
ATOM     35  C   UNL     1       1.968  -6.373   9.644  0.00  0.00    +0.277 C 
ENDBRANCH  33  34
ENDBRANCH  26  28
ENDBRANCH  23  26
ENDBRANCH   9  23
TORSDOF 5
