REMARK  Name = ZINC12909503
REMARK  7 active torsions:
REMARK  status: ('A' for Active; 'I' for Inactive)
REMARK    1  A    between atoms: C_1  and  C_2
REMARK    2  A    between atoms: C_10  and  C_16
REMARK    3  A    between atoms: C_16  and  O_18
REMARK    4  A    between atoms: O_18  and  C_19
REMARK    5  A    between atoms: C_19  and  C_20
REMARK    6  A    between atoms: N_22  and  C_23
REMARK    7  A    between atoms: C_24  and  C_28
REMARK                            x       y       z     vdW  Elec       q    Type
REMARK                         _______ _______ _______ _____ _____    ______ ____
ROOT
ATOM      1  C   UNL     1       2.012  -6.294  -0.052  0.00  0.00    +0.340 C 
ATOM      2  O   UNL     1       3.215  -6.462  -0.065  0.00  0.00    -0.245 OA
ENDROOT
BRANCH   1  11
ATOM      3  C   UNL     1       3.184 -14.365  -0.280  0.00  0.00    +0.008 C 
ATOM      4  C   UNL     1       1.942 -13.501  -0.503  0.00  0.00    -0.009 C 
ATOM      5  C   UNL     1       0.785 -14.040   0.343  0.00  0.00    +0.009 C 
ATOM      6  C   UNL     1      -0.516 -13.339  -0.062  0.00  0.00    +0.054 C 
ATOM      7  C   UNL     1      -0.279 -11.846  -0.058  0.00  0.00    +0.020 A 
ATOM      8  C   UNL     1       0.946 -11.286  -0.069  0.00  0.00    -0.019 A 
ATOM      9  C   UNL     1       0.761  -9.838  -0.059  0.00  0.00    +0.004 A 
ATOM     10  C   UNL     1       1.627  -8.747  -0.062  0.00  0.00    +0.025 A 
ATOM     11  C   UNL     1       1.105  -7.457  -0.049  0.00  0.00    +0.060 A 
ATOM     12  C   UNL     1      -0.284  -7.263  -0.029  0.00  0.00    +0.017 A 
ATOM     13  C   UNL     1      -1.135  -8.328  -0.031  0.00  0.00    +0.027 A 
ATOM     14  C   UNL     1      -0.634  -9.628  -0.043  0.00  0.00    +0.047 A 
ATOM     15  N   UNL     1      -1.231 -10.866  -0.043  0.00  0.00    -0.358 N 
ATOM     16  H   UNL     1      -2.188 -11.021  -0.034  0.00  0.00    +0.166 HD
ATOM     17  C   UNL     1       2.241 -12.055  -0.088  0.00  0.00    +0.040 C 
ENDBRANCH   1  11
BRANCH   1  18
ATOM     18  O   UNL     1       1.506  -5.045  -0.040  0.00  0.00    -0.452 OA
BRANCH  18  19
ATOM     19  C   UNL     1       2.458  -3.949  -0.043  0.00  0.00    +0.328 C 
BRANCH  19  20
ATOM     20  C   UNL     1       1.715  -2.638  -0.029  0.00  0.00    +0.255 C 
ATOM     21  O   UNL     1       0.502  -2.629  -0.017  0.00  0.00    -0.272 OA
ATOM     22  N   UNL     1       2.397  -1.476  -0.029  0.00  0.00    -0.277 N 
ATOM     23  H   UNL     1       3.367  -1.483  -0.039  0.00  0.00    +0.155 HD
BRANCH  22  24
ATOM     24  C   UNL     1       1.713  -0.270  -0.016  0.00  0.00    +0.084 A 
ATOM     25  C   UNL     1       2.234   1.018  -0.014  0.00  0.00    +0.065 A 
ATOM     26  C   UNL     1       1.283   2.104   0.001  0.00  0.00    +0.022 A 
ATOM     27  C   UNL     1      -0.022   1.776   0.012  0.00  0.00    +0.048 A 
ATOM     28  S   UNL     1       0.002  -0.004   0.002  0.00  0.00    -0.081 S 
BRANCH  25  29
ATOM     29  C   UNL     1       3.680   1.263  -0.026  0.00  0.00    +0.244 C 
ATOM     30  O   UNL     1       4.456   0.326  -0.038  0.00  0.00    -0.270 OA
ATOM     31  N   UNL     1       4.149   2.527  -0.024  0.00  0.00    -0.325 N 
ATOM     32  H   UNL     1       3.531   3.274  -0.014  0.00  0.00    +0.145 HD
ATOM     33  H   UNL     1       5.106   2.689  -0.032  0.00  0.00    +0.145 HD
ENDBRANCH  25  29
ENDBRANCH  22  24
ENDBRANCH  19  20
ENDBRANCH  18  19
ENDBRANCH   1  18
TORSDOF 6
