REMARK  Name = ZINC20558485
REMARK  6 active torsions:
REMARK  status: ('A' for Active; 'I' for Inactive)
REMARK    1  A    between atoms: C_1  and  C_2
REMARK    2  A    between atoms: C_6  and  C_8
REMARK    3  A    between atoms: C_10  and  C_34
REMARK    4  A    between atoms: C_11  and  N_33
REMARK    5  A    between atoms: N_18  and  C_25
REMARK    6  A    between atoms: C_25  and  C_26
REMARK                            x       y       z     vdW  Elec       q    Type
REMARK                         _______ _______ _______ _____ _____    ______ ____
ROOT
ATOM      1  C   UNL     1      -0.963   2.789  -0.081  0.00  0.00    +0.118 C 
ATOM      2  C   UNL     1      -1.120   3.697   1.108  0.00  0.00    +0.099 C 
ATOM      3  C   UNL     1      -1.133   5.043   0.943  0.00  0.00    +0.199 C 
ATOM      4  O   UNL     1      -1.005   5.596  -0.274  0.00  0.00    -0.439 OA
ATOM      5  C   UNL     1      -1.272   4.869  -1.391  0.00  0.00    +0.162 C 
ATOM      6  C   UNL     1      -1.264   3.539  -1.349  0.00  0.00    +0.141 C 
ATOM      7  S   UNL     1      -1.623   2.637  -2.828  0.00  0.00    +0.076 S 
ATOM      8  O   UNL     1      -2.452   1.543  -2.457  0.00  0.00    -0.150 OA
ATOM      9  O   UNL     1      -0.394   2.471  -3.522  0.00  0.00    -0.150 OA
ATOM     10  N   UNL     1      -2.560   3.671  -3.736  0.00  0.00    -0.198 N 
ATOM     11  C   UNL     1      -2.189   5.021  -3.746  0.00  0.00    +0.062 A 
ATOM     12  C   UNL     1      -1.563   5.606  -2.644  0.00  0.00    +0.042 A 
ATOM     13  C   UNL     1      -1.190   6.954  -2.712  0.00  0.00    +0.013 A 
ATOM     14  C   UNL     1      -1.443   7.688  -3.850  0.00  0.00    +0.001 A 
ATOM     15  C   UNL     1      -2.070   7.103  -4.936  0.00  0.00    +0.002 A 
ATOM     16  C   UNL     1      -2.443   5.774  -4.885  0.00  0.00    +0.025 A 
ENDROOT
BRANCH   1  22
ATOM     17  C   UNL     1       2.254  -1.044  -0.047  0.00  0.00    +0.044 C 
ATOM     18  C   UNL     1       1.991   0.438  -0.118  0.00  0.00    -0.050 A 
ATOM     19  C   UNL     1       3.046   1.323  -0.236  0.00  0.00    +0.003 A 
ATOM     20  C   UNL     1       2.805   2.682  -0.302  0.00  0.00    +0.001 A 
ATOM     21  C   UNL     1       1.507   3.157  -0.248  0.00  0.00    +0.004 A 
ATOM     22  C   UNL     1       0.452   2.272  -0.132  0.00  0.00    -0.033 A 
ATOM     23  C   UNL     1       0.694   0.912  -0.067  0.00  0.00    +0.008 A 
ENDBRANCH   1  22
BRANCH   3  24
ATOM     24  N   UNL     1      -1.280   5.855   2.039  0.00  0.00    -0.328 N 
ATOM     25  H   UNL     1      -1.292   6.949   1.917  0.00  0.00    +0.145 HD
ATOM     26  H   UNL     1      -1.386   5.413   3.041  0.00  0.00    +0.145 HD
ENDBRANCH   3  24
BRANCH   2  27
ATOM     27  C   UNL     1      -1.256   3.137   2.420  0.00  0.00    +0.101 C 
ATOM     28  N   UNL     1      -1.363   2.694   3.460  0.00  0.00    -0.191 NA
ENDBRANCH   2  27
BRANCH  10  29
ATOM     29  C   UNL     1      -3.721   3.190  -4.490  0.00  0.00    +0.166 C 
BRANCH  29  30
ATOM     30  C   UNL     1      -4.973   3.414  -3.681  0.00  0.00    -0.028 A 
ATOM     31  C   UNL     1      -5.486   2.391  -2.905  0.00  0.00    +0.008 A 
ATOM     32  C   UNL     1      -6.631   2.597  -2.160  0.00  0.00    +0.038 A 
ATOM     33  C   UNL     1      -7.271   3.824  -2.199  0.00  0.00    +0.123 A 
ATOM     34  C   UNL     1      -6.759   4.846  -2.980  0.00  0.00    +0.038 A 
ATOM     35  C   UNL     1      -5.611   4.640  -3.721  0.00  0.00    +0.008 A 
ATOM     36  F   UNL     1      -8.393   4.024  -1.474  0.00  0.00    -0.205 F 
ENDBRANCH  29  30
ENDBRANCH  10  29
TORSDOF 5
