REMARK  Name = ZINC01622124
REMARK  8 active torsions:
REMARK  status: ('A' for Active; 'I' for Inactive)
REMARK    1  A    between atoms: C_1  and  C_2
REMARK    2  A    between atoms: N_4  and  C_5
REMARK    3  A    between atoms: C_9  and  C_12
REMARK    4  A    between atoms: C_10  and  O_11
REMARK    5  A    between atoms: C_12  and  C_13
REMARK    6  A    between atoms: C_17  and  N_20
REMARK    7  A    between atoms: C_18  and  O_19
REMARK    8  A    between atoms: C_21  and  C_23
REMARK                            x       y       z     vdW  Elec       q    Type
REMARK                         _______ _______ _______ _____ _____    ______ ____
ROOT
ATOM      1  C   UNL     1      -3.755  -4.824  -0.380  0.00  0.00    +0.077 C 
ENDROOT
BRANCH   1   6
ATOM      2  C   UNL     1      -1.164  -2.075  -0.120  0.00  0.00    +0.077 A 
ATOM      3  C   UNL     1       0.012  -2.809  -0.125  0.00  0.00    +0.047 A 
ATOM      4  C   UNL     1      -0.035  -4.189  -0.212  0.00  0.00    +0.043 A 
ATOM      5  C   UNL     1      -1.254  -4.838  -0.294  0.00  0.00    +0.027 A 
ATOM      6  C   UNL     1      -2.430  -4.112  -0.290  0.00  0.00    +0.002 A 
ATOM      7  C   UNL     1      -2.391  -2.730  -0.198  0.00  0.00    +0.142 A 
ATOM      8 CL   UNL     1       1.438  -5.107  -0.217  0.00  0.00    -0.083 Cl
BRANCH   2  12
ATOM      9  C   UNL     1      -0.126   1.511  -0.620  0.00  0.00    +0.109 C 
ATOM     10  C   UNL     1      -0.118   0.004  -0.623  0.00  0.00    +0.214 C 
ATOM     11  O   UNL     1       0.791  -0.596  -1.158  0.00  0.00    -0.276 OA
ATOM     12  N   UNL     1      -1.119  -0.677  -0.032  0.00  0.00    -0.283 N 
ATOM     13  H   UNL     1      -1.809  -0.199   0.455  0.00  0.00    +0.155 HD
ENDBRANCH   2  12
BRANCH   7  14
ATOM     14  O   UNL     1      -3.548  -2.015  -0.189  0.00  0.00    -0.505 OA
ATOM     15  H   UNL     1      -3.856  -1.754  -1.067  0.00  0.00    +0.292 HD
ENDBRANCH   7  14
ENDBRANCH   1   6
BRANCH   1  16
ATOM     16  C   UNL     1      -4.207  -4.865  -1.817  0.00  0.00    +0.002 A 
ATOM     17  C   UNL     1      -5.068  -3.896  -2.299  0.00  0.00    +0.027 A 
ATOM     18  C   UNL     1      -5.485  -3.930  -3.618  0.00  0.00    +0.043 A 
ATOM     19  C   UNL     1      -5.041  -4.934  -4.461  0.00  0.00    +0.047 A 
ATOM     20  C   UNL     1      -4.177  -5.908  -3.983  0.00  0.00    +0.077 A 
ATOM     21  C   UNL     1      -3.754  -5.870  -2.656  0.00  0.00    +0.142 A 
ATOM     22 CL   UNL     1      -6.566  -2.711  -4.217  0.00  0.00    -0.083 Cl
BRANCH  20  23
ATOM     23  N   UNL     1      -3.727  -6.925  -4.835  0.00  0.00    -0.283 N 
ATOM     24  C   UNL     1      -4.458  -7.277  -5.911  0.00  0.00    +0.214 C 
ATOM     25  O   UNL     1      -5.553  -6.785  -6.087  0.00  0.00    -0.276 OA
ATOM     26  C   UNL     1      -3.916  -8.281  -6.895  0.00  0.00    +0.109 C 
ATOM     27  H   UNL     1      -2.888  -7.377  -4.650  0.00  0.00    +0.155 HD
ENDBRANCH  20  23
BRANCH  21  28
ATOM     28  O   UNL     1      -2.903  -6.820  -2.185  0.00  0.00    -0.505 OA
ATOM     29  H   UNL     1      -3.346  -7.597  -1.818  0.00  0.00    +0.292 HD
ENDBRANCH  21  28
ENDBRANCH   1  16
TORSDOF 6
