REMARK  Name = ZINC36688232
REMARK  13 active torsions:
REMARK  status: ('A' for Active; 'I' for Inactive)
REMARK    1  A    between atoms: C_1  and  C_2
REMARK    2  A    between atoms: C_2  and  C_3
REMARK    3  A    between atoms: C_3  and  N_4
REMARK    4  A    between atoms: C_8  and  C_34
REMARK    5  A    between atoms: N_13  and  C_14
REMARK    6  A    between atoms: C_14  and  C_16
REMARK    7  A    between atoms: C_19  and  S_22
REMARK    8  A    between atoms: S_22  and  N_25
REMARK    9  A    between atoms: N_25  and  C_26
REMARK   10  A    between atoms: N_25  and  C_27
REMARK   11  A    between atoms: C_27  and  C_28
REMARK   12  A    between atoms: C_34  and  C_35
REMARK   13  A    between atoms: C_34  and  C_36
REMARK                            x       y       z     vdW  Elec       q    Type
REMARK                         _______ _______ _______ _____ _____    ______ ____
ROOT
ATOM      1  C   UNL     1      -2.583  -3.120  -2.727  0.00  0.00    +0.269 C 
ATOM      2  O   UNL     1      -2.469  -4.330  -2.634  0.00  0.00    -0.268 OA
ENDROOT
BRANCH   1  12
ATOM      3  N   UNL     1       0.366  -2.180  -0.882  0.00  0.00    -0.321 N 
ATOM      4  C   UNL     1       1.357  -2.896  -0.236  0.00  0.00    +0.058 A 
ATOM      5  C   UNL     1       2.474  -2.423   0.468  0.00  0.00    +0.027 A 
ATOM      6  C   UNL     1       3.358  -3.302   1.049  0.00  0.00    +0.006 A 
ATOM      7  C   UNL     1       3.173  -4.671   0.957  0.00  0.00    -0.044 A 
ATOM      8  C   UNL     1       2.079  -5.163   0.268  0.00  0.00    +0.021 A 
ATOM      9  C   UNL     1       1.194  -4.286  -0.313  0.00  0.00    +0.039 A 
ATOM     10  S   UNL     1      -0.295  -4.466  -1.260  0.00  0.00    -0.052 S 
ATOM     11  C   UNL     1      -0.643  -2.840  -1.507  0.00  0.00    +0.167 A 
ATOM     12  N   UNL     1      -1.672  -2.318  -2.167  0.00  0.00    -0.152 NA
BRANCH   7  13
ATOM     13  C   UNL     1       4.155  -5.617   1.601  0.00  0.00    +0.013 C 
ATOM     14  C   UNL     1       5.545  -5.395   1.001  0.00  0.00    +0.012 C 
ATOM     15  C   UNL     1       4.202  -5.355   3.108  0.00  0.00    +0.012 C 
ENDBRANCH   7  13
BRANCH   3  16
ATOM     16  C   UNL     1       0.401  -0.716  -0.886  0.00  0.00    +0.124 C 
BRANCH  16  18
ATOM     17  C   UNL     1      -0.321   1.346   0.326  0.00  0.00    +0.005 C 
ATOM     18  C   UNL     1      -0.357  -0.184   0.331  0.00  0.00    +0.018 C 
ENDBRANCH  16  18
ENDBRANCH   3  16
ENDBRANCH   1  12
BRANCH   1  19
ATOM     19  C   UNL     1      -3.729  -2.538  -3.463  0.00  0.00    +0.039 A 
ATOM     20  C   UNL     1      -3.859  -1.154  -3.576  0.00  0.00    +0.015 A 
ATOM     21  C   UNL     1      -4.929  -0.618  -4.263  0.00  0.00    +0.029 A 
ATOM     22  C   UNL     1      -5.873  -1.450  -4.836  0.00  0.00    +0.106 A 
ATOM     23  C   UNL     1      -5.751  -2.824  -4.726  0.00  0.00    +0.029 A 
ATOM     24  C   UNL     1      -4.681  -3.372  -4.049  0.00  0.00    +0.015 A 
BRANCH  22  25
ATOM     25  S   UNL     1      -7.238  -0.758  -5.710  0.00  0.00    +0.061 S 
ATOM     26  O   UNL     1      -8.229  -1.774  -5.786  0.00  0.00    -0.153 OA
ATOM     27  O   UNL     1      -7.492   0.512  -5.126  0.00  0.00    -0.153 OA
BRANCH  25  28
ATOM     28  N   UNL     1      -6.732  -0.474  -7.261  0.00  0.00    -0.175 NA
ATOM     29  C   UNL     1      -6.025   0.768  -7.585  0.00  0.00    +0.132 C 
BRANCH  28  30
ATOM     30  C   UNL     1      -6.992  -1.463  -8.310  0.00  0.00    +0.144 C 
BRANCH  30  31
ATOM     31  C   UNL     1      -8.246  -1.087  -9.057  0.00  0.00    -0.032 A 
ATOM     32  C   UNL     1      -9.461  -1.631  -8.686  0.00  0.00    +0.005 A 
ATOM     33  C   UNL     1     -10.611  -1.286  -9.371  0.00  0.00    +0.000 A 
ATOM     34  C   UNL     1     -10.546  -0.395 -10.426  0.00  0.00    +0.000 A 
ATOM     35  C   UNL     1      -9.330   0.150 -10.796  0.00  0.00    +0.000 A 
ATOM     36  C   UNL     1      -8.181  -0.192 -10.109  0.00  0.00    +0.005 A 
ENDBRANCH  30  31
ENDBRANCH  28  30
ENDBRANCH  25  28
ENDBRANCH  22  25
ENDBRANCH   1  19
TORSDOF 9
