REMARK  Name = ZINC14544080
REMARK  5 active torsions:
REMARK  status: ('A' for Active; 'I' for Inactive)
REMARK    1  A    between atoms: C_1  and  O_2
REMARK    2  A    between atoms: O_2  and  C_3
REMARK    3  A    between atoms: C_12  and  C_13
REMARK    4  A    between atoms: C_23  and  N_30
REMARK    5  A    between atoms: C_26  and  O_29
REMARK                            x       y       z     vdW  Elec       q    Type
REMARK                         _______ _______ _______ _____ _____    ______ ____
ROOT
ATOM      1  C   UNL     1       0.099  -2.901   0.013  0.00  0.00    +0.109 C 
ATOM      2  C   UNL     1      -1.414  -2.857  -0.105  0.00  0.00    +0.029 C 
ATOM      3  C   UNL     1      -2.043  -3.566  -1.312  0.00  0.00    +0.033 C 
ATOM      4  C   UNL     1      -3.408  -3.972  -0.752  0.00  0.00    -0.030 C 
ATOM      5  C   UNL     1      -3.340  -4.094   0.568  0.00  0.00    -0.023 C 
ATOM      6  C   UNL     1      -1.945  -3.798   1.018  0.00  0.00    +0.051 C 
ATOM      7  C   UNL     1      -1.636  -3.169   2.320  0.00  0.00    +0.014 A 
ATOM      8  C   UNL     1      -2.476  -3.273   3.410  0.00  0.00    +0.132 A 
ATOM      9  C   UNL     1      -2.139  -2.679   4.612  0.00  0.00    +0.037 A 
ATOM     10  C   UNL     1      -0.953  -1.977   4.728  0.00  0.00    +0.049 A 
ATOM     11  C   UNL     1      -0.106  -1.861   3.640  0.00  0.00    +0.138 A 
ATOM     12  C   UNL     1      -0.442  -2.451   2.423  0.00  0.00    +0.076 A 
ATOM     13  N   UNL     1       0.417  -2.293   1.323  0.00  0.00    -0.333 N 
ATOM     14  H   UNL     1       1.232  -1.776   1.423  0.00  0.00    +0.147 HD
ENDROOT
BRANCH   1  24
ATOM     15  C   UNL     1       0.686  -0.739  -1.076  0.00  0.00    +0.126 A 
ATOM     16  C   UNL     1       1.273   0.015  -2.097  0.00  0.00    +0.046 A 
ATOM     17  C   UNL     1       1.899  -0.590  -3.142  0.00  0.00    +0.012 A 
ATOM     18  C   UNL     1       1.961  -1.993  -3.199  0.00  0.00    -0.017 A 
ATOM     19  C   UNL     1       2.601  -2.651  -4.264  0.00  0.00    +0.008 A 
ATOM     20  C   UNL     1       2.642  -4.011  -4.288  0.00  0.00    +0.001 A 
ATOM     21  C   UNL     1       2.058  -4.765  -3.271  0.00  0.00    +0.001 A 
ATOM     22  C   UNL     1       1.430  -4.163  -2.225  0.00  0.00    +0.009 A 
ATOM     23  C   UNL     1       1.367  -2.760  -2.166  0.00  0.00    -0.009 A 
ATOM     24  C   UNL     1       0.732  -2.104  -1.099  0.00  0.00    +0.022 A 
BRANCH  15  26
ATOM     25  C   UNL     1       0.051   1.323  -0.078  0.00  0.00    +0.277 C 
ATOM     26  O   UNL     1       0.067  -0.105  -0.046  0.00  0.00    -0.495 OA
ENDBRANCH  15  26
ENDBRANCH   1  24
BRANCH   8  27
ATOM     27  N   UNL     1      -3.745  -4.025   3.292  0.00  0.00    +0.057 N 
ATOM     28  O   UNL     1      -4.789  -3.502   3.607  0.00  0.00    -0.126 OA
ATOM     29  O   UNL     1      -3.739  -5.161   2.879  0.00  0.00    -0.126 OA
ENDBRANCH   8  27
BRANCH  11  30
ATOM     30  O   UNL     1       1.060  -1.170   3.759  0.00  0.00    -0.505 OA
ATOM     31  H   UNL     1       1.811  -1.711   4.038  0.00  0.00    +0.292 HD
ENDBRANCH  11  30
TORSDOF 4
