REMARK  Name = ZINC01423724
REMARK  5 active torsions:
REMARK  status: ('A' for Active; 'I' for Inactive)
REMARK    1  A    between atoms: C_4  and  C_8
REMARK    2  A    between atoms: C_15  and  C_17
REMARK    3  A    between atoms: C_17  and  O_18
REMARK    4  A    between atoms: C_20  and  N_24
REMARK    5  A    between atoms: C_21  and  C_22
REMARK                            x       y       z     vdW  Elec       q    Type
REMARK                         _______ _______ _______ _____ _____    ______ ____
ROOT
ATOM      1  C   UNL     1       3.711  -0.711  -0.037  0.00  0.00    +0.137 C 
ATOM      2  C   UNL     1       3.815  -1.575   1.193  0.00  0.00    +0.164 A 
ATOM      3  C   UNL     1       3.615  -2.907   1.115  0.00  0.00    +0.215 A 
ATOM      4  C   UNL     1       3.719  -3.692   2.298  0.00  0.00    +0.228 A 
ATOM      5  O   UNL     1       3.546  -4.901   2.265  0.00  0.00    -0.284 OA
ATOM      6  C   UNL     1       4.029  -3.035   3.515  0.00  0.00    +0.098 A 
ATOM      7  C   UNL     1       4.214  -1.700   3.504  0.00  0.00    +0.134 A 
ATOM      8  O   UNL     1       4.110  -0.999   2.371  0.00  0.00    -0.457 OA
ATOM      9  O   UNL     1       3.317  -3.513  -0.060  0.00  0.00    -0.434 OA
ATOM     10  C   UNL     1       3.592  -2.896  -1.222  0.00  0.00    +0.199 C 
ATOM     11  C   UNL     1       3.790  -1.559  -1.275  0.00  0.00    +0.101 C 
ENDROOT
BRANCH   1  15
ATOM     12  C   UNL     1      -0.017   1.379   0.010  0.00  0.00    +0.018 A 
ATOM     13  C   UNL     1       1.171   2.086   0.002  0.00  0.00    +0.040 A 
ATOM     14  C   UNL     1       2.379   1.411  -0.013  0.00  0.00    +0.128 A 
ATOM     15  C   UNL     1       2.397   0.026  -0.021  0.00  0.00    +0.005 A 
ATOM     16  C   UNL     1       1.209  -0.680  -0.013  0.00  0.00    +0.022 A 
ATOM     17  C   UNL     1       0.002  -0.004   0.002  0.00  0.00    +0.018 A 
ATOM     18 BR   UNL     1      -1.623  -0.971   0.013  0.00  0.00    -0.050 Br
ATOM     19  F   UNL     1       3.539   2.102  -0.021  0.00  0.00    -0.205 F 
ENDBRANCH   1  15
BRANCH  10  20
ATOM     20  N   UNL     1       3.672  -3.636  -2.375  0.00  0.00    -0.328 N 
ATOM     21  H   UNL     1       3.531  -4.596  -2.346  0.00  0.00    +0.145 HD
ATOM     22  H   UNL     1       3.870  -3.200  -3.219  0.00  0.00    +0.145 HD
ENDBRANCH  10  20
BRANCH  11  23
ATOM     23  C   UNL     1       4.080  -0.944  -2.535  0.00  0.00    +0.101 C 
ATOM     24  N   UNL     1       4.309  -0.456  -3.535  0.00  0.00    -0.191 NA
ENDBRANCH  11  23
BRANCH   7  25
ATOM     25  C   UNL     1       4.543  -0.986   4.789  0.00  0.00    +0.230 C 
BRANCH  25  26
ATOM     26  O   UNL     1       4.602  -1.933   5.858  0.00  0.00    -0.387 OA
ATOM     27  H   UNL     1       4.810  -1.543   6.718  0.00  0.00    +0.210 HD
ENDBRANCH  25  26
ENDBRANCH   7  25
TORSDOF 5
