REMARK  Name = ZINC01119713
REMARK  9 active torsions:
REMARK  status: ('A' for Active; 'I' for Inactive)
REMARK    1  A    between atoms: C_1  and  O_2
REMARK    2  A    between atoms: O_2  and  C_3
REMARK    3  A    between atoms: C_3  and  C_5
REMARK    4  A    between atoms: C_6  and  N_33
REMARK    5  A    between atoms: C_10  and  C_12
REMARK    6  A    between atoms: C_17  and  O_18
REMARK    7  A    between atoms: O_18  and  C_19
REMARK    8  A    between atoms: C_19  and  C_20
REMARK    9  A    between atoms: C_25  and  C_26
REMARK                            x       y       z     vdW  Elec       q    Type
REMARK                         _______ _______ _______ _____ _____    ______ ____
ROOT
ATOM      1  C   UNL     1       2.304  -1.794   3.087  0.00  0.00    +0.105 C 
ATOM      2  C   UNL     1       1.223  -2.378   2.509  0.00  0.00    +0.195 C 
ATOM      3  O   UNL     1       0.361  -1.669   1.765  0.00  0.00    -0.446 OA
ATOM      4  C   UNL     1       0.753  -0.504   1.214  0.00  0.00    +0.115 C 
ATOM      5  C   UNL     1       1.791   0.192   1.712  0.00  0.00    +0.045 C 
ATOM      6  C   UNL     1       2.564  -0.325   2.901  0.00  0.00    +0.101 C 
ATOM      7  C   UNL     1       2.189   1.418   1.144  0.00  0.00    +0.163 C 
ATOM      8  O   UNL     1       3.144   2.007   1.608  0.00  0.00    -0.292 OA
ATOM      9  C   UNL     1       1.454   2.010  -0.028  0.00  0.00    +0.080 C 
ATOM     10  C   UNL     1      -0.002   1.535   0.010  0.00  0.00    +0.016 C 
ATOM     11  C   UNL     1      -0.013   0.005   0.015  0.00  0.00    +0.075 C 
ENDROOT
BRANCH   6  12
ATOM     12  C   UNL     1       2.135   0.419   4.138  0.00  0.00    +0.007 A 
ATOM     13  C   UNL     1       0.817   0.373   4.551  0.00  0.00    +0.008 A 
ATOM     14  C   UNL     1       0.422   1.055   5.686  0.00  0.00    +0.001 A 
ATOM     15  C   UNL     1       1.345   1.785   6.413  0.00  0.00    +0.004 A 
ATOM     16  C   UNL     1       2.663   1.835   6.005  0.00  0.00    +0.046 A 
ATOM     17  C   UNL     1       3.063   1.147   4.868  0.00  0.00    +0.125 A 
BRANCH  17  18
ATOM     18  O   UNL     1       4.361   1.189   4.468  0.00  0.00    -0.487 OA
BRANCH  18  19
ATOM     19  C   UNL     1       5.262   1.958   5.268  0.00  0.00    +0.265 C 
BRANCH  19  20
ATOM     20  C   UNL     1       6.645   1.889   4.675  0.00  0.00    +0.007 A 
ATOM     21  C   UNL     1       6.869   1.156   3.527  0.00  0.00    +0.008 A 
ATOM     22  C   UNL     1       8.139   1.091   2.981  0.00  0.00    +0.000 A 
ATOM     23  C   UNL     1       9.192   1.759   3.581  0.00  0.00    +0.001 A 
ATOM     24  C   UNL     1       8.982   2.495   4.728  0.00  0.00    +0.019 A 
ATOM     25  C   UNL     1       7.702   2.570   5.282  0.00  0.00    +0.058 A 
BRANCH  25  26
ATOM     26  C   UNL     1       7.475   3.337   6.469  0.00  0.00    +0.100 C 
ATOM     27  N   UNL     1       7.296   3.946   7.412  0.00  0.00    -0.191 NA
ENDBRANCH  25  26
ENDBRANCH  19  20
ENDBRANCH  18  19
ENDBRANCH  17  18
ENDBRANCH   6  12
BRANCH   2  28
ATOM     28  N   UNL     1       1.008  -3.719   2.689  0.00  0.00    -0.329 N 
ATOM     29  H   UNL     1       1.581  -4.225   3.286  0.00  0.00    +0.145 HD
ATOM     30  H   UNL     1       0.284  -4.161   2.220  0.00  0.00    +0.145 HD
ENDBRANCH   2  28
BRANCH   1  31
ATOM     31  C   UNL     1       3.184  -2.565   3.862  0.00  0.00    +0.341 C 
ATOM     32  O   UNL     1       4.243  -2.939   3.392  0.00  0.00    -0.245 OA
BRANCH  31  34
ATOM     33  C   UNL     1       3.796  -3.681   5.862  0.00  0.00    +0.280 C 
ATOM     34  O   UNL     1       2.855  -2.894   5.131  0.00  0.00    -0.465 OA
ENDBRANCH  31  34
ENDBRANCH   1  31
TORSDOF 8
