REMARK  Name = ZINC36206793
REMARK  17 active torsions:
REMARK  status: ('A' for Active; 'I' for Inactive)
REMARK    1  A    between atoms: C_1  and  C_2
REMARK    2  A    between atoms: C_8  and  C_19
REMARK    3  A    between atoms: C_12  and  C_13
REMARK    4  A    between atoms: C_13  and  O_15
REMARK    5  A    between atoms: O_15  and  C_16
REMARK    6  A    between atoms: C_16  and  C_17
REMARK    7  A    between atoms: C_19  and  N_20
REMARK    8  A    between atoms: N_20  and  C_21
REMARK    9  A    between atoms: N_20  and  C_26
REMARK   10  A    between atoms: C_21  and  C_22
REMARK   11  A    between atoms: C_22  and  C_23
REMARK   12  A    between atoms: C_23  and  O_24
REMARK   13  A    between atoms: O_24  and  C_25
REMARK   14  A    between atoms: C_26  and  C_27
REMARK   15  A    between atoms: C_27  and  C_28
REMARK   16  A    between atoms: C_27  and  C_29
REMARK   17  A    between atoms: C_27  and  O_31
REMARK                            x       y       z     vdW  Elec       q    Type
REMARK                         _______ _______ _______ _____ _____    ______ ____
ROOT
ATOM      1  C   UNL     1      -5.611  -3.491  -8.224  0.00  0.00    +0.046 C 
ATOM      2  C   UNL     1      -5.025  -4.460  -7.229  0.00  0.00    -0.015 A 
ATOM      3  C   UNL     1      -3.780  -4.204  -6.653  0.00  0.00    +0.076 A 
ATOM      4  C   UNL     1      -2.867  -3.058  -6.867  0.00  0.00    +0.260 A 
ATOM      5  O   UNL     1      -3.160  -2.161  -7.638  0.00  0.00    -0.267 OA
ATOM      6  N   UNL     1      -1.704  -3.032  -6.187  0.00  0.00    -0.312 N 
ATOM      7  H   UNL     1      -1.095  -2.288  -6.315  0.00  0.00    +0.170 HD
ATOM      8  C   UNL     1      -1.368  -4.024  -5.326  0.00  0.00    +0.094 A 
ATOM      9  N   UNL     1      -2.149  -5.048  -5.114  0.00  0.00    -0.229 NA
ATOM     10  C   UNL     1      -3.317  -5.172  -5.732  0.00  0.00    +0.116 A 
ATOM     11  S   UNL     1      -4.621  -6.376  -5.715  0.00  0.00    -0.062 S 
ATOM     12  C   UNL     1      -5.714  -5.587  -6.885  0.00  0.00    +0.102 A 
ENDROOT
BRANCH  12  13
ATOM     13  C   UNL     1      -7.024  -6.039  -7.361  0.00  0.00    +0.347 C 
ATOM     14  O   UNL     1      -7.639  -5.373  -8.171  0.00  0.00    -0.244 OA
BRANCH  13  15
ATOM     15  O   UNL     1      -7.547  -7.194  -6.900  0.00  0.00    -0.457 OA
BRANCH  15  16
ATOM     16  C   UNL     1      -8.828  -7.574  -7.407  0.00  0.00    +0.259 C 
BRANCH  16  17
ATOM     17  C   UNL     1      -9.247  -8.880  -6.784  0.00  0.00    +0.006 C 
ATOM     18  C   UNL     1     -10.469  -9.028  -6.335  0.00  0.00    +0.007 C 
ENDBRANCH  16  17
ENDBRANCH  15  16
ENDBRANCH  13  15
ENDBRANCH  12  13
BRANCH   8  19
ATOM     19  C   UNL     1      -0.054  -3.942  -4.593  0.00  0.00    -0.003 C 
BRANCH  19  20
ATOM     20  N   UNL     1       0.164  -5.183  -3.838  0.00  0.00    +0.386 N 
ATOM     21  H   UNL     1      -0.629  -5.356  -3.239  0.00  0.00    -0.081 HD
BRANCH  20  22
ATOM     22  C   UNL     1       0.323  -6.304  -4.774  0.00  0.00    -0.076 C 
BRANCH  22  23
ATOM     23  C   UNL     1       0.425  -7.614  -3.990  0.00  0.00    +0.009 C 
BRANCH  23  24
ATOM     24  C   UNL     1       0.590  -8.781  -4.965  0.00  0.00    +0.157 C 
BRANCH  24  25
ATOM     25  O   UNL     1       0.685 -10.004  -4.231  0.00  0.00    -0.383 OA
ATOM     26  C   UNL     1       0.843 -11.163  -5.052  0.00  0.00    +0.193 C 
ENDBRANCH  24  25
ENDBRANCH  23  24
ENDBRANCH  22  23
ENDBRANCH  20  22
BRANCH  20  27
ATOM     27  C   UNL     1       1.377  -5.053  -3.021  0.00  0.00    -0.039 C 
BRANCH  27  28
ATOM     28  C   UNL     1       1.148  -4.003  -1.931  0.00  0.00    +0.067 C 
ATOM     29  C   UNL     1      -0.145  -4.324  -1.179  0.00  0.00    +0.044 C 
BRANCH  28  30
ATOM     30  C   UNL     1       2.307  -4.017  -0.968  0.00  0.00    -0.003 C 
ATOM     31  C   UNL     1       3.030  -2.938  -0.798  0.00  0.00    +0.006 C 
ENDBRANCH  28  30
BRANCH  28  32
ATOM     32  O   UNL     1       1.042  -2.710  -2.531  0.00  0.00    -0.387 OA
ATOM     33  H   UNL     1       1.793  -2.475  -3.093  0.00  0.00    +0.210 HD
ENDBRANCH  28  32
ENDBRANCH  27  28
ENDBRANCH  20  27
ENDBRANCH  19  20
ENDBRANCH   8  19
TORSDOF 14
