REMARK  Name = ZINC13514204
REMARK  7 active torsions:
REMARK  status: ('A' for Active; 'I' for Inactive)
REMARK    1  A    between atoms: C_1  and  C_2
REMARK    2  A    between atoms: C_2  and  O_3
REMARK    3  A    between atoms: O_3  and  C_4
REMARK    4  A    between atoms: C_7  and  C_10
REMARK    5  A    between atoms: C_11  and  C_21
REMARK    6  A    between atoms: N_23  and  N_24
REMARK    7  A    between atoms: C_25  and  C_26
REMARK                            x       y       z     vdW  Elec       q    Type
REMARK                         _______ _______ _______ _____ _____    ______ ____
ROOT
ATOM      1  C   UNL     1      -3.729   1.421   0.056  0.00  0.00    +0.109 A 
ATOM      2  C   UNL     1      -2.451   0.871   0.034  0.00  0.00    +0.177 A 
ATOM      3  N   UNL     1      -2.572  -0.467   0.020  0.00  0.00    -0.124 NA
ATOM      4  N   UNL     1      -3.815  -0.798   0.027  0.00  0.00    -0.058 NA
ATOM      5  N   UNL     1      -4.597   0.365   0.046  0.00  0.00    -0.187 N 
ATOM      6  C   UNL     1      -5.994   0.432   0.058  0.00  0.00    +0.241 A 
ATOM      7  C   UNL     1      -6.908  -0.714   0.052  0.00  0.00    +0.206 A 
ATOM      8  N   UNL     1      -8.132  -0.262   0.067  0.00  0.00    -0.032 NA
ATOM      9  O   UNL     1      -8.072   1.153   0.082  0.00  0.00    -0.239 OA
ATOM     10  N   UNL     1      -6.705   1.524   0.081  0.00  0.00    -0.027 NA
ATOM     11  N   UNL     1      -6.534  -2.053   0.034  0.00  0.00    -0.337 N 
ATOM     12  H   UNL     1      -5.595  -2.294   0.024  0.00  0.00    +0.144 HD
ATOM     13  H   UNL     1      -7.213  -2.746   0.031  0.00  0.00    +0.144 HD
ENDROOT
BRANCH   1  17
ATOM     14  C   UNL     1      -4.731   5.547   0.132  0.00  0.00    +0.121 A 
ATOM     15  C   UNL     1      -3.731   5.061   0.966  0.00  0.00    +0.046 A 
ATOM     16  C   UNL     1      -3.402   3.724   0.944  0.00  0.00    +0.013 A 
ATOM     17  C   UNL     1      -4.077   2.855   0.083  0.00  0.00    +0.003 A 
ATOM     18  C   UNL     1      -5.079   3.348  -0.757  0.00  0.00    +0.013 A 
ATOM     19  C   UNL     1      -5.404   4.686  -0.726  0.00  0.00    +0.046 A 
BRANCH  14  20
ATOM     20  O   UNL     1      -5.051   6.867   0.156  0.00  0.00    -0.492 OA
BRANCH  20  22
ATOM     21  C   UNL     1      -6.306   8.804  -0.558  0.00  0.00    +0.048 C 
ATOM     22  C   UNL     1      -6.088   7.299  -0.726  0.00  0.00    +0.225 C 
ENDBRANCH  20  22
ENDBRANCH  14  20
ENDBRANCH   1  17
BRANCH   2  23
ATOM     23  C   UNL     1      -1.187   1.624   0.032  0.00  0.00    +0.286 C 
ATOM     24  O   UNL     1      -1.204   2.840   0.046  0.00  0.00    -0.267 OA
ATOM     25  N   UNL     1      -0.011   0.966   0.015  0.00  0.00    -0.202 N 
ATOM     26  H   UNL     1       0.002  -0.004   0.004  0.00  0.00    +0.178 HD
BRANCH  25  27
ATOM     27  N   UNL     1       1.193   1.683   0.007  0.00  0.00    -0.187 NA
ATOM     28  C   UNL     1       2.327   1.048  -0.015  0.00  0.00    +0.139 C 
BRANCH  28  29
ATOM     29  C   UNL     1       3.590   1.801  -0.022  0.00  0.00    +0.002 A 
ATOM     30  C   UNL     1       4.810   1.141   0.066  0.00  0.00    +0.010 A 
ATOM     31  C   UNL     1       6.001   1.854   0.058  0.00  0.00    +0.001 A 
ATOM     32  C   UNL     1       6.024   3.212  -0.036  0.00  0.00    +0.008 A 
ATOM     33  C   UNL     1       4.829   3.945  -0.129  0.00  0.00    -0.017 A 
ATOM     34  C   UNL     1       3.590   3.259  -0.130  0.00  0.00    -0.009 A 
ATOM     35  C   UNL     1       2.397   3.986  -0.217  0.00  0.00    +0.009 A 
ATOM     36  C   UNL     1       2.442   5.345  -0.310  0.00  0.00    +0.001 A 
ATOM     37  C   UNL     1       3.659   6.022  -0.315  0.00  0.00    +0.001 A 
ATOM     38  C   UNL     1       4.838   5.347  -0.227  0.00  0.00    +0.008 A 
ENDBRANCH  28  29
ENDBRANCH  25  27
ENDBRANCH   2  23
TORSDOF 6
