REMARK  Name = ZINC09636524
REMARK  11 active torsions:
REMARK  status: ('A' for Active; 'I' for Inactive)
REMARK    1  A    between atoms: C_1  and  C_2
REMARK    2  A    between atoms: C_2  and  O_3
REMARK    3  A    between atoms: O_3  and  C_4
REMARK    4  A    between atoms: C_4  and  C_6
REMARK    5  A    between atoms: C_7  and  C_25
REMARK    6  A    between atoms: C_10  and  N_11
REMARK    7  A    between atoms: C_12  and  C_14
REMARK    8  A    between atoms: C_14  and  N_57
REMARK    9  A    between atoms: C_16  and  C_23
REMARK   10  A    between atoms: C_19  and  C_22
REMARK   11  A    between atoms: C_28  and  C_31
REMARK                            x       y       z     vdW  Elec       q    Type
REMARK                         _______ _______ _______ _____ _____    ______ ____
ROOT
ATOM      1  C   UNL     1      -0.017   1.384   0.010  0.00  0.00    +0.096 A 
ATOM      2  C   UNL     1       1.270   2.054   0.001  0.00  0.00    +0.019 A 
ATOM      3  C   UNL     1       2.372   1.260  -0.014  0.00  0.00    +0.065 A 
ATOM      4  S   UNL     1       1.690  -0.385  -0.016  0.00  0.00    -0.065 S 
ATOM      5  C   UNL     1       0.002  -0.004   0.002  0.00  0.00    +0.087 A 
ATOM      6 BR   UNL     1       4.191   1.776  -0.028  0.00  0.00    -0.042 Br
ENDROOT
BRANCH   2   7
ATOM      7  C   UNL     1       1.377   3.533   0.007  0.00  0.00    -0.015 A 
ATOM      8  C   UNL     1       0.914   4.273  -1.080  0.00  0.00    +0.009 A 
ATOM      9  C   UNL     1       1.012   5.649  -1.066  0.00  0.00    +0.004 A 
ATOM     10  C   UNL     1       1.577   6.294   0.019  0.00  0.00    -0.050 A 
ATOM     11  C   UNL     1       2.043   5.565   1.099  0.00  0.00    +0.004 A 
ATOM     12  C   UNL     1       1.946   4.188   1.098  0.00  0.00    +0.009 A 
ATOM     13  C   UNL     1       1.687   7.797   0.026  0.00  0.00    +0.044 C 
ENDBRANCH   2   7
BRANCH   5  14
ATOM     14  N   UNL     1      -1.074  -0.877   0.008  0.00  0.00    -0.281 N 
ATOM     15  C   UNL     1      -0.863  -2.208  -0.002  0.00  0.00    +0.201 C 
ATOM     16  O   UNL     1       0.270  -2.642  -0.015  0.00  0.00    -0.278 OA
ATOM     17  H   UNL     1      -1.980  -0.530   0.018  0.00  0.00    +0.155 HD
BRANCH  15  18
ATOM     18  C   UNL     1      -2.034  -3.157   0.004  0.00  0.00    +0.019 C 
BRANCH  18  26
ATOM     19  C   UNL     1      -0.859  -4.846  -1.273  0.00  0.00    -0.046 C 
ATOM     20  C   UNL     1      -0.312  -6.275  -1.220  0.00  0.00    +0.099 C 
ATOM     21  O   UNL     1      -1.385  -7.182  -0.951  0.00  0.00    -0.378 OA
ATOM     22  C   UNL     1      -2.072  -6.914   0.275  0.00  0.00    +0.099 C 
ATOM     23  C   UNL     1      -2.637  -5.491   0.236  0.00  0.00    -0.046 C 
ATOM     24  C   UNL     1      -3.217  -7.914   0.448  0.00  0.00    +0.036 C 
ATOM     25  C   UNL     1       0.736  -6.381  -0.110  0.00  0.00    +0.036 C 
ATOM     26  N   UNL     1      -1.523  -4.545   0.012  0.00  0.00    +0.389 N 
ATOM     27  H   UNL     1      -0.841  -4.646   0.772  0.00  0.00    -0.081 HD
ENDBRANCH  18  26
ENDBRANCH  15  18
ENDBRANCH   5  14
BRANCH   1  28
ATOM     28  C   UNL     1      -1.272   2.134   0.020  0.00  0.00    +0.342 C 
ATOM     29  O   UNL     1      -1.789   2.441   1.077  0.00  0.00    -0.245 OA
BRANCH  28  30
ATOM     30  O   UNL     1      -1.857   2.486  -1.144  0.00  0.00    -0.461 OA
BRANCH  30  32
ATOM     31  C   UNL     1      -3.611   3.536  -2.468  0.00  0.00    +0.048 C 
ATOM     32  C   UNL     1      -3.102   3.229  -1.058  0.00  0.00    +0.229 C 
ENDBRANCH  30  32
ENDBRANCH  28  30
ENDBRANCH   1  28
TORSDOF 7
