REMARK  Name = ZINC21222493
REMARK  13 active torsions:
REMARK  status: ('A' for Active; 'I' for Inactive)
REMARK    1  A    between atoms: C_1  and  C_2
REMARK    2  A    between atoms: C_2  and  O_3
REMARK    3  A    between atoms: O_3  and  C_4
REMARK    4  A    between atoms: C_5  and  C_12
REMARK    5  A    between atoms: C_9  and  O_10
REMARK    6  A    between atoms: O_10  and  C_11
REMARK    7  A    between atoms: C_17  and  C_22
REMARK    8  A    between atoms: C_25  and  O_30
REMARK    9  A    between atoms: C_26  and  O_28
REMARK   10  A    between atoms: O_28  and  C_29
REMARK   11  A    between atoms: O_30  and  C_31
REMARK   12  A    between atoms: C_31  and  C_32
REMARK   13  A    between atoms: C_31  and  C_33
REMARK                            x       y       z     vdW  Elec       q    Type
REMARK                         _______ _______ _______ _____ _____    ______ ____
ROOT
ATOM      1  C   UNL     1      -5.775  -2.142  -1.040  0.00  0.00    +0.140 C 
ATOM      2  C   UNL     1      -4.524  -1.464  -0.532  0.00  0.00    +0.037 C 
ATOM      3  C   UNL     1      -3.659  -0.750  -1.270  0.00  0.00    +0.017 C 
ATOM      4  C   UNL     1      -2.422  -0.141  -0.631  0.00  0.00    +0.059 C 
ATOM      5  C   UNL     1      -2.722   0.250   0.815  0.00  0.00    +0.032 C 
ATOM      6  C   UNL     1      -3.137  -1.020   1.566  0.00  0.00    +0.088 C 
ATOM      7  C   UNL     1      -4.305  -1.635   0.856  0.00  0.00    +0.163 C 
ATOM      8  O   UNL     1      -5.093  -2.306   1.495  0.00  0.00    -0.292 OA
ATOM      9  N   UNL     1      -3.787  -0.510  -2.600  0.00  0.00    -0.316 N 
ATOM     10  C   UNL     1      -4.096  -1.473  -3.553  0.00  0.00    +0.052 A 
ATOM     11  C   UNL     1      -3.211  -1.836  -4.553  0.00  0.00    +0.025 A 
ATOM     12  C   UNL     1      -3.600  -2.770  -5.498  0.00  0.00    +0.002 A 
ATOM     13  C   UNL     1      -4.862  -3.332  -5.445  0.00  0.00    +0.002 A 
ATOM     14  C   UNL     1      -5.743  -2.982  -4.436  0.00  0.00    +0.025 A 
ATOM     15  C   UNL     1      -5.349  -2.064  -3.476  0.00  0.00    +0.049 A 
ATOM     16  N   UNL     1      -6.159  -1.762  -2.383  0.00  0.00    -0.331 N 
ATOM     17  H   UNL     1      -3.642   0.508  -2.991  0.00  0.00    +0.152 HD
ATOM     18  H   UNL     1      -7.103  -1.225  -2.554  0.00  0.00    +0.147 HD
ENDROOT
BRANCH   1  20
ATOM     19  C   UNL     1      -6.644  -4.491  -0.972  0.00  0.00    +0.167 A 
ATOM     20  C   UNL     1      -5.557  -3.632  -1.009  0.00  0.00    +0.023 A 
ATOM     21  C   UNL     1      -4.273  -4.144  -1.023  0.00  0.00    +0.009 A 
ATOM     22  C   UNL     1      -4.069  -5.511  -0.990  0.00  0.00    +0.004 A 
ATOM     23  C   UNL     1      -5.149  -6.373  -0.953  0.00  0.00    +0.049 A 
ATOM     24  C   UNL     1      -6.439  -5.867  -0.944  0.00  0.00    +0.162 A 
BRANCH  24  25
ATOM     25  O   UNL     1      -7.503  -6.714  -0.909  0.00  0.00    -0.491 OA
ATOM     26  C   UNL     1      -7.217  -8.114  -0.882  0.00  0.00    +0.277 C 
ENDBRANCH  24  25
BRANCH  19  27
ATOM     27  O   UNL     1      -7.908  -3.990  -0.964  0.00  0.00    -0.488 OA
BRANCH  27  29
ATOM     28  C   UNL     1      -9.959  -3.271  -2.022  0.00  0.00    +0.048 C 
ATOM     29  C   UNL     1      -8.571  -3.881  -2.226  0.00  0.00    +0.226 C 
ENDBRANCH  27  29
ENDBRANCH  19  27
ENDBRANCH   1  20
BRANCH   5  30
ATOM     30  C   UNL     1      -1.490   0.840   1.450  0.00  0.00    -0.040 A 
ATOM     31  C   UNL     1      -0.324   0.099   1.514  0.00  0.00    +0.008 A 
ATOM     32  C   UNL     1       0.810   0.638   2.091  0.00  0.00    +0.050 A 
ATOM     33  C   UNL     1       0.779   1.921   2.613  0.00  0.00    +0.162 A 
ATOM     34  C   UNL     1      -0.395   2.665   2.554  0.00  0.00    +0.162 A 
ATOM     35  C   UNL     1      -1.529   2.119   1.974  0.00  0.00    +0.053 A 
BRANCH  34  36
ATOM     36  O   UNL     1      -0.430   3.925   3.065  0.00  0.00    -0.491 OA
ATOM     37  C   UNL     1      -1.670   4.629   2.970  0.00  0.00    +0.277 C 
ENDBRANCH  34  36
BRANCH  33  38
ATOM     38  O   UNL     1       1.895   2.453   3.181  0.00  0.00    -0.486 OA
BRANCH  38  39
ATOM     39  C   UNL     1       3.032   1.596   3.305  0.00  0.00    +0.167 C 
ATOM     40  C   UNL     1       3.825   1.610   1.997  0.00  0.00    +0.051 C 
ATOM     41  C   UNL     1       3.922   2.090   4.447  0.00  0.00    +0.051 C 
ENDBRANCH  38  39
ENDBRANCH  33  38
ENDBRANCH   5  30
TORSDOF 8
