REMARK  Name = ZINC23371594
REMARK  9 active torsions:
REMARK  status: ('A' for Active; 'I' for Inactive)
REMARK    1  A    between atoms: C_1  and  C_2
REMARK    2  A    between atoms: C_5  and  C_36
REMARK    3  A    between atoms: C_10  and  C_12
REMARK    4  A    between atoms: C_12  and  N_13
REMARK    5  A    between atoms: N_16  and  C_19
REMARK    6  A    between atoms: C_19  and  C_20
REMARK    7  A    between atoms: N_22  and  C_23
REMARK    8  A    between atoms: C_23  and  C_24
REMARK    9  A    between atoms: C_27  and  C_29
REMARK                            x       y       z     vdW  Elec       q    Type
REMARK                         _______ _______ _______ _____ _____    ______ ____
ROOT
ATOM      1  N   UNL     1       4.137  -3.128   1.581  0.00  0.00    +0.387 N 
ATOM      2  C   UNL     1       3.977  -3.844   2.853  0.00  0.00    -0.063 C 
ATOM      3  C   UNL     1       5.041  -4.938   2.961  0.00  0.00    +0.066 C 
ATOM      4  N   UNL     1       6.376  -4.327   2.888  0.00  0.00    -0.298 NA
ATOM      5  C   UNL     1       6.543  -3.586   1.630  0.00  0.00    +0.066 C 
ATOM      6  C   UNL     1       5.465  -2.503   1.533  0.00  0.00    -0.063 C 
ATOM      7  H   UNL     1       4.044  -3.779   0.815  0.00  0.00    -0.081 HD
ENDROOT
BRANCH   1   8
ATOM      8  C   UNL     1       3.103  -2.090   1.470  0.00  0.00    +0.019 C 
BRANCH   8  16
ATOM      9  C   UNL     1      -0.019   1.526   0.010  0.00  0.00    +0.009 C 
ATOM     10  C   UNL     1       0.002  -0.004   0.002  0.00  0.00    +0.004 C 
ATOM     11  C   UNL     1      -1.433  -0.534   0.015  0.00  0.00    +0.009 C 
ATOM     12  C   UNL     1      -1.414  -2.064  -0.027  0.00  0.00    +0.004 C 
ATOM     13  C   UNL     1      -0.692  -2.596   1.215  0.00  0.00    +0.111 C 
ATOM     14  N   UNL     1       0.639  -1.977   1.288  0.00  0.00    -0.303 N 
ATOM     15  C   UNL     1       0.742  -0.512   1.244  0.00  0.00    +0.111 C 
ATOM     16  C   UNL     1       1.746  -2.740   1.395  0.00  0.00    +0.199 C 
ATOM     17  O   UNL     1       1.648  -3.948   1.431  0.00  0.00    -0.278 OA
ATOM     18  C   UNL     1      -2.850  -2.592  -0.049  0.00  0.00    +0.009 C 
ENDBRANCH   8  16
ENDBRANCH   1   8
BRANCH   4  19
ATOM     19  C   UNL     1       7.428  -5.340   3.045  0.00  0.00    +0.180 C 
BRANCH  19  20
ATOM     20  C   UNL     1       8.762  -4.658   3.210  0.00  0.00    +0.227 C 
ATOM     21  O   UNL     1       8.829  -3.447   3.199  0.00  0.00    -0.274 OA
ATOM     22  N   UNL     1       9.880  -5.394   3.371  0.00  0.00    -0.307 N 
ATOM     23  H   UNL     1       9.825  -6.363   3.381  0.00  0.00    +0.149 HD
BRANCH  22  24
ATOM     24  C   UNL     1      11.176  -4.731   3.533  0.00  0.00    +0.178 C 
BRANCH  24  25
ATOM     25  C   UNL     1      12.255  -5.771   3.694  0.00  0.00    +0.123 A 
ATOM     26  C   UNL     1      12.966  -6.327   2.693  0.00  0.00    +0.047 A 
ATOM     27  C   UNL     1      13.861  -7.242   3.282  0.00  0.00    +0.050 A 
ATOM     28  C   UNL     1      13.645  -7.193   4.623  0.00  0.00    +0.135 A 
ATOM     29  O   UNL     1      12.672  -6.292   4.859  0.00  0.00    -0.458 OA
BRANCH  28  30
ATOM     30  C   UNL     1      14.359  -7.987   5.646  0.00  0.00    +0.017 A 
ATOM     31  C   UNL     1      15.360  -8.882   5.266  0.00  0.00    +0.013 A 
ATOM     32  C   UNL     1      16.023  -9.619   6.225  0.00  0.00    +0.021 A 
ATOM     33  C   UNL     1      15.696  -9.473   7.562  0.00  0.00    +0.041 A 
ATOM     34  C   UNL     1      14.704  -8.587   7.946  0.00  0.00    +0.021 A 
ATOM     35  C   UNL     1      14.038  -7.840   6.997  0.00  0.00    +0.013 A 
ATOM     36 CL   UNL     1      16.534 -10.405   8.764  0.00  0.00    -0.084 Cl
ENDBRANCH  28  30
ENDBRANCH  24  25
ENDBRANCH  22  24
ENDBRANCH  19  20
ENDBRANCH   4  19
TORSDOF 7
