REMARK  Name = ZINC39273093
REMARK  9 active torsions:
REMARK  status: ('A' for Active; 'I' for Inactive)
REMARK    1  A    between atoms: C_1  and  C_2
REMARK    2  A    between atoms: C_3  and  C_16
REMARK    3  A    between atoms: N_6  and  C_9
REMARK    4  A    between atoms: C_16  and  C_18
REMARK    5  A    between atoms: C_16  and  C_25
REMARK    6  A    between atoms: C_23  and  O_24
REMARK    7  A    between atoms: C_26  and  C_39
REMARK    8  A    between atoms: N_28  and  C_32
REMARK    9  A    between atoms: C_29  and  O_31
REMARK                            x       y       z     vdW  Elec       q    Type
REMARK                         _______ _______ _______ _____ _____    ______ ____
ROOT
ATOM      1  C   UNL     1      -2.518  -0.354   0.013  0.00  0.00    +0.091 C 
ENDROOT
BRANCH   1   4
ATOM      2  C   UNL     1      -0.198   1.658   0.526  0.00  0.00    +0.065 C 
ATOM      3  C   UNL     1      -0.042   0.189   0.230  0.00  0.00    +0.039 A 
ATOM      4  C   UNL     1      -1.047  -0.681   0.008  0.00  0.00    +0.051 A 
ATOM      5  C   UNL     1      -0.481  -1.955  -0.231  0.00  0.00    +0.276 A 
ATOM      6  O   UNL     1      -1.092  -2.981  -0.469  0.00  0.00    -0.266 OA
ATOM      7  N   UNL     1       0.859  -1.828  -0.147  0.00  0.00    -0.219 N 
ATOM      8  N   UNL     1       1.142  -0.485   0.136  0.00  0.00    -0.294 N 
ATOM      9  H   UNL     1       2.026  -0.102   0.248  0.00  0.00    +0.187 HD
BRANCH   7  10
ATOM     10  C   UNL     1       1.798  -2.852  -0.316  0.00  0.00    +0.067 A 
ATOM     11  C   UNL     1       1.375  -4.143  -0.606  0.00  0.00    +0.029 A 
ATOM     12  C   UNL     1       2.304  -5.151  -0.773  0.00  0.00    +0.022 A 
ATOM     13  C   UNL     1       3.654  -4.876  -0.653  0.00  0.00    +0.041 A 
ATOM     14  C   UNL     1       4.079  -3.591  -0.365  0.00  0.00    +0.022 A 
ATOM     15  C   UNL     1       3.155  -2.578  -0.202  0.00  0.00    +0.029 A 
ATOM     16 CL   UNL     1       4.819  -6.146  -0.863  0.00  0.00    -0.084 Cl
ENDBRANCH   7  10
ENDBRANCH   1   4
BRANCH   1  17
ATOM     17  C   UNL     1      -3.144  -0.832  -1.273  0.00  0.00    +0.008 C 
ATOM     18  C   UNL     1      -3.614  -0.072  -2.239  0.00  0.00    +0.023 C 
ATOM     19  N   UNL     1      -4.121  -0.822  -3.283  0.00  0.00    -0.266 N 
ATOM     20  N   UNL     1      -3.987  -2.190  -3.010  0.00  0.00    -0.221 N 
ATOM     21  C   UNL     1      -3.339  -2.273  -1.690  0.00  0.00    +0.250 C 
ATOM     22  C   UNL     1      -3.602   1.434  -2.209  0.00  0.00    +0.062 C 
ATOM     23  H   UNL     1      -4.514  -0.453  -4.090  0.00  0.00    +0.170 HD
BRANCH  20  24
ATOM     24  C   UNL     1      -4.382  -3.255  -3.824  0.00  0.00    +0.051 A 
ATOM     25  C   UNL     1      -4.183  -4.564  -3.403  0.00  0.00    +0.026 A 
ATOM     26  C   UNL     1      -4.574  -5.614  -4.210  0.00  0.00    +0.022 A 
ATOM     27  C   UNL     1      -5.164  -5.364  -5.436  0.00  0.00    +0.041 A 
ATOM     28  C   UNL     1      -5.364  -4.062  -5.858  0.00  0.00    +0.022 A 
ATOM     29  C   UNL     1      -4.979  -3.007  -5.054  0.00  0.00    +0.026 A 
ATOM     30 CL   UNL     1      -5.654  -6.688  -6.447  0.00  0.00    -0.084 Cl
ENDBRANCH  20  24
BRANCH  21  31
ATOM     31  O   UNL     1      -4.188  -2.950  -0.762  0.00  0.00    -0.369 OA
ATOM     32  H   UNL     1      -4.348  -3.879  -0.981  0.00  0.00    +0.212 HD
ENDBRANCH  21  31
ENDBRANCH   1  17
BRANCH   1  33
ATOM     33  C   UNL     1      -3.182  -1.040   1.179  0.00  0.00    +0.006 A 
ATOM     34  C   UNL     1      -3.113  -2.414   1.304  0.00  0.00    +0.008 A 
ATOM     35  C   UNL     1      -3.722  -3.044   2.373  0.00  0.00    +0.001 A 
ATOM     36  C   UNL     1      -4.400  -2.300   3.322  0.00  0.00    +0.004 A 
ATOM     37  C   UNL     1      -4.471  -0.926   3.202  0.00  0.00    +0.046 A 
ATOM     38  C   UNL     1      -3.856  -0.291   2.132  0.00  0.00    +0.121 A 
BRANCH  38  39
ATOM     39  O   UNL     1      -3.920   1.061   2.015  0.00  0.00    -0.506 OA
ATOM     40  H   UNL     1      -4.683   1.377   1.513  0.00  0.00    +0.292 HD
ENDBRANCH  38  39
ENDBRANCH   1  33
TORSDOF 7
