REMARK  Name = ZINC60351313
REMARK  9 active torsions:
REMARK  status: ('A' for Active; 'I' for Inactive)
REMARK    1  A    between atoms: C_1  and  C_2
REMARK    2  A    between atoms: C_2  and  C_4
REMARK    3  A    between atoms: C_2  and  O_21
REMARK    4  A    between atoms: N_6  and  C_7
REMARK    5  A    between atoms: C_12  and  S_13
REMARK    6  A    between atoms: S_13  and  C_14
REMARK    7  A    between atoms: N_18  and  C_19
REMARK    8  A    between atoms: O_21  and  C_22
REMARK    9  A    between atoms: C_26  and  C_28
REMARK                            x       y       z     vdW  Elec       q    Type
REMARK                         _______ _______ _______ _____ _____    ______ ____
ROOT
ATOM      1  C   UNL     1       0.111  -0.218   1.210  0.00  0.00    +0.258 C 
ATOM      2  O   UNL     1       1.128  -0.745   0.813  0.00  0.00    -0.271 OA
ATOM      3  N   UNL     1      -0.209  -0.272   2.519  0.00  0.00    -0.281 N 
ATOM      4  H   UNL     1      -1.055   0.089   2.826  0.00  0.00    +0.155 HD
ENDROOT
BRANCH   3   5
ATOM      5  C   UNL     1       0.681  -0.848   3.434  0.00  0.00    +0.048 A 
ATOM      6  C   UNL     1       2.049  -0.740   3.236  0.00  0.00    +0.039 A 
ATOM      7  C   UNL     1       2.926  -1.310   4.142  0.00  0.00    +0.020 A 
ATOM      8  C   UNL     1       2.442  -1.989   5.246  0.00  0.00    +0.016 A 
ATOM      9  C   UNL     1       1.079  -2.102   5.451  0.00  0.00    +0.018 A 
ATOM     10  C   UNL     1       0.193  -1.527   4.551  0.00  0.00    +0.037 A 
ATOM     11 BR   UNL     1       4.791  -1.161   3.869  0.00  0.00    -0.050 Br
BRANCH  10  12
ATOM     12  S   UNL     1      -1.544  -1.662   4.814  0.00  0.00    -0.047 S 
BRANCH  12  13
ATOM     13  C   UNL     1      -2.056  -2.889   3.658  0.00  0.00    +0.214 A 
ATOM     14  N   UNL     1      -1.274  -3.604   2.878  0.00  0.00    -0.101 NA
ATOM     15  N   UNL     1      -1.969  -4.407   2.157  0.00  0.00    -0.022 NA
ATOM     16  N   UNL     1      -3.224  -4.269   2.416  0.00  0.00    -0.043 NA
ATOM     17  N   UNL     1      -3.329  -3.279   3.408  0.00  0.00    -0.223 N 
ATOM     18  C   UNL     1      -4.553  -2.773   4.035  0.00  0.00    +0.177 C 
ENDBRANCH  12  13
ENDBRANCH  10  12
ENDBRANCH   3   5
BRANCH   1  20
ATOM     19  C   UNL     1      -0.826   1.988   0.576  0.00  0.00    +0.062 C 
ATOM     20  C   UNL     1      -0.796   0.496   0.242  0.00  0.00    +0.256 C 
BRANCH  20  21
ATOM     21  O   UNL     1      -0.308   0.316  -1.089  0.00  0.00    -0.480 OA
BRANCH  21  22
ATOM     22  C   UNL     1      -1.234   0.246  -2.082  0.00  0.00    +0.123 A 
ATOM     23  C   UNL     1      -2.574   0.470  -1.798  0.00  0.00    +0.046 A 
ATOM     24  C   UNL     1      -3.520   0.401  -2.803  0.00  0.00    +0.005 A 
ATOM     25  C   UNL     1      -3.139   0.107  -4.097  0.00  0.00    +0.019 A 
ATOM     26  C   UNL     1      -1.793  -0.120  -4.392  0.00  0.00    +0.055 A 
ATOM     27  C   UNL     1      -0.839  -0.043  -3.377  0.00  0.00    +0.064 A 
BRANCH  26  28
ATOM     28  C   UNL     1      -1.394  -0.424  -5.733  0.00  0.00    +0.099 C 
ATOM     29  N   UNL     1      -1.076  -0.665  -6.797  0.00  0.00    -0.191 NA
ENDBRANCH  26  28
ENDBRANCH  21  22
ENDBRANCH  20  21
ENDBRANCH   1  20
TORSDOF 7
