REMARK  Name = ZINC05837124
REMARK  11 active torsions:
REMARK  status: ('A' for Active; 'I' for Inactive)
REMARK    1  A    between atoms: C_1  and  C_2
REMARK    2  A    between atoms: C_2  and  C_3
REMARK    3  A    between atoms: C_3  and  O_4
REMARK    4  A    between atoms: O_4  and  C_5
REMARK    5  A    between atoms: C_8  and  C_11
REMARK    6  A    between atoms: C_18  and  N_33
REMARK    7  A    between atoms: C_19  and  C_31
REMARK    8  A    between atoms: C_20  and  C_22
REMARK    9  A    between atoms: C_25  and  N_28
REMARK   10  A    between atoms: N_28  and  C_29
REMARK   11  A    between atoms: N_28  and  C_30
REMARK                            x       y       z     vdW  Elec       q    Type
REMARK                         _______ _______ _______ _____ _____    ______ ____
ROOT
ATOM      1  C   UNL     1      -6.349  -4.581   0.045  0.00  0.00    +0.100 A 
ATOM      2  C   UNL     1      -6.665  -5.781  -0.600  0.00  0.00    +0.054 A 
ATOM      3  C   UNL     1      -7.974  -6.067  -0.342  0.00  0.00    +0.223 A 
ATOM      4  N   UNL     1      -8.465  -5.081   0.437  0.00  0.00    -0.246 N 
ATOM      5  H   UNL     1      -9.371  -5.019   0.777  0.00  0.00    +0.192 HD
ATOM      6  N   UNL     1      -7.431  -4.161   0.674  0.00  0.00    -0.171 NA
ATOM      7  O   UNL     1      -8.591  -7.175  -0.825  0.00  0.00    -0.423 OA
ATOM      8  C   UNL     1      -7.813  -8.144  -1.348  0.00  0.00    +0.200 C 
ATOM      9  C   UNL     1      -6.508  -7.976  -1.657  0.00  0.00    +0.098 C 
ATOM     10  C   UNL     1      -5.789  -6.667  -1.447  0.00  0.00    +0.102 C 
ENDROOT
BRANCH   1  14
ATOM     11  C   UNL     1      -2.566  -2.638   0.006  0.00  0.00    +0.121 A 
ATOM     12  C   UNL     1      -3.731  -1.884   0.023  0.00  0.00    +0.046 A 
ATOM     13  C   UNL     1      -4.959  -2.511   0.036  0.00  0.00    +0.013 A 
ATOM     14  C   UNL     1      -5.029  -3.903   0.031  0.00  0.00    +0.003 A 
ATOM     15  C   UNL     1      -3.858  -4.657   0.013  0.00  0.00    +0.013 A 
ATOM     16  C   UNL     1      -2.632  -4.024  -0.005  0.00  0.00    +0.046 A 
BRANCH  11  17
ATOM     17  O   UNL     1      -1.357  -2.017  -0.007  0.00  0.00    -0.492 OA
BRANCH  17  18
ATOM     18  C   UNL     1      -1.361  -0.588   0.005  0.00  0.00    +0.229 C 
BRANCH  18  20
ATOM     19  C   UNL     1       0.075   1.457   0.001  0.00  0.00    +0.007 C 
ATOM     20  C   UNL     1       0.080  -0.073  -0.012  0.00  0.00    +0.038 C 
ENDBRANCH  18  20
ENDBRANCH  17  18
ENDBRANCH  11  17
ENDBRANCH   1  14
BRANCH  10  21
ATOM     21  C   UNL     1      -5.535  -6.007  -2.778  0.00  0.00    -0.034 A 
ATOM     22  C   UNL     1      -6.596  -5.692  -3.606  0.00  0.00    +0.006 A 
ATOM     23  C   UNL     1      -6.366  -5.088  -4.826  0.00  0.00    +0.023 A 
ATOM     24  C   UNL     1      -5.067  -4.795  -5.221  0.00  0.00    +0.029 A 
ATOM     25  C   UNL     1      -4.003  -5.113  -4.386  0.00  0.00    +0.023 A 
ATOM     26  C   UNL     1      -4.240  -5.712  -3.165  0.00  0.00    +0.006 A 
BRANCH  24  27
ATOM     27  N   UNL     1      -4.831  -4.184  -6.455  0.00  0.00    -0.336 N 
ATOM     28  C   UNL     1      -5.939  -3.964  -7.387  0.00  0.00    +0.129 C 
ATOM     29  C   UNL     1      -3.475  -3.763  -6.816  0.00  0.00    +0.129 C 
ENDBRANCH  24  27
ENDBRANCH  10  21
BRANCH   8  30
ATOM     30  N   UNL     1      -8.379  -9.373  -1.580  0.00  0.00    -0.328 N 
ATOM     31  H   UNL     1      -9.314  -9.524  -1.368  0.00  0.00    +0.145 HD
ATOM     32  H   UNL     1      -7.845 -10.090  -1.956  0.00  0.00    +0.145 HD
ENDBRANCH   8  30
BRANCH   9  33
ATOM     33  C   UNL     1      -5.780  -9.082  -2.203  0.00  0.00    +0.101 C 
ATOM     34  N   UNL     1      -5.203  -9.960  -2.637  0.00  0.00    -0.191 NA
ENDBRANCH   9  33
TORSDOF 8
