REMARK  Name = ZINC39711150
REMARK  10 active torsions:
REMARK  status: ('A' for Active; 'I' for Inactive)
REMARK    1  A    between atoms: C_1  and  C_2
REMARK    2  A    between atoms: C_4  and  C_40
REMARK    3  A    between atoms: C_7  and  C_14
REMARK    4  A    between atoms: C_14  and  C_16
REMARK    5  A    between atoms: C_14  and  N_27
REMARK    6  A    between atoms: N_21  and  C_22
REMARK    7  A    between atoms: N_27  and  C_28
REMARK    8  A    between atoms: N_27  and  C_34
REMARK    9  A    between atoms: C_28  and  C_29
REMARK   10  A    between atoms: C_34  and  C_35
REMARK                            x       y       z     vdW  Elec       q    Type
REMARK                         _______ _______ _______ _____ _____    ______ ____
ROOT
ATOM      1  C   UNL     1       1.016  -6.551   1.401  0.00  0.00    -0.010 C 
ENDROOT
BRANCH   1   8
ATOM      2  C   UNL     1      -6.291  -7.502   0.016  0.00  0.00    +0.044 C 
ATOM      3  C   UNL     1      -4.911  -7.460   0.620  0.00  0.00    -0.048 A 
ATOM      4  C   UNL     1      -4.460  -8.568   1.338  0.00  0.00    +0.007 A 
ATOM      5  C   UNL     1      -3.226  -8.589   1.905  0.00  0.00    -0.042 A 
ATOM      6  C   UNL     1      -2.360  -7.419   1.753  0.00  0.00    -0.004 A 
ATOM      7  C   UNL     1      -1.113  -7.396   2.305  0.00  0.00    -0.006 C 
ATOM      8  C   UNL     1      -0.285  -6.143   2.097  0.00  0.00    +0.088 C 
ATOM      9  C   UNL     1      -0.908  -5.023   1.295  0.00  0.00    +0.223 C 
ATOM     10  O   UNL     1      -0.287  -3.995   1.097  0.00  0.00    -0.275 OA
ATOM     11  N   UNL     1      -2.129  -5.165   0.809  0.00  0.00    -0.285 N 
ATOM     12  C   UNL     1      -2.861  -6.264   0.990  0.00  0.00    +0.041 A 
ATOM     13  C   UNL     1      -4.153  -6.346   0.439  0.00  0.00    +0.027 A 
ATOM     14  C   UNL     1      -2.758  -9.795   2.678  0.00  0.00    +0.044 C 
ATOM     15  H   UNL     1      -2.511  -4.434   0.297  0.00  0.00    +0.155 HD
ENDBRANCH   1   8
BRANCH   1  16
ATOM     16  C   UNL     1       2.055  -5.441   1.573  0.00  0.00    +0.183 C 
ATOM     17  N   UNL     1       1.766  -4.636   2.774  0.00  0.00    -0.229 N 
ATOM     18  N   UNL     1       1.532  -3.334   2.314  0.00  0.00    -0.064 NA
ATOM     19  N   UNL     1       1.631  -3.238   1.094  0.00  0.00    -0.061 NA
ATOM     20  N   UNL     1       1.954  -4.457   0.478  0.00  0.00    -0.213 N 
ATOM     21  H   UNL     1       1.742  -4.944   3.693  0.00  0.00    +0.172 HD
BRANCH  20  22
ATOM     22  C   UNL     1       2.150  -4.704  -0.952  0.00  0.00    +0.096 C 
ATOM     23  C   UNL     1       3.340  -3.873  -1.474  0.00  0.00    +0.024 C 
ATOM     24  C   UNL     1       2.905  -3.436  -2.894  0.00  0.00    +0.002 C 
ATOM     25  C   UNL     1       1.394  -3.147  -2.715  0.00  0.00    +0.002 C 
ATOM     26  C   UNL     1       0.912  -4.242  -1.741  0.00  0.00    +0.024 C 
ENDBRANCH  20  22
ENDBRANCH   1  16
BRANCH   1  27
ATOM     27  N   UNL     1       1.522  -7.793   1.999  0.00  0.00    +0.392 N 
ATOM     28  H   UNL     1       0.776  -8.470   2.050  0.00  0.00    -0.080 HD
BRANCH  27  29
ATOM     29  C   UNL     1       2.611  -8.327   1.170  0.00  0.00    -0.002 C 
BRANCH  29  30
ATOM     30  C   UNL     1       2.049  -8.830  -0.135  0.00  0.00    +0.089 A 
ATOM     31  C   UNL     1       2.178  -8.228  -1.331  0.00  0.00    +0.042 A 
ATOM     32  C   UNL     1       1.501  -9.038  -2.272  0.00  0.00    +0.041 A 
ATOM     33  C   UNL     1       0.999 -10.086  -1.595  0.00  0.00    +0.195 A 
ATOM     34  O   UNL     1       1.339  -9.958  -0.301  0.00  0.00    -0.470 OA
ENDBRANCH  29  30
ENDBRANCH  27  29
BRANCH  27  35
ATOM     35  C   UNL     1       2.027  -7.516   3.350  0.00  0.00    -0.034 C 
BRANCH  35  36
ATOM     36  C   UNL     1       0.866  -7.381   4.302  0.00  0.00    -0.027 A 
ATOM     37  C   UNL     1       0.096  -8.351   4.853  0.00  0.00    +0.009 A 
ATOM     38  C   UNL     1      -0.926  -7.989   5.710  0.00  0.00    +0.008 A 
ATOM     39  C   UNL     1      -1.129  -6.675   5.974  0.00  0.00    +0.045 A 
ATOM     40  S   UNL     1       0.153  -5.901   5.002  0.00  0.00    -0.103 S 
ENDBRANCH  35  36
ENDBRANCH  27  35
ENDBRANCH   1  27
TORSDOF 8
