REMARK  Name = ZINC64066820
REMARK  7 active torsions:
REMARK  status: ('A' for Active; 'I' for Inactive)
REMARK    1  A    between atoms: C_1  and  O_2
REMARK    2  A    between atoms: O_2  and  C_3
REMARK    3  A    between atoms: C_6  and  C_9
REMARK    4  A    between atoms: C_9  and  C_10
REMARK    5  A    between atoms: N_19  and  C_20
REMARK    6  A    between atoms: C_26  and  C_28
REMARK    7  A    between atoms: C_28  and  C_29
REMARK                            x       y       z     vdW  Elec       q    Type
REMARK                         _______ _______ _______ _____ _____    ______ ____
ROOT
ATOM      1  C   UNL     1       3.986  -2.723  -4.066  0.00  0.00    +0.163 C 
ATOM      2  N   UNL     1       4.657  -1.433  -3.864  0.00  0.00    -0.324 N 
ATOM      3  C   UNL     1       5.659  -1.327  -4.839  0.00  0.00    +0.050 A 
ATOM      4  C   UNL     1       6.575  -0.311  -5.085  0.00  0.00    +0.025 A 
ATOM      5  C   UNL     1       7.484  -0.431  -6.119  0.00  0.00    +0.002 A 
ATOM      6  C   UNL     1       7.485  -1.562  -6.913  0.00  0.00    +0.002 A 
ATOM      7  C   UNL     1       6.579  -2.578  -6.676  0.00  0.00    +0.025 A 
ATOM      8  C   UNL     1       5.661  -2.466  -5.639  0.00  0.00    +0.052 A 
ATOM      9  N   UNL     1       4.659  -3.350  -5.209  0.00  0.00    -0.307 N 
ATOM     10  H   UNL     1       4.446  -0.776  -3.183  0.00  0.00    +0.148 HD
ENDROOT
BRANCH   9  11
ATOM     11  C   UNL     1       4.344  -4.657  -5.793  0.00  0.00    +0.078 C 
ATOM     12  C   UNL     1       3.945  -4.477  -7.259  0.00  0.00    +0.041 C 
ATOM     13  C   UNL     1       3.582  -5.841  -7.856  0.00  0.00    +0.109 C 
ATOM     14  N   UNL     1       4.706  -6.763  -7.645  0.00  0.00    -0.301 N 
ATOM     15  C   UNL     1       5.229  -6.941  -6.284  0.00  0.00    +0.109 C 
ATOM     16  C   UNL     1       5.572  -5.565  -5.704  0.00  0.00    +0.041 C 
ATOM     17  C   UNL     1       5.247  -7.434  -8.681  0.00  0.00    +0.220 C 
ATOM     18  O   UNL     1       4.807  -7.279  -9.801  0.00  0.00    -0.275 OA
BRANCH  17  19
ATOM     19  C   UNL     1       6.400  -8.377  -8.449  0.00  0.00    +0.129 C 
BRANCH  19  20
ATOM     20  C   UNL     1       6.816  -8.995  -9.759  0.00  0.00    -0.033 C 
ATOM     21  C   UNL     1       7.804  -8.572 -10.580  0.00  0.00    -0.001 A 
ATOM     22  C   UNL     1       8.751  -7.453 -10.503  0.00  0.00    +0.010 A 
ATOM     23  C   UNL     1       9.646  -7.281 -11.502  0.00  0.00    +0.001 A 
ATOM     24  C   UNL     1       9.691  -8.141 -12.607  0.00  0.00    +0.002 A 
ATOM     25  C   UNL     1       8.854  -9.191 -12.749  0.00  0.00    +0.026 A 
ATOM     26  C   UNL     1       7.873  -9.467 -11.757  0.00  0.00    +0.043 A 
ATOM     27  N   UNL     1       6.963 -10.406 -11.668  0.00  0.00    -0.380 N 
ATOM     28  C   UNL     1       6.216 -10.216 -10.419  0.00  0.00    +0.145 C 
ATOM     29  H   UNL     1       6.811 -11.111 -12.316  0.00  0.00    +0.160 HD
ENDBRANCH  19  20
ENDBRANCH  17  19
ENDBRANCH   9  11
BRANCH   1  30
ATOM     30  C   UNL     1       2.505  -2.503  -4.381  0.00  0.00    +0.077 C 
BRANCH  30  34
ATOM     31  C   UNL     1       0.606  -0.607  -1.056  0.00  0.00    +0.120 A 
ATOM     32  C   UNL     1       1.173   0.161  -2.062  0.00  0.00    +0.046 A 
ATOM     33  C   UNL     1       1.786  -0.455  -3.136  0.00  0.00    +0.007 A 
ATOM     34  C   UNL     1       1.835  -1.835  -3.209  0.00  0.00    -0.044 A 
ATOM     35  C   UNL     1       1.270  -2.602  -2.207  0.00  0.00    +0.007 A 
ATOM     36  C   UNL     1       0.661  -1.992  -1.128  0.00  0.00    +0.046 A 
BRANCH  31  38
ATOM     37  C   UNL     1      -0.017   1.425   0.010  0.00  0.00    +0.277 C 
ATOM     38  O   UNL     1       0.002  -0.004   0.002  0.00  0.00    -0.495 OA
ENDBRANCH  31  38
ENDBRANCH  30  34
ENDBRANCH   1  30
TORSDOF 6
