REMARK  Name = ZINC66984978
REMARK  6 active torsions:
REMARK  status: ('A' for Active; 'I' for Inactive)
REMARK    1  A    between atoms: C_1  and  C_2
REMARK    2  A    between atoms: N_7  and  C_9
REMARK    3  A    between atoms: C_9  and  C_10
REMARK    4  A    between atoms: C_10  and  C_11
REMARK    5  A    between atoms: C_11  and  N_12
REMARK    6  A    between atoms: C_21  and  C_23
REMARK                            x       y       z     vdW  Elec       q    Type
REMARK                         _______ _______ _______ _____ _____    ______ ____
ROOT
ATOM      1  N   UNL     1       0.953  -6.123   4.395  0.00  0.00    -0.299 N 
ATOM      2  C   UNL     1       1.659  -6.770   5.343  0.00  0.00    +0.302 C 
ATOM      3  O   UNL     1       2.259  -6.139   6.191  0.00  0.00    -0.253 OA
ATOM      4  N   UNL     1       1.698  -8.117   5.351  0.00  0.00    -0.283 N 
ATOM      5  C   UNL     1       1.078  -8.890   4.266  0.00  0.00    +0.128 C 
ATOM      6  C   UNL     1       2.134  -9.826   3.665  0.00  0.00    +0.127 C 
ATOM      7  N   UNL     1       2.799 -10.548   4.759  0.00  0.00    -0.298 N 
ATOM      8  C   UNL     1       3.420  -9.775   5.844  0.00  0.00    +0.127 C 
ATOM      9  C   UNL     1       2.368  -8.839   6.442  0.00  0.00    +0.128 C 
ATOM     10  C   UNL     1       2.839 -11.895   4.767  0.00  0.00    +0.219 C 
ATOM     11  O   UNL     1       3.336 -12.482   5.705  0.00  0.00    -0.275 OA
ATOM     12  H   UNL     1       0.533  -6.622   3.677  0.00  0.00    +0.150 HD
ENDROOT
BRANCH  10  13
ATOM     13  C   UNL     1       2.265 -12.673   3.611  0.00  0.00    +0.075 C 
ATOM     14  C   UNL     1       3.099 -12.409   2.355  0.00  0.00    +0.013 C 
ATOM     15  C   UNL     1       2.517 -13.199   1.181  0.00  0.00    +0.001 C 
ATOM     16  C   UNL     1       2.545 -14.693   1.508  0.00  0.00    +0.000 C 
ATOM     17  C   UNL     1       1.712 -14.957   2.763  0.00  0.00    +0.001 C 
ATOM     18  C   UNL     1       2.294 -14.168   3.937  0.00  0.00    +0.013 C 
ENDBRANCH  10  13
BRANCH   1  19
ATOM     19  C   UNL     1       0.819  -4.665   4.449  0.00  0.00    +0.104 C 
BRANCH  19  20
ATOM     20  C   UNL     1      -0.023  -4.186   3.265  0.00  0.00    +0.000 C 
BRANCH  20  21
ATOM     21  C   UNL     1      -0.163  -2.663   3.321  0.00  0.00    -0.077 C 
BRANCH  21  27
ATOM     22  C   UNL     1      -2.369   1.213   1.303  0.00  0.00    +0.005 C 
ATOM     23  C   UNL     1      -2.122  -0.291   1.172  0.00  0.00    -0.031 C 
ATOM     24  C   UNL     1      -1.445  -0.583  -0.170  0.00  0.00    -0.001 C 
ATOM     25  C   UNL     1      -1.131  -2.079  -0.257  0.00  0.00    -0.018 C 
ATOM     26  C   UNL     1      -0.258  -2.482   0.933  0.00  0.00    -0.079 C 
ATOM     27  N   UNL     1      -0.972  -2.203   2.185  0.00  0.00    +0.380 N 
ATOM     28  C   UNL     1      -1.213  -0.761   2.310  0.00  0.00    -0.076 C 
ATOM     29  H   UNL     1      -1.855  -2.691   2.183  0.00  0.00    -0.082 HD
ENDBRANCH  21  27
ENDBRANCH  20  21
ENDBRANCH  19  20
ENDBRANCH   1  19
TORSDOF 5
