REMARK  Name = ZINC16534184
REMARK  6 active torsions:
REMARK  status: ('A' for Active; 'I' for Inactive)
REMARK    1  A    between atoms: C_4  and  C_7
REMARK    2  A    between atoms: C_8  and  C_20
REMARK    3  A    between atoms: C_9  and  O_19
REMARK    4  A    between atoms: N_10  and  C_12
REMARK    5  A    between atoms: N_24  and  C_28
REMARK    6  A    between atoms: C_28  and  C_29
REMARK                            x       y       z     vdW  Elec       q    Type
REMARK                         _______ _______ _______ _____ _____    ______ ____
ROOT
ATOM      1  C   UNL     1      -3.380  -1.109   0.027  0.00  0.00    +0.104 A 
ATOM      2  C   UNL     1      -2.657  -2.388   0.014  0.00  0.00    +0.066 A 
ATOM      3  C   UNL     1      -1.302  -2.068  -0.003  0.00  0.00    +0.224 A 
ATOM      4  N   UNL     1      -1.201  -0.723   0.009  0.00  0.00    -0.198 N 
ATOM      5  N   UNL     1      -2.477  -0.155   0.023  0.00  0.00    -0.163 NA
ENDROOT
BRANCH   2   6
ATOM      6  C   UNL     1      -3.244  -3.727   0.013  0.00  0.00    +0.044 C 
ATOM      7  C   UNL     1      -2.830  -4.650  -0.899  0.00  0.00    +0.099 C 
ATOM      8  C   UNL     1      -3.290  -5.987  -1.031  0.00  0.00    +0.269 C 
ATOM      9  O   UNL     1      -4.137  -6.532  -0.346  0.00  0.00    -0.268 OA
ATOM     10  N   UNL     1      -2.616  -6.538  -2.059  0.00  0.00    -0.216 N 
ATOM     11  C   UNL     1      -1.761  -5.638  -2.572  0.00  0.00    +0.313 C 
ATOM     12  O   UNL     1      -1.010  -5.841  -3.507  0.00  0.00    -0.252 OA
ATOM     13  N   UNL     1      -1.858  -4.477  -1.897  0.00  0.00    -0.265 N 
ATOM     14  H   UNL     1      -1.349  -3.669  -2.068  0.00  0.00    +0.157 HD
BRANCH  10  15
ATOM     15  C   UNL     1      -2.785  -7.911  -2.540  0.00  0.00    +0.155 C 
BRANCH  15  16
ATOM     16  C   UNL     1      -1.838  -8.822  -1.802  0.00  0.00    -0.011 A 
ATOM     17  C   UNL     1      -0.655  -9.219  -2.398  0.00  0.00    +0.006 A 
ATOM     18  C   UNL     1       0.216 -10.050  -1.720  0.00  0.00    +0.000 A 
ATOM     19  C   UNL     1      -0.100 -10.494  -0.449  0.00  0.00    +0.001 A 
ATOM     20  C   UNL     1      -1.284 -10.102   0.146  0.00  0.00    +0.020 A 
ATOM     21  C   UNL     1      -2.154  -9.265  -0.531  0.00  0.00    +0.046 A 
ATOM     22 CL   UNL     1      -3.641  -8.772   0.216  0.00  0.00    -0.083 Cl
ENDBRANCH  15  16
ENDBRANCH  10  15
ENDBRANCH   2   6
BRANCH   4  23
ATOM     23  C   UNL     1       0.002  -0.004   0.002  0.00  0.00    +0.087 A 
ATOM     24  C   UNL     1       1.216  -0.679  -0.013  0.00  0.00    +0.029 A 
ATOM     25  C   UNL     1       2.400   0.032  -0.021  0.00  0.00    +0.002 A 
ATOM     26  C   UNL     1       2.378   1.415  -0.013  0.00  0.00    +0.002 A 
ATOM     27  C   UNL     1       1.172   2.091   0.002  0.00  0.00    +0.022 A 
ATOM     28  C   UNL     1      -0.017   1.385   0.010  0.00  0.00    +0.066 A 
ATOM     29 CL   UNL     1      -1.531   2.234   0.021  0.00  0.00    -0.081 Cl
ENDBRANCH   4  23
BRANCH   1  33
ATOM     30  C   UNL     1      -7.599  -0.593   0.064  0.00  0.00    +0.000 A 
ATOM     31  C   UNL     1      -6.790   0.295   0.750  0.00  0.00    +0.001 A 
ATOM     32  C   UNL     1      -5.420   0.133   0.742  0.00  0.00    +0.010 A 
ATOM     33  C   UNL     1      -4.851  -0.929   0.040  0.00  0.00    +0.003 A 
ATOM     34  C   UNL     1      -5.671  -1.818  -0.654  0.00  0.00    +0.010 A 
ATOM     35  C   UNL     1      -7.040  -1.648  -0.634  0.00  0.00    +0.001 A 
ENDBRANCH   1  33
BRANCH   3  36
ATOM     36  O   UNL     1      -0.273  -2.948  -0.023  0.00  0.00    -0.492 OA
ATOM     37  H   UNL     1       0.036  -3.212   0.854  0.00  0.00    +0.294 HD
ENDBRANCH   3  36
TORSDOF 6
