REMARK  Name = ZINC38754268
REMARK  5 active torsions:
REMARK  status: ('A' for Active; 'I' for Inactive)
REMARK    1  A    between atoms: C_5  and  C_7
REMARK    2  A    between atoms: C_9  and  C_12
REMARK    3  A    between atoms: C_12  and  N_13
REMARK    4  A    between atoms: C_14  and  C_16
REMARK    5  A    between atoms: C_16  and  C_17
REMARK                            x       y       z     vdW  Elec       q    Type
REMARK                         _______ _______ _______ _____ _____    ______ ____
ROOT
ATOM      1  N   UNL     1      -3.578  -5.400  -0.580  0.00  0.00    -0.310 N 
ATOM      2  C   UNL     1      -3.741  -6.525   0.145  0.00  0.00    +0.215 C 
ATOM      3  O   UNL     1      -4.718  -6.656   0.851  0.00  0.00    -0.276 OA
ATOM      4  H   UNL     1      -2.797  -5.296  -1.144  0.00  0.00    +0.149 HD
ENDROOT
BRANCH   1   5
ATOM      5  C   UNL     1      -4.582  -4.335  -0.514  0.00  0.00    +0.163 C 
BRANCH   5   8
ATOM      6  C   UNL     1      -3.990  -1.867  -3.198  0.00  0.00    +0.170 A 
ATOM      7  C   UNL     1      -4.582  -3.002  -2.735  0.00  0.00    +0.077 A 
ATOM      8  C   UNL     1      -4.167  -3.197  -1.410  0.00  0.00    +0.101 A 
ATOM      9  N   UNL     1      -3.361  -2.225  -1.086  0.00  0.00    -0.081 NA
ATOM     10  O   UNL     1      -3.227  -1.369  -2.206  0.00  0.00    -0.354 OA
BRANCH   6  15
ATOM     11  C   UNL     1      -4.142  -1.545  -6.936  0.00  0.00    +0.001 A 
ATOM     12  C   UNL     1      -4.450  -0.203  -7.080  0.00  0.00    +0.003 A 
ATOM     13  C   UNL     1      -4.609   0.600  -5.966  0.00  0.00    +0.039 A 
ATOM     14  C   UNL     1      -4.461   0.066  -4.699  0.00  0.00    +0.134 A 
ATOM     15  C   UNL     1      -4.150  -1.288  -4.548  0.00  0.00    +0.055 A 
ATOM     16  C   UNL     1      -3.991  -2.091  -5.679  0.00  0.00    +0.014 A 
ATOM     17  F   UNL     1      -4.616   0.851  -3.611  0.00  0.00    -0.205 F 
ENDBRANCH   6  15
ENDBRANCH   5   8
ENDBRANCH   1   5
BRANCH   2  18
ATOM     18  C   UNL     1      -2.708  -7.620   0.077  0.00  0.00    +0.119 C 
BRANCH  18  19
ATOM     19  C   UNL     1      -3.200  -8.835   0.867  0.00  0.00    +0.102 C 
ATOM     20  C   UNL     1      -4.494  -9.364   0.206  0.00  0.00    +0.100 C 
ATOM     21  S   UNL     1      -3.822 -10.833  -0.680  0.00  0.00    -0.088 S 
ATOM     22  C   UNL     1      -2.332 -11.033   0.263  0.00  0.00    +0.159 C 
ATOM     23  N   UNL     1      -1.569 -12.077   0.345  0.00  0.00    -0.259 NA
ATOM     24  C   UNL     1      -0.427 -12.027   1.257  0.00  0.00    +0.120 C 
ATOM     25  C   UNL     1       0.682 -12.986   0.834  0.00  0.00    +0.027 C 
ATOM     26  C   UNL     1       1.796 -12.942   1.886  0.00  0.00    +0.002 C 
ATOM     27  C   UNL     1       2.343 -11.521   2.015  0.00  0.00    +0.001 C 
ATOM     28  C   UNL     1       1.218 -10.556   2.406  0.00  0.00    +0.015 C 
ATOM     29  C   UNL     1       0.150 -10.616   1.315  0.00  0.00    +0.100 C 
ATOM     30  C   UNL     1      -0.936  -9.608   1.560  0.00  0.00    +0.227 C 
ATOM     31  O   UNL     1      -0.766  -8.653   2.287  0.00  0.00    -0.275 OA
ATOM     32  N   UNL     1      -2.134  -9.823   0.915  0.00  0.00    -0.246 N 
ENDBRANCH  18  19
ENDBRANCH   2  18
TORSDOF 5
