REMARK  Name = ZINC12529145
REMARK  10 active torsions:
REMARK  status: ('A' for Active; 'I' for Inactive)
REMARK    1  A    between atoms: C_1  and  O_2
REMARK    2  A    between atoms: O_2  and  C_3
REMARK    3  A    between atoms: C_6  and  N_9
REMARK    4  A    between atoms: N_9  and  S_10
REMARK    5  A    between atoms: S_10  and  C_13
REMARK    6  A    between atoms: C_16  and  N_22
REMARK    7  A    between atoms: C_17  and  N_19
REMARK    8  A    between atoms: N_22  and  N_23
REMARK    9  A    between atoms: C_24  and  C_25
REMARK   10  A    between atoms: C_28  and  C_31
REMARK                            x       y       z     vdW  Elec       q    Type
REMARK                         _______ _______ _______ _____ _____    ______ ____
ROOT
ATOM      1  C   UNL     1       0.978  -0.293   1.604  0.00  0.00    +0.111 A 
ATOM      2  C   UNL     1       2.358  -0.348   1.682  0.00  0.00    +0.031 A 
ATOM      3  C   UNL     1       2.973  -0.568   2.898  0.00  0.00    +0.029 A 
ATOM      4  C   UNL     1       2.204  -0.744   4.043  0.00  0.00    +0.079 A 
ATOM      5  C   UNL     1       0.818  -0.693   3.959  0.00  0.00    +0.150 A 
ATOM      6  C   UNL     1       0.209  -0.468   2.740  0.00  0.00    +0.063 A 
ENDROOT
BRANCH   1   7
ATOM      7  S   UNL     1       0.197  -0.007   0.050  0.00  0.00    +0.072 S 
ATOM      8  O   UNL     1      -1.150  -0.439   0.187  0.00  0.00    -0.150 OA
ATOM      9  O   UNL     1       1.067  -0.530  -0.944  0.00  0.00    -0.150 OA
BRANCH   7  10
ATOM     10  N   UNL     1       0.148   1.632  -0.179  0.00  0.00    -0.216 N 
ATOM     11  H   UNL     1       0.637   2.034  -0.914  0.00  0.00    +0.174 HD
BRANCH  10  15
ATOM     12  C   UNL     1      -2.063   4.033   2.414  0.00  0.00    +0.120 A 
ATOM     13  C   UNL     1      -0.778   4.406   2.050  0.00  0.00    +0.047 A 
ATOM     14  C   UNL     1      -0.045   3.611   1.191  0.00  0.00    +0.028 A 
ATOM     15  C   UNL     1      -0.594   2.438   0.692  0.00  0.00    +0.048 A 
ATOM     16  C   UNL     1      -1.883   2.068   1.053  0.00  0.00    +0.028 A 
ATOM     17  C   UNL     1      -2.613   2.861   1.916  0.00  0.00    +0.047 A 
BRANCH  12  19
ATOM     18  C   UNL     1      -4.101   4.372   3.592  0.00  0.00    +0.277 C 
ATOM     19  O   UNL     1      -2.784   4.817   3.260  0.00  0.00    -0.495 OA
ENDBRANCH  12  19
ENDBRANCH  10  15
ENDBRANCH   7  10
ENDBRANCH   1   7
BRANCH   5  20
ATOM     20  N   UNL     1      -0.005  -0.880   5.175  0.00  0.00    +0.058 N 
ATOM     21  O   UNL     1      -1.212  -0.724   5.123  0.00  0.00    -0.126 OA
ATOM     22  O   UNL     1       0.524  -1.189   6.228  0.00  0.00    -0.126 OA
ENDBRANCH   5  20
BRANCH   4  23
ATOM     23  N   UNL     1       2.823  -0.971   5.273  0.00  0.00    -0.236 N 
ATOM     24  H   UNL     1       2.286  -1.168   6.056  0.00  0.00    +0.174 HD
BRANCH  23  25
ATOM     25  N   UNL     1       4.219  -0.914   5.376  0.00  0.00    -0.190 NA
ATOM     26  C   UNL     1       4.794  -1.125   6.521  0.00  0.00    +0.138 C 
BRANCH  26  27
ATOM     27  C   UNL     1       6.263  -1.065   6.630  0.00  0.00    -0.005 A 
ATOM     28  C   UNL     1       7.040  -0.786   5.502  0.00  0.00    +0.010 A 
ATOM     29  C   UNL     1       8.413  -0.727   5.612  0.00  0.00    +0.013 A 
ATOM     30  C   UNL     1       9.023  -0.953   6.834  0.00  0.00    +0.055 A 
ATOM     31  C   UNL     1       8.261  -1.234   7.954  0.00  0.00    +0.013 A 
ATOM     32  C   UNL     1       6.886  -1.291   7.859  0.00  0.00    +0.010 A 
BRANCH  30  33
ATOM     33  C   UNL     1      10.525  -0.892   6.945  0.00  0.00    +0.417 C 
ATOM     34  F   UNL     1      11.062  -2.161   6.705  0.00  0.00    -0.166 F 
ATOM     35  F   UNL     1      11.026   0.013   6.002  0.00  0.00    -0.166 F 
ATOM     36  F   UNL     1      10.880  -0.470   8.230  0.00  0.00    -0.166 F 
ENDBRANCH  30  33
ENDBRANCH  26  27
ENDBRANCH  23  25
ENDBRANCH   4  23
TORSDOF 9
