REMARK  Name = ZINC12377087
REMARK  6 active torsions:
REMARK  status: ('A' for Active; 'I' for Inactive)
REMARK    1  A    between atoms: C_4  and  N_7
REMARK    2  A    between atoms: C_8  and  N_34
REMARK    3  A    between atoms: C_13  and  S_14
REMARK    4  A    between atoms: S_14  and  C_15
REMARK    5  A    between atoms: C_15  and  C_16
REMARK    6  A    between atoms: N_21  and  C_24
REMARK                            x       y       z     vdW  Elec       q    Type
REMARK                         _______ _______ _______ _____ _____    ______ ____
ROOT
ATOM      1  C   UNL     1       6.587   3.786  -0.476  0.00  0.00    +0.226 C 
ATOM      2  O   UNL     1       5.582   4.464  -0.460  0.00  0.00    -0.275 OA
ATOM      3  N   UNL     1       7.795   4.375  -0.583  0.00  0.00    -0.304 N 
ATOM      4  C   UNL     1       9.027   3.572  -0.610  0.00  0.00    +0.089 C 
ATOM      5  C   UNL     1       9.870   4.016  -1.811  0.00  0.00    -0.059 C 
ATOM      6  N   UNL     1      10.092   5.465  -1.743  0.00  0.00    +0.385 N 
ATOM      7  C   UNL     1       8.813   6.174  -1.874  0.00  0.00    -0.059 C 
ATOM      8  C   UNL     1       7.918   5.837  -0.682  0.00  0.00    +0.089 C 
ATOM      9  H   UNL     1      10.515   5.698  -0.857  0.00  0.00    -0.081 HD
ENDROOT
BRANCH   6  10
ATOM     10  C   UNL     1      10.989   5.873  -2.832  0.00  0.00    -0.065 C 
ATOM     11  C   UNL     1      12.327   5.144  -2.690  0.00  0.00    -0.009 C 
ATOM     12  C   UNL     1      13.262   5.568  -3.825  0.00  0.00    -0.012 C 
ATOM     13  C   UNL     1      13.495   7.079  -3.755  0.00  0.00    +0.007 C 
ATOM     14  C   UNL     1      12.157   7.808  -3.897  0.00  0.00    -0.012 C 
ATOM     15  C   UNL     1      11.222   7.384  -2.762  0.00  0.00    -0.009 C 
ATOM     16  C   UNL     1      11.522   7.452  -5.242  0.00  0.00    +0.007 C 
ATOM     17  C   UNL     1      11.289   5.941  -5.311  0.00  0.00    -0.012 C 
ATOM     18  C   UNL     1      12.626   5.212  -5.170  0.00  0.00    +0.007 C 
ATOM     19  C   UNL     1      10.354   5.516  -4.177  0.00  0.00    -0.009 C 
ENDBRANCH   6  10
BRANCH   1  20
ATOM     20  C   UNL     1       6.486   2.286  -0.376  0.00  0.00    +0.173 C 
BRANCH  20  21
ATOM     21  S   UNL     1       4.742   1.805  -0.245  0.00  0.00    -0.078 S 
BRANCH  21  28
ATOM     22  N   UNL     1       3.624  -0.651  -0.026  0.00  0.00    -0.277 N 
ATOM     23  C   UNL     1       3.644  -2.021   0.053  0.00  0.00    +0.108 A 
ATOM     24  C   UNL     1       4.845  -2.668   0.024  0.00  0.00    +0.114 A 
ATOM     25  C   UNL     1       6.027  -1.908  -0.087  0.00  0.00    +0.276 A 
ATOM     26  O   UNL     1       7.115  -2.465  -0.116  0.00  0.00    -0.266 OA
ATOM     27  N   UNL     1       5.954  -0.570  -0.161  0.00  0.00    -0.185 NA
ATOM     28  C   UNL     1       4.791   0.047  -0.137  0.00  0.00    +0.179 A 
BRANCH  22  32
ATOM     29  C   UNL     1      -0.015   1.380   0.058  0.00  0.00    +0.000 A 
ATOM     30  C   UNL     1       0.533   0.995  -1.152  0.00  0.00    +0.002 A 
ATOM     31  C   UNL     1       1.738   0.322  -1.183  0.00  0.00    +0.026 A 
ATOM     32  C   UNL     1       2.401   0.032   0.002  0.00  0.00    +0.050 A 
ATOM     33  C   UNL     1       1.849   0.421   1.216  0.00  0.00    +0.026 A 
ATOM     34  C   UNL     1       0.642   1.093   1.240  0.00  0.00    +0.002 A 
ENDBRANCH  22  32
BRANCH  23  35
ATOM     35  N   UNL     1       2.471  -2.731   0.161  0.00  0.00    -0.344 N 
ATOM     36  H   UNL     1       1.619  -2.272   0.101  0.00  0.00    +0.144 HD
ATOM     37  H   UNL     1       2.496  -3.692   0.297  0.00  0.00    +0.144 HD
ENDBRANCH  23  35
ENDBRANCH  21  28
ENDBRANCH  20  21
ENDBRANCH   1  20
TORSDOF 6
