REMARK  Name = ZINC24894582
REMARK  8 active torsions:
REMARK  status: ('A' for Active; 'I' for Inactive)
REMARK    1  A    between atoms: C_1  and  C_2
REMARK    2  A    between atoms: C_5  and  C_8
REMARK    3  A    between atoms: N_21  and  C_24
REMARK    4  A    between atoms: C_24  and  C_25
REMARK    5  A    between atoms: C_25  and  C_27
REMARK    6  A    between atoms: C_25  and  O_35
REMARK    7  A    between atoms: C_27  and  O_28
REMARK    8  A    between atoms: O_28  and  C_29
REMARK                            x       y       z     vdW  Elec       q    Type
REMARK                         _______ _______ _______ _____ _____    ______ ____
ROOT
ATOM      1  C   UNL     1      -1.337   1.594   8.882  0.00  0.00    +0.006 A 
ATOM      2  C   UNL     1      -2.021   1.976  10.023  0.00  0.00    +0.010 A 
ATOM      3  C   UNL     1      -2.174   3.320  10.343  0.00  0.00    +0.001 A 
ATOM      4  C   UNL     1      -1.656   4.295   9.543  0.00  0.00    +0.010 A 
ATOM      5  C   UNL     1      -0.955   3.950   8.377  0.00  0.00    -0.001 A 
ATOM      6  C   UNL     1      -0.789   2.587   8.035  0.00  0.00    +0.056 A 
ATOM      7  N   UNL     1      -0.124   2.253   6.926  0.00  0.00    -0.342 N 
ATOM      8  C   UNL     1       0.387   3.172   6.132  0.00  0.00    +0.099 A 
ATOM      9  C   UNL     1       0.262   4.539   6.418  0.00  0.00    +0.042 A 
ATOM     10  C   UNL     1      -0.410   4.940   7.533  0.00  0.00    +0.013 A 
ATOM     11  N   UNL     1       1.070   2.778   4.991  0.00  0.00    -0.314 N 
ATOM     12  C   UNL     1       1.097   1.314   4.873  0.00  0.00    +0.122 C 
ATOM     13  C   UNL     1       1.925   0.919   3.648  0.00  0.00    +0.103 C 
ATOM     14  N   UNL     1       1.340   1.531   2.446  0.00  0.00    -0.297 NA
ATOM     15  C   UNL     1       1.313   2.996   2.565  0.00  0.00    +0.103 C 
ATOM     16  C   UNL     1       0.485   3.390   3.790  0.00  0.00    +0.122 C 
ATOM     17  H   UNL     1       0.005   1.193   6.660  0.00  0.00    +0.167 HD
ENDROOT
BRANCH   1  22
ATOM     18  C   UNL     1      -0.728  -3.984   7.593  0.00  0.00    +0.044 C 
ATOM     19  C   UNL     1      -0.887  -2.524   7.931  0.00  0.00    -0.050 A 
ATOM     20  C   UNL     1      -0.568  -2.071   9.198  0.00  0.00    +0.004 A 
ATOM     21  C   UNL     1      -0.712  -0.735   9.513  0.00  0.00    +0.009 A 
ATOM     22  C   UNL     1      -1.180   0.159   8.551  0.00  0.00    -0.016 A 
ATOM     23  C   UNL     1      -1.505  -0.305   7.276  0.00  0.00    +0.009 A 
ATOM     24  C   UNL     1      -1.352  -1.642   6.971  0.00  0.00    +0.004 A 
ENDBRANCH   1  22
BRANCH  14  25
ATOM     25  C   UNL     1       2.064   1.114   1.238  0.00  0.00    +0.119 C 
BRANCH  25  26
ATOM     26  C   UNL     1       1.286   1.562  -0.002  0.00  0.00    +0.166 C 
BRANCH  26  27
ATOM     27  O   UNL     1      -0.011   0.963   0.007  0.00  0.00    -0.387 OA
ATOM     28  H   UNL     1      -0.718   1.169  -0.810  0.00  0.00    +0.210 HD
ENDBRANCH  26  27
BRANCH  26  29
ATOM     29  C   UNL     1       2.040   1.127  -1.261  0.00  0.00    +0.261 C 
BRANCH  29  30
ATOM     30  O   UNL     1       1.376   1.645  -2.415  0.00  0.00    -0.489 OA
BRANCH  30  31
ATOM     31  C   UNL     1       1.921   1.349  -3.625  0.00  0.00    +0.121 A 
ATOM     32  C   UNL     1       3.074   0.581  -3.698  0.00  0.00    +0.045 A 
ATOM     33  C   UNL     1       3.622   0.276  -4.929  0.00  0.00    +0.004 A 
ATOM     34  C   UNL     1       3.030   0.746  -6.087  0.00  0.00    +0.000 A 
ATOM     35  C   UNL     1       1.884   1.517  -6.016  0.00  0.00    +0.004 A 
ATOM     36  C   UNL     1       1.328   1.819  -4.788  0.00  0.00    +0.045 A 
ENDBRANCH  30  31
ENDBRANCH  29  30
ENDBRANCH  26  29
ENDBRANCH  25  26
ENDBRANCH  14  25
TORSDOF 7
