REMARK  Name = ZINC35401131
REMARK  11 active torsions:
REMARK  status: ('A' for Active; 'I' for Inactive)
REMARK    1  A    between atoms: C_1  and  C_2
REMARK    2  A    between atoms: C_2  and  C_3
REMARK    3  A    between atoms: C_3  and  C_4
REMARK    4  A    between atoms: C_4  and  O_5
REMARK    5  A    between atoms: O_5  and  C_6
REMARK    6  A    between atoms: C_6  and  C_8
REMARK    7  A    between atoms: C_8  and  C_10
REMARK    8  A    between atoms: C_8  and  N_21
REMARK    9  A    between atoms: C_10  and  C_11
REMARK   10  A    between atoms: C_22  and  C_24
REMARK   11  A    between atoms: C_27  and  C_29
REMARK                            x       y       z     vdW  Elec       q    Type
REMARK                         _______ _______ _______ _____ _____    ______ ____
ROOT
ATOM      1  C   UNL     1      -4.296  -4.486   0.019  0.00  0.00    +0.186 C 
ENDROOT
BRANCH   1   2
ATOM      2  N   UNL     1      -4.199  -5.948   0.010  0.00  0.00    -0.297 N 
ATOM      3  C   UNL     1      -5.205  -6.693   0.509  0.00  0.00    +0.266 C 
ATOM      4  O   UNL     1      -6.194  -6.151   0.967  0.00  0.00    -0.268 OA
ATOM      5  H   UNL     1      -3.411  -6.380  -0.355  0.00  0.00    +0.150 HD
BRANCH   3   6
ATOM      6  C   UNL     1      -5.108  -8.164   0.500  0.00  0.00    +0.163 A 
ATOM      7  C   UNL     1      -6.043  -9.038   0.962  0.00  0.00    +0.230 A 
ATOM      8  O   UNL     1      -5.556 -10.273   0.763  0.00  0.00    -0.447 OA
ATOM      9  C   UNL     1      -4.348 -10.160   0.191  0.00  0.00    +0.199 A 
ATOM     10  N   UNL     1      -4.070  -8.902   0.024  0.00  0.00    -0.208 NA
BRANCH   9  11
ATOM     11  C   UNL     1      -3.457 -11.311  -0.199  0.00  0.00    +0.072 C 
ATOM     12  C   UNL     1      -4.184 -12.201  -1.211  0.00  0.00    -0.006 C 
ATOM     13  C   UNL     1      -3.305 -13.409  -1.543  0.00  0.00    -0.082 C 
ATOM     14  N   UNL     1      -3.037 -14.175  -0.320  0.00  0.00    +0.379 N 
ATOM     15  C   UNL     1      -2.277 -13.350   0.627  0.00  0.00    -0.082 C 
ATOM     16  C   UNL     1      -3.116 -12.139   1.043  0.00  0.00    -0.006 C 
ATOM     17  H   UNL     1      -3.911 -14.450   0.102  0.00  0.00    -0.086 HD
ATOM     18  H   UNL     1      -2.502 -14.999  -0.550  0.00  0.00    -0.086 HD
ENDBRANCH   9  11
ENDBRANCH   3   6
ENDBRANCH   1   2
BRANCH   1  19
ATOM     19  C   UNL     1      -2.911  -3.891   0.009  0.00  0.00    +0.328 C 
ATOM     20  O   UNL     1      -1.943  -4.614  -0.004  0.00  0.00    -0.249 OA
BRANCH  19  21
ATOM     21  O   UNL     1      -2.753  -2.558   0.015  0.00  0.00    -0.463 OA
BRANCH  21  22
ATOM     22  C   UNL     1      -1.413  -2.063   0.004  0.00  0.00    +0.232 C 
BRANCH  22  23
ATOM     23  C   UNL     1      -1.433  -0.534   0.013  0.00  0.00    +0.041 C 
BRANCH  23  25
ATOM     24  C   UNL     1      -0.019   1.526   0.010  0.00  0.00    +0.004 C 
ATOM     25  C   UNL     1       0.002  -0.004   0.002  0.00  0.00    -0.000 C 
ENDBRANCH  23  25
ENDBRANCH  22  23
ENDBRANCH  21  22
ENDBRANCH  19  21
ENDBRANCH   1  19
BRANCH   1  26
ATOM     26  C   UNL     1      -5.061  -4.018  -1.220  0.00  0.00    +0.071 C 
BRANCH  26  27
ATOM     27  C   UNL     1      -6.483  -4.512  -1.149  0.00  0.00    -0.020 A 
ATOM     28  C   UNL     1      -6.967  -5.634  -1.705  0.00  0.00    +0.087 A 
ATOM     29  N   UNL     1      -8.302  -5.753  -1.428  0.00  0.00    -0.360 N 
ATOM     30  H   UNL     1      -8.870  -6.482  -1.724  0.00  0.00    +0.165 HD
ATOM     31  C   UNL     1      -8.720  -4.683  -0.669  0.00  0.00    +0.047 A 
ATOM     32  C   UNL     1      -7.597  -3.862  -0.455  0.00  0.00    +0.003 A 
ATOM     33  C   UNL     1      -7.722  -2.693   0.297  0.00  0.00    +0.010 A 
ATOM     34  C   UNL     1      -8.935  -2.353   0.826  0.00  0.00    +0.001 A 
ATOM     35  C   UNL     1     -10.045  -3.161   0.622  0.00  0.00    +0.002 A 
ATOM     36  C   UNL     1      -9.946  -4.315  -0.125  0.00  0.00    +0.026 A 
ENDBRANCH  26  27
ENDBRANCH   1  26
TORSDOF 10
