REMARK  Name = ZINC35363900
REMARK  6 active torsions:
REMARK  status: ('A' for Active; 'I' for Inactive)
REMARK    1  A    between atoms: C_1  and  C_2
REMARK    2  A    between atoms: C_13  and  C_16
REMARK    3  A    between atoms: C_16  and  C_17
REMARK    4  A    between atoms: N_29  and  C_32
REMARK    5  A    between atoms: C_35  and  O_38
REMARK    6  A    between atoms: O_38  and  C_39
REMARK                            x       y       z     vdW  Elec       q    Type
REMARK                         _______ _______ _______ _____ _____    ______ ____
ROOT
ATOM      1  C   UNL     1       0.101   1.415  -0.065  0.00  0.00    +0.044 C 
ATOM      2  C   UNL     1       0.122  -0.091  -0.038  0.00  0.00    -0.050 A 
ATOM      3  C   UNL     1       0.163  -0.805  -1.223  0.00  0.00    +0.005 A 
ATOM      4  C   UNL     1       0.183  -2.184  -1.205  0.00  0.00    +0.024 A 
ATOM      5  C   UNL     1       0.161  -2.869   0.008  0.00  0.00    +0.039 A 
ATOM      6  C   UNL     1       0.120  -2.141   1.193  0.00  0.00    +0.004 A 
ATOM      7  C   UNL     1       0.106  -0.764   1.170  0.00  0.00    +0.011 A 
ATOM      8  C   UNL     1       0.106  -3.158   2.299  0.00  0.00    +0.136 C 
ATOM      9  C   UNL     1      -1.144  -3.017   3.176  0.00  0.00    +0.123 C 
ATOM     10  C   UNL     1      -0.655  -3.348   4.613  0.00  0.00    +0.108 C 
ATOM     11  C   UNL     1       0.848  -3.664   4.456  0.00  0.00    +0.072 C 
ATOM     12  N   UNL     1       1.257  -2.987   3.204  0.00  0.00    -0.295 NA
ATOM     13  C   UNL     1      -1.409  -4.614   4.955  0.00  0.00    +0.232 C 
ATOM     14  O   UNL     1      -1.325  -5.218   6.003  0.00  0.00    -0.274 OA
ATOM     15  N   UNL     1      -2.184  -4.962   3.922  0.00  0.00    -0.210 N 
ATOM     16  C   UNL     1      -2.119  -4.128   2.859  0.00  0.00    +0.233 C 
ATOM     17  O   UNL     1      -2.734  -4.245   1.821  0.00  0.00    -0.274 OA
ATOM     18  C   UNL     1       0.144  -4.492   1.605  0.00  0.00    +0.243 C 
ATOM     19  O   UNL     1       0.148  -5.583   2.134  0.00  0.00    -0.273 OA
ATOM     20  N   UNL     1       0.174  -4.239   0.282  0.00  0.00    -0.283 N 
ATOM     21  H   UNL     1       2.088  -3.408   2.816  0.00  0.00    +0.124 HD
ATOM     22  H   UNL     1       0.201  -4.928  -0.400  0.00  0.00    +0.155 HD
ENDROOT
BRANCH  15  23
ATOM     23  C   UNL     1      -3.006  -6.100   3.939  0.00  0.00    +0.044 A 
ATOM     24  C   UNL     1      -2.437  -7.366   3.967  0.00  0.00    +0.027 A 
ATOM     25  C   UNL     1      -3.246  -8.485   3.984  0.00  0.00    +0.047 A 
ATOM     26  C   UNL     1      -4.626  -8.345   3.974  0.00  0.00    +0.120 A 
ATOM     27  C   UNL     1      -5.194  -7.079   3.946  0.00  0.00    +0.047 A 
ATOM     28  C   UNL     1      -4.387  -5.960   3.934  0.00  0.00    +0.027 A 
BRANCH  26  29
ATOM     29  O   UNL     1      -5.421  -9.447   3.991  0.00  0.00    -0.495 OA
ATOM     30  C   UNL     1      -6.833  -9.228   3.979  0.00  0.00    +0.277 C 
ENDBRANCH  26  29
ENDBRANCH  15  23
BRANCH  11  31
ATOM     31  C   UNL     1       1.633  -3.128   5.654  0.00  0.00    +0.056 C 
BRANCH  31  32
ATOM     32  C   UNL     1       3.075  -3.553   5.541  0.00  0.00    -0.021 A 
ATOM     33  C   UNL     1       3.635  -4.635   6.105  0.00  0.00    +0.087 A 
ATOM     34  N   UNL     1       4.963  -4.695   5.781  0.00  0.00    -0.360 N 
ATOM     35  H   UNL     1       5.577  -5.388   6.072  0.00  0.00    +0.165 HD
ATOM     36  C   UNL     1       5.299  -3.626   4.981  0.00  0.00    +0.047 A 
ATOM     37  C   UNL     1       4.129  -2.867   4.791  0.00  0.00    +0.003 A 
ATOM     38  C   UNL     1       4.168  -1.712   4.007  0.00  0.00    +0.010 A 
ATOM     39  C   UNL     1       5.343  -1.327   3.425  0.00  0.00    +0.001 A 
ATOM     40  C   UNL     1       6.498  -2.074   3.606  0.00  0.00    +0.002 A 
ATOM     41  C   UNL     1       6.484  -3.212   4.383  0.00  0.00    +0.026 A 
ENDBRANCH  31  32
ENDBRANCH  11  31
TORSDOF 4
