REMARK  Name = ZINC02955958
REMARK  8 active torsions:
REMARK  status: ('A' for Active; 'I' for Inactive)
REMARK    1  A    between atoms: C_1  and  C_2
REMARK    2  A    between atoms: C_4  and  C_32
REMARK    3  A    between atoms: C_6  and  N_8
REMARK    4  A    between atoms: C_10  and  C_22
REMARK    5  A    between atoms: C_13  and  C_20
REMARK    6  A    between atoms: C_16  and  C_19
REMARK    7  A    between atoms: C_20  and  O_21
REMARK    8  A    between atoms: N_24  and  C_25
REMARK                            x       y       z     vdW  Elec       q    Type
REMARK                         _______ _______ _______ _____ _____    ______ ____
ROOT
ATOM      1  N   UNL     1       0.607  -3.810   2.543  0.00  0.00    -0.325 N 
ATOM      2  C   UNL     1       0.975  -2.743   3.217  0.00  0.00    +0.212 A 
ATOM      3  C   UNL     1       0.580  -2.565   4.629  0.00  0.00    +0.098 A 
ATOM      4  C   UNL     1       1.399  -1.789   5.420  0.00  0.00    +0.030 A 
ATOM      5  C   UNL     1       2.587  -1.208   4.790  0.00  0.00    +0.027 A 
ATOM      6  C   UNL     1       3.613  -0.629   5.545  0.00  0.00    +0.007 A 
ATOM      7  C   UNL     1       4.702  -0.104   4.882  0.00  0.00    +0.117 A 
ATOM      8  N   UNL     1       4.785  -0.143   3.564  0.00  0.00    -0.256 NA
ATOM      9  C   UNL     1       3.846  -0.676   2.810  0.00  0.00    +0.081 A 
ATOM     10  C   UNL     1       2.711  -1.228   3.388  0.00  0.00    +0.159 A 
ATOM     11  O   UNL     1       1.734  -1.779   2.636  0.00  0.00    -0.437 OA
ATOM     12  C   UNL     1       4.004  -0.687   1.311  0.00  0.00    +0.069 C 
ATOM     13  H   UNL     1       0.162  -4.542   2.998  0.00  0.00    +0.169 HD
ENDROOT
BRANCH   1  19
ATOM     14  C   UNL     1       0.541  -1.701  -1.874  0.00  0.00    +0.044 C 
ATOM     15  C   UNL     1       0.829  -2.880  -0.981  0.00  0.00    -0.048 A 
ATOM     16  C   UNL     1       1.343  -4.045  -1.522  0.00  0.00    +0.006 A 
ATOM     17  C   UNL     1       1.611  -5.133  -0.709  0.00  0.00    -0.048 A 
ATOM     18  C   UNL     1       1.368  -5.062   0.647  0.00  0.00    +0.029 A 
ATOM     19  C   UNL     1       0.850  -3.888   1.199  0.00  0.00    +0.042 A 
ATOM     20  C   UNL     1       0.586  -2.792   0.374  0.00  0.00    +0.029 A 
ATOM     21  C   UNL     1       2.170  -6.399  -1.307  0.00  0.00    +0.044 C 
ENDBRANCH   1  19
BRANCH   3  22
ATOM     22  C   UNL     1      -0.640  -3.190   5.169  0.00  0.00    +0.253 C 
ATOM     23  O   UNL     1      -0.876  -3.132   6.361  0.00  0.00    -0.270 OA
ATOM     24  N   UNL     1      -1.494  -3.827   4.343  0.00  0.00    -0.281 N 
ATOM     25  H   UNL     1      -1.279  -3.920   3.402  0.00  0.00    +0.155 HD
BRANCH  24  26
ATOM     26  C   UNL     1      -2.690  -4.352   4.843  0.00  0.00    +0.034 A 
ATOM     27  C   UNL     1      -2.735  -4.880   6.127  0.00  0.00    +0.024 A 
ATOM     28  C   UNL     1      -3.917  -5.398   6.618  0.00  0.00    +0.017 A 
ATOM     29  C   UNL     1      -5.056  -5.392   5.832  0.00  0.00    +0.018 A 
ATOM     30  C   UNL     1      -5.014  -4.867   4.552  0.00  0.00    +0.017 A 
ATOM     31  C   UNL     1      -3.836  -4.342   4.058  0.00  0.00    +0.024 A 
ATOM     32 BR   UNL     1      -6.673  -6.103   6.507  0.00  0.00    -0.050 Br
ENDBRANCH  24  26
ENDBRANCH   3  22
BRANCH   6  33
ATOM     33  C   UNL     1       3.529  -0.579   7.049  0.00  0.00    +0.193 C 
BRANCH  33  34
ATOM     34  O   UNL     1       4.696   0.059   7.570  0.00  0.00    -0.390 OA
ATOM     35  H   UNL     1       4.710   0.127   8.535  0.00  0.00    +0.210 HD
ENDBRANCH  33  34
ENDBRANCH   6  33
TORSDOF 5
