REMARK  Name = ZINC07064952
REMARK  4 active torsions:
REMARK  status: ('A' for Active; 'I' for Inactive)
REMARK    1  A    between atoms: C_6  and  C_7
REMARK    2  A    between atoms: C_10  and  S_12
REMARK    3  A    between atoms: S_12  and  C_13
REMARK    4  A    between atoms: C_13  and  C_14
REMARK                            x       y       z     vdW  Elec       q    Type
REMARK                         _______ _______ _______ _____ _____    ______ ____
ROOT
ATOM      1  C   UNL     1      -5.248  -3.599   0.036  0.00  0.00    +0.153 C 
ENDROOT
BRANCH   1   2
ATOM      2  C   UNL     1      -6.020  -4.893   0.041  0.00  0.00    +0.121 A 
ATOM      3  N   UNL     1      -7.378  -4.833   0.044  0.00  0.00    -0.310 N 
ATOM      4  H   UNL     1      -7.821  -3.970   0.044  0.00  0.00    +0.170 HD
ATOM      5  C   UNL     1      -8.117  -5.967   0.048  0.00  0.00    +0.259 A 
ATOM      6  O   UNL     1      -9.334  -5.928   0.051  0.00  0.00    -0.267 OA
ATOM      7  C   UNL     1      -7.393  -7.247   0.048  0.00  0.00    +0.066 A 
ATOM      8  C   UNL     1      -8.060  -8.470   0.052  0.00  0.00    +0.035 A 
ATOM      9  C   UNL     1      -7.332  -9.641   0.052  0.00  0.00    +0.042 A 
ATOM     10  C   UNL     1      -5.942  -9.608   0.049  0.00  0.00    +0.022 A 
ATOM     11  C   UNL     1      -5.265  -8.409   0.045  0.00  0.00    +0.030 A 
ATOM     12  C   UNL     1      -5.981  -7.210   0.044  0.00  0.00    +0.078 A 
ATOM     13  N   UNL     1      -5.354  -6.007   0.036  0.00  0.00    -0.233 NA
ATOM     14 CL   UNL     1      -8.157 -11.168   0.057  0.00  0.00    -0.084 Cl
ENDBRANCH   1   2
BRANCH   1  15
ATOM     15  S   UNL     1      -3.469  -3.956   0.024  0.00  0.00    -0.058 S 
BRANCH  15  19
ATOM     16  C   UNL     1      -1.265  -0.763   0.011  0.00  0.00    +0.249 A 
ATOM     17  N   UNL     1      -2.474  -0.255   0.019  0.00  0.00    -0.106 NA
ATOM     18  N   UNL     1      -3.338  -1.208   0.025  0.00  0.00    -0.101 NA
ATOM     19  C   UNL     1      -2.715  -2.364   0.020  0.00  0.00    +0.278 A 
ATOM     20  O   UNL     1      -1.392  -2.109   0.005  0.00  0.00    -0.411 OA
BRANCH  16  26
ATOM     21  C   UNL     1      -0.017   1.392   0.010  0.00  0.00    +0.014 A 
ATOM     22  C   UNL     1       1.170   2.095   0.002  0.00  0.00    +0.021 A 
ATOM     23  C   UNL     1       2.378   1.419  -0.013  0.00  0.00    +0.041 A 
ATOM     24  C   UNL     1       2.404   0.034  -0.021  0.00  0.00    +0.021 A 
ATOM     25  C   UNL     1       1.224  -0.680  -0.014  0.00  0.00    +0.014 A 
ATOM     26  C   UNL     1       0.002  -0.004   0.002  0.00  0.00    +0.039 A 
ATOM     27 CL   UNL     1       3.868   2.311  -0.022  0.00  0.00    -0.084 Cl
ENDBRANCH  16  26
ENDBRANCH  15  19
ENDBRANCH   1  15
TORSDOF 4
