REMARK  Name = ZINC38904312
REMARK  6 active torsions:
REMARK  status: ('A' for Active; 'I' for Inactive)
REMARK    1  A    between atoms: C_1  and  C_2
REMARK    2  A    between atoms: C_4  and  N_9
REMARK    3  A    between atoms: C_5  and  C_8
REMARK    4  A    between atoms: C_10  and  C_12
REMARK    5  A    between atoms: C_15  and  C_27
REMARK    6  A    between atoms: N_17  and  C_21
REMARK                            x       y       z     vdW  Elec       q    Type
REMARK                         _______ _______ _______ _____ _____    ______ ____
ROOT
ATOM      1  C   UNL     1      -4.620  -0.981  -1.618  0.00  0.00    +0.072 C 
ATOM      2  C   UNL     1      -5.852  -1.572  -1.604  0.00  0.00    +0.028 C 
ATOM      3  C   UNL     1      -6.737  -1.405  -2.664  0.00  0.00    +0.004 C 
ATOM      4  C   UNL     1      -7.793  -1.913  -3.343  0.00  0.00    +0.025 C 
ATOM      5  N   UNL     1      -7.830  -1.426  -4.626  0.00  0.00    -0.267 N 
ATOM      6  N   UNL     1      -6.723  -0.569  -4.834  0.00  0.00    -0.236 N 
ATOM      7  C   UNL     1      -6.408  -0.131  -3.470  0.00  0.00    +0.188 C 
ATOM      8  S   UNL     1      -4.604  -0.068  -3.159  0.00  0.00    -0.091 S 
ATOM      9  C   UNL     1      -8.793  -2.883  -2.768  0.00  0.00    +0.062 C 
ATOM     10  H   UNL     1      -8.509  -1.635  -5.287  0.00  0.00    +0.170 HD
ENDROOT
BRANCH   6  11
ATOM     11  C   UNL     1      -6.090  -0.229  -6.032  0.00  0.00    +0.049 A 
ATOM     12  C   UNL     1      -5.002   0.634  -6.024  0.00  0.00    +0.025 A 
ATOM     13  C   UNL     1      -4.379   0.968  -7.210  0.00  0.00    +0.002 A 
ATOM     14  C   UNL     1      -4.838   0.445  -8.405  0.00  0.00    +0.000 A 
ATOM     15  C   UNL     1      -5.921  -0.414  -8.417  0.00  0.00    +0.002 A 
ATOM     16  C   UNL     1      -6.545  -0.757  -7.233  0.00  0.00    +0.025 A 
ENDBRANCH   6  11
BRANCH   1  18
ATOM     17  N   UNL     1      -2.437  -0.404  -0.820  0.00  0.00    -0.281 N 
ATOM     18  C   UNL     1      -3.598  -1.065  -0.640  0.00  0.00    +0.254 C 
ATOM     19  O   UNL     1      -3.768  -1.735   0.363  0.00  0.00    -0.269 OA
ATOM     20  H   UNL     1      -2.329   0.188  -1.581  0.00  0.00    +0.155 HD
BRANCH  17  23
ATOM     21  C   UNL     1      -0.055  -2.534  -0.702  0.00  0.00    +0.041 C 
ATOM     22  C   UNL     1      -0.724  -1.858   0.497  0.00  0.00    +0.171 C 
ATOM     23  C   UNL     1      -1.407  -0.568   0.076  0.00  0.00    +0.060 C 
ATOM     24  C   UNL     1      -0.761   0.381   0.789  0.00  0.00    +0.079 C 
ATOM     25  N   UNL     1       0.188  -0.168   1.555  0.00  0.00    -0.157 NA
ATOM     26  N   UNL     1       0.285  -1.397   1.466  0.00  0.00    -0.178 NA
ATOM     27  C   UNL     1      -1.067   1.855   0.729  0.00  0.00    +0.069 C 
ENDBRANCH  17  23
ENDBRANCH   1  18
TORSDOF 3
