REMARK  Name = ZINC05773775
REMARK  4 active torsions:
REMARK  status: ('A' for Active; 'I' for Inactive)
REMARK    1  A    between atoms: C_4  and  C_7
REMARK    2  A    between atoms: C_7  and  O_8
REMARK    3  A    between atoms: O_8  and  C_9
REMARK    4  A    between atoms: C_18  and  C_19
REMARK                            x       y       z     vdW  Elec       q    Type
REMARK                         _______ _______ _______ _____ _____    ______ ____
ROOT
ATOM      1  C   UNL     1      -2.438   5.275   0.054  0.00  0.00    +0.129 A 
ATOM      2  C   UNL     1      -1.210   5.935   0.046  0.00  0.00    +0.047 A 
ATOM      3  C   UNL     1      -0.032   5.257   0.031  0.00  0.00    +0.012 A 
ATOM      4  C   UNL     1      -0.009   3.850   0.023  0.00  0.00    -0.017 A 
ATOM      5  C   UNL     1       1.204   3.141   0.008  0.00  0.00    +0.008 A 
ATOM      6  C   UNL     1       1.189   1.779   0.000  0.00  0.00    +0.001 A 
ATOM      7  C   UNL     1      -0.013   1.076   0.008  0.00  0.00    +0.001 A 
ATOM      8  C   UNL     1      -1.208   1.733   0.017  0.00  0.00    +0.009 A 
ATOM      9  C   UNL     1      -1.229   3.131   0.031  0.00  0.00    -0.007 A 
ATOM     10  C   UNL     1      -2.489   3.876   0.047  0.00  0.00    +0.026 A 
ENDROOT
BRANCH  10  11
ATOM     11  C   UNL     1      -3.772   3.175   0.054  0.00  0.00    +0.040 C 
ATOM     12  C   UNL     1      -4.724   3.508   0.968  0.00  0.00    +0.098 C 
ATOM     13  C   UNL     1      -6.061   2.920   1.117  0.00  0.00    +0.266 C 
ATOM     14  O   UNL     1      -6.546   2.029   0.444  0.00  0.00    -0.268 OA
ATOM     15  N   UNL     1      -6.642   3.562   2.150  0.00  0.00    -0.235 N 
ATOM     16  C   UNL     1      -5.803   4.487   2.641  0.00  0.00    +0.311 C 
ATOM     17  O   UNL     1      -6.058   5.223   3.575  0.00  0.00    -0.252 OA
ATOM     18  N   UNL     1      -4.641   4.491   1.964  0.00  0.00    -0.265 N 
ATOM     19  H   UNL     1      -7.535   3.386   2.485  0.00  0.00    +0.159 HD
ATOM     20  H   UNL     1      -3.881   5.069   2.135  0.00  0.00    +0.157 HD
ENDBRANCH  10  11
BRANCH   1  21
ATOM     21  O   UNL     1      -3.589   5.992   0.069  0.00  0.00    -0.487 OA
BRANCH  21  22
ATOM     22  C   UNL     1      -3.466   7.415   0.076  0.00  0.00    +0.264 C 
BRANCH  22  26
ATOM     23  C   UNL     1      -7.356   9.180   0.124  0.00  0.00    +0.000 A 
ATOM     24  C   UNL     1      -6.715   8.887   1.314  0.00  0.00    +0.000 A 
ATOM     25  C   UNL     1      -5.456   8.316   1.298  0.00  0.00    +0.007 A 
ATOM     26  C   UNL     1      -4.838   8.038   0.093  0.00  0.00    -0.010 A 
ATOM     27  C   UNL     1      -5.477   8.335  -1.096  0.00  0.00    +0.007 A 
ATOM     28  C   UNL     1      -6.738   8.901  -1.081  0.00  0.00    +0.000 A 
ENDBRANCH  22  26
ENDBRANCH  21  22
ENDBRANCH   1  21
TORSDOF 4
