REMARK  Name = ZINC48360824
REMARK  5 active torsions:
REMARK  status: ('A' for Active; 'I' for Inactive)
REMARK    1  A    between atoms: C_4  and  C_7
REMARK    2  A    between atoms: C_7  and  C_9
REMARK    3  A    between atoms: C_7  and  N_20
REMARK    4  A    between atoms: C_18  and  O_19
REMARK    5  A    between atoms: C_21  and  C_23
REMARK                            x       y       z     vdW  Elec       q    Type
REMARK                         _______ _______ _______ _____ _____    ______ ____
ROOT
ATOM      1  C   UNL     1       3.687  -0.496  -0.279  0.00  0.00    +0.138 C 
ENDROOT
BRANCH   1   2
ATOM      2  C   UNL     1       3.948  -0.898   1.150  0.00  0.00    +0.026 A 
ATOM      3  C   UNL     1       4.879  -0.188   1.925  0.00  0.00    -0.009 A 
ATOM      4  C   UNL     1       5.586   0.905   1.394  0.00  0.00    +0.009 A 
ATOM      5  C   UNL     1       6.481   1.571   2.174  0.00  0.00    +0.001 A 
ATOM      6  C   UNL     1       6.710   1.185   3.493  0.00  0.00    +0.001 A 
ATOM      7  C   UNL     1       6.045   0.131   4.040  0.00  0.00    +0.008 A 
ATOM      8  C   UNL     1       5.112  -0.581   3.267  0.00  0.00    -0.017 A 
ATOM      9  C   UNL     1       4.406  -1.674   3.799  0.00  0.00    +0.012 A 
ATOM     10  C   UNL     1       3.511  -2.341   3.023  0.00  0.00    +0.046 A 
ATOM     11  C   UNL     1       3.276  -1.952   1.700  0.00  0.00    +0.123 A 
BRANCH  11  12
ATOM     12  O   UNL     1       2.371  -2.635   0.951  0.00  0.00    -0.506 OA
ATOM     13  H   UNL     1       2.724  -3.438   0.543  0.00  0.00    +0.292 HD
ENDBRANCH  11  12
ENDBRANCH   1   2
BRANCH   1  17
ATOM     14  C   UNL     1      -0.096   1.473  -0.537  0.00  0.00    +0.000 A 
ATOM     15  C   UNL     1       1.069   2.216  -0.503  0.00  0.00    +0.000 A 
ATOM     16  C   UNL     1       2.293   1.579  -0.419  0.00  0.00    +0.006 A 
ATOM     17  C   UNL     1       2.352   0.199  -0.369  0.00  0.00    -0.023 A 
ATOM     18  C   UNL     1       1.187  -0.545  -0.402  0.00  0.00    +0.006 A 
ATOM     19  C   UNL     1      -0.037   0.092  -0.487  0.00  0.00    +0.000 A 
ENDBRANCH   1  17
BRANCH   1  20
ATOM     20  N   UNL     1       3.674  -1.690  -1.128  0.00  0.00    -0.299 N 
ATOM     21  C   UNL     1       4.027  -1.597  -2.425  0.00  0.00    +0.265 C 
ATOM     22  O   UNL     1       4.356  -0.524  -2.891  0.00  0.00    -0.268 OA
ATOM     23  H   UNL     1       3.412  -2.547  -0.756  0.00  0.00    +0.150 HD
BRANCH  21  24
ATOM     24  C   UNL     1       4.015  -2.801  -3.282  0.00  0.00    +0.147 A 
ATOM     25  C   UNL     1       4.362  -2.863  -4.652  0.00  0.00    +0.054 A 
ATOM     26  C   UNL     1       4.200  -4.159  -5.008  0.00  0.00    +0.105 A 
ATOM     27  N   UNL     1       3.781  -4.826  -3.911  0.00  0.00    -0.284 N 
ATOM     28  H   UNL     1       3.585  -5.775  -3.880  0.00  0.00    +0.188 HD
ATOM     29  N   UNL     1       3.683  -4.022  -2.913  0.00  0.00    -0.169 NA
ENDBRANCH  21  24
ENDBRANCH   1  20
TORSDOF 5
