REMARK  Name = ZINC20884774
REMARK  5 active torsions:
REMARK  status: ('A' for Active; 'I' for Inactive)
REMARK    1  A    between atoms: C_1  and  O_2
REMARK    2  A    between atoms: O_2  and  C_3
REMARK    3  A    between atoms: C_8  and  C_9
REMARK    4  A    between atoms: C_14  and  C_24
REMARK    5  A    between atoms: C_29  and  O_30
REMARK                            x       y       z     vdW  Elec       q    Type
REMARK                         _______ _______ _______ _____ _____    ______ ____
ROOT
ATOM      1  C   UNL     1       4.464   4.191  -3.795  0.00  0.00    +0.035 C 
ATOM      2  C   UNL     1       3.369   5.237  -3.594  0.00  0.00    +0.060 C 
ATOM      3  C   UNL     1       2.914   5.238  -2.143  0.00  0.00    +0.017 C 
ATOM      4  C   UNL     1       2.908   4.099  -1.432  0.00  0.00    +0.037 C 
ATOM      5  C   UNL     1       2.449   3.949  -0.001  0.00  0.00    +0.139 C 
ATOM      6  N   UNL     1       2.238   5.201   0.694  0.00  0.00    -0.331 N 
ATOM      7  C   UNL     1       1.243   6.090   0.291  0.00  0.00    +0.049 A 
ATOM      8  C   UNL     1       0.158   6.379   1.103  0.00  0.00    +0.025 A 
ATOM      9  C   UNL     1      -0.828   7.234   0.641  0.00  0.00    +0.002 A 
ATOM     10  C   UNL     1      -0.736   7.792  -0.620  0.00  0.00    +0.002 A 
ATOM     11  C   UNL     1       0.355   7.519  -1.428  0.00  0.00    +0.025 A 
ATOM     12  C   UNL     1       1.352   6.681  -0.959  0.00  0.00    +0.052 A 
ATOM     13  N   UNL     1       2.522   6.450  -1.673  0.00  0.00    -0.316 N 
ATOM     14  C   UNL     1       3.363   2.892  -2.016  0.00  0.00    +0.163 C 
ATOM     15  O   UNL     1       3.334   1.874  -1.353  0.00  0.00    -0.292 OA
ATOM     16  C   UNL     1       3.879   2.824  -3.422  0.00  0.00    +0.088 C 
ATOM     17  H   UNL     1       2.869   5.465   1.556  0.00  0.00    +0.147 HD
ATOM     18  H   UNL     1       3.148   7.337  -1.850  0.00  0.00    +0.152 HD
ENDROOT
BRANCH   1  24
ATOM     19  C   UNL     1       6.225   4.460  -5.559  0.00  0.00    +0.124 A 
ATOM     20  C   UNL     1       6.628   4.452  -6.887  0.00  0.00    +0.046 A 
ATOM     21  C   UNL     1       5.714   4.169  -7.883  0.00  0.00    +0.004 A 
ATOM     22  C   UNL     1       4.398   3.893  -7.558  0.00  0.00    +0.001 A 
ATOM     23  C   UNL     1       3.996   3.896  -6.235  0.00  0.00    +0.007 A 
ATOM     24  C   UNL     1       4.905   4.184  -5.236  0.00  0.00    -0.002 A 
BRANCH  19  26
ATOM     25  C   UNL     1       8.465   5.014  -4.985  0.00  0.00    +0.277 C 
ATOM     26  O   UNL     1       7.123   4.739  -4.578  0.00  0.00    -0.495 OA
ENDBRANCH  19  26
ENDBRANCH   1  24
BRANCH   5  27
ATOM     27  C   UNL     1       1.157   3.174   0.008  0.00  0.00    +0.019 A 
ATOM     28  C   UNL     1       0.376   3.118  -1.131  0.00  0.00    +0.009 A 
ATOM     29  C   UNL     1      -0.809   2.406  -1.124  0.00  0.00    +0.001 A 
ATOM     30  C   UNL     1      -1.214   1.745   0.021  0.00  0.00    +0.004 A 
ATOM     31  C   UNL     1      -0.440   1.802   1.163  0.00  0.00    +0.046 A 
ATOM     32  C   UNL     1       0.750   2.515   1.159  0.00  0.00    +0.122 A 
BRANCH  32  33
ATOM     33  O   UNL     1       1.516   2.568   2.280  0.00  0.00    -0.506 OA
ATOM     34  H   UNL     1       1.193   2.045   3.192  0.00  0.00    +0.292 HD
ENDBRANCH  32  33
ENDBRANCH   5  27
TORSDOF 4
