REMARK  Name = ZINC14092855
REMARK  13 active torsions:
REMARK  status: ('A' for Active; 'I' for Inactive)
REMARK    1  A    between atoms: C_1  and  C_2
REMARK    2  A    between atoms: C_3  and  C_14
REMARK    3  A    between atoms: C_4  and  C_13
REMARK    4  A    between atoms: N_5  and  C_7
REMARK    5  A    between atoms: C_14  and  N_68
REMARK    6  A    between atoms: C_15  and  N_68
REMARK    7  A    between atoms: C_16  and  C_17
REMARK    8  A    between atoms: C_16  and  N_68
REMARK    9  A    between atoms: N_19  and  N_20
REMARK   10  A    between atoms: C_23  and  C_27
REMARK   11  A    between atoms: C_23  and  C_28
REMARK   12  A    between atoms: C_28  and  C_29
REMARK   13  A    between atoms: C_29  and  C_30
REMARK                            x       y       z     vdW  Elec       q    Type
REMARK                         _______ _______ _______ _____ _____    ______ ____
ROOT
ATOM      1  C   UNL     1       2.013   5.587   2.868  0.00  0.00    +0.213 C 
ATOM      2  O   UNL     1       1.806   4.788   3.756  0.00  0.00    -0.276 OA
ATOM      3  N   UNL     1       2.163   6.895   3.159  0.00  0.00    -0.225 N 
ATOM      4  H   UNL     1       2.328   7.534   2.448  0.00  0.00    +0.173 HD
ENDROOT
BRANCH   3   5
ATOM      5  N   UNL     1       2.080   7.331   4.488  0.00  0.00    -0.137 N 
ATOM      6  C   UNL     1       3.143   7.690   5.234  0.00  0.00    +0.263 C 
ATOM      7  O   UNL     1       4.307   7.696   4.895  0.00  0.00    -0.271 OA
ATOM      8  C   UNL     1       2.581   8.085   6.585  0.00  0.00    +0.112 C 
ATOM      9  N   UNL     1       1.130   7.883   6.428  0.00  0.00    -0.284 N 
ATOM     10  C   UNL     1       0.936   7.447   5.171  0.00  0.00    +0.326 C 
ATOM     11  O   UNL     1      -0.157   7.184   4.708  0.00  0.00    -0.251 OA
ATOM     12  C   UNL     1       3.135   7.177   7.685  0.00  0.00    +0.041 C 
ATOM     13  H   UNL     1       0.448   8.038   7.100  0.00  0.00    +0.151 HD
BRANCH   8  14
ATOM     14  C   UNL     1       2.894   9.551   6.891  0.00  0.00    +0.040 C 
BRANCH  14  15
ATOM     15  C   UNL     1       2.315   9.922   8.258  0.00  0.00    +0.038 C 
BRANCH  15  16
ATOM     16  C   UNL     1       2.623  11.366   8.559  0.00  0.00    -0.047 A 
ATOM     17  C   UNL     1       3.788  11.700   9.225  0.00  0.00    +0.003 A 
ATOM     18  C   UNL     1       4.073  13.025   9.497  0.00  0.00    +0.000 A 
ATOM     19  C   UNL     1       3.188  14.015   9.112  0.00  0.00    +0.000 A 
ATOM     20  C   UNL     1       2.021  13.681   8.451  0.00  0.00    +0.000 A 
ATOM     21  C   UNL     1       1.739  12.356   8.174  0.00  0.00    +0.003 A 
ENDBRANCH  15  16
ENDBRANCH  14  15
ENDBRANCH   8  14
ENDBRANCH   3   5
BRANCH   1  22
ATOM     22  C   UNL     1       2.101   5.118   1.438  0.00  0.00    +0.020 C 
BRANCH  22  24
ATOM     23  C   UNL     1       3.007   2.959   2.055  0.00  0.00    -0.095 C 
ATOM     24  N   UNL     1       1.881   3.657   1.401  0.00  0.00    +0.386 N 
ATOM     25  H   UNL     1       1.014   3.438   1.907  0.00  0.00    -0.081 HD
BRANCH  24  26
ATOM     26  C   UNL     1       1.748   3.202   0.002  0.00  0.00    -0.039 C 
BRANCH  26  29
ATOM     27  C   UNL     1      -1.249   2.171   0.020  0.00  0.00    +0.068 C 
ATOM     28  C   UNL     1      -0.016   1.304   0.009  0.00  0.00    +0.062 A 
ATOM     29  C   UNL     1       1.307   1.761  -0.001  0.00  0.00    -0.020 A 
ATOM     30  C   UNL     1       2.120   0.679  -0.015  0.00  0.00    +0.043 A 
ATOM     31  N   UNL     1       1.339  -0.424  -0.013  0.00  0.00    -0.237 N 
ATOM     32  N   UNL     1       0.002  -0.004   0.002  0.00  0.00    -0.171 NA
ATOM     33  C   UNL     1       3.627   0.701  -0.030  0.00  0.00    +0.066 C 
BRANCH  31  34
ATOM     34  C   UNL     1       1.786  -1.752  -0.024  0.00  0.00    +0.066 A 
ATOM     35  C   UNL     1       2.931  -2.095  -0.730  0.00  0.00    +0.028 A 
ATOM     36  C   UNL     1       3.372  -3.404  -0.736  0.00  0.00    +0.002 A 
ATOM     37  C   UNL     1       2.668  -4.375  -0.047  0.00  0.00    +0.000 A 
ATOM     38  C   UNL     1       1.524  -4.037   0.654  0.00  0.00    +0.002 A 
ATOM     39  C   UNL     1       1.081  -2.729   0.667  0.00  0.00    +0.028 A 
ENDBRANCH  31  34
ENDBRANCH  26  29
ENDBRANCH  24  26
ENDBRANCH  22  24
ENDBRANCH   1  22
TORSDOF 9
