REMARK  Name = ZINC04903716
REMARK  6 active torsions:
REMARK  status: ('A' for Active; 'I' for Inactive)
REMARK    1  A    between atoms: C_1  and  C_2
REMARK    2  A    between atoms: C_5  and  O_35
REMARK    3  A    between atoms: C_18  and  C_34
REMARK    4  A    between atoms: C_23  and  N_25
REMARK    5  A    between atoms: C_26  and  C_28
REMARK    6  A    between atoms: C_28  and  N_72
REMARK                            x       y       z     vdW  Elec       q    Type
REMARK                         _______ _______ _______ _____ _____    ______ ____
ROOT
ATOM      1  C   UNL     1       2.296   1.798   2.304  0.00  0.00    +0.012 C 
ATOM      2  C   UNL     1       2.485   1.431   0.828  0.00  0.00    -0.026 C 
ATOM      3  C   UNL     1       2.467  -0.077   0.816  0.00  0.00    +0.010 C 
ATOM      4  C   UNL     1       1.092  -0.626   1.184  0.00  0.00    +0.032 C 
ATOM      5  C   UNL     1       0.046  -0.076   0.222  0.00  0.00    +0.115 C 
ATOM      6  C   UNL     1       0.008   1.432   0.216  0.00  0.00    +0.035 C 
ATOM      7  C   UNL     1       1.349   2.120   0.159  0.00  0.00    -0.002 C 
ATOM      8  C   UNL     1       1.599   2.647  -1.245  0.00  0.00    +0.004 C 
ATOM      9  C   UNL     1       2.985   3.269  -1.412  0.00  0.00    +0.004 C 
ATOM     10  C   UNL     1       4.004   2.218  -0.985  0.00  0.00    -0.004 C 
ATOM     11  C   UNL     1       3.853   2.000   0.521  0.00  0.00    -0.001 C 
ATOM     12  C   UNL     1       5.013   1.162   1.033  0.00  0.00    +0.005 C 
ATOM     13  C   UNL     1       6.330   1.952   0.943  0.00  0.00    +0.009 C 
ATOM     14  C   UNL     1       6.276   2.978  -0.158  0.00  0.00    -0.011 C 
ATOM     15  C   UNL     1       5.423   2.496  -1.349  0.00  0.00    +0.000 C 
ATOM     16  C   UNL     1       5.696   3.567  -2.410  0.00  0.00    +0.006 C 
ATOM     17  C   UNL     1       7.168   3.986  -2.162  0.00  0.00    +0.023 C 
ATOM     18  C   UNL     1       7.622   3.232  -0.880  0.00  0.00    +0.079 C 
ATOM     19  C   UNL     1       5.805   4.335   0.383  0.00  0.00    +0.013 C 
ENDROOT
BRANCH  18  20
ATOM     20  N   UNL     1       8.289   1.979  -1.224  0.00  0.00    -0.313 N 
ATOM     21  C   UNL     1       9.627   1.949  -1.380  0.00  0.00    +0.197 C 
ATOM     22  O   UNL     1      10.278   2.962  -1.235  0.00  0.00    -0.278 OA
ATOM     23  H   UNL     1       7.768   1.169  -1.340  0.00  0.00    +0.149 HD
BRANCH  21  24
ATOM     24  C   UNL     1      10.315   0.656  -1.734  0.00  0.00    +0.019 C 
BRANCH  24  30
ATOM     25  C   UNL     1      12.069   1.762  -2.986  0.00  0.00    -0.050 C 
ATOM     26  C   UNL     1      13.577   2.022  -3.030  0.00  0.00    +0.141 C 
ATOM     27  O   UNL     1      14.270   0.774  -3.105  0.00  0.00    -0.383 OA
ATOM     28  C   UNL     1      13.994  -0.104  -2.010  0.00  0.00    +0.141 C 
ATOM     29  C   UNL     1      12.490  -0.387  -1.956  0.00  0.00    -0.050 C 
ATOM     30  N   UNL     1      11.771   0.898  -1.825  0.00  0.00    +0.388 N 
ATOM     31  H   UNL     1      12.085   1.370  -0.968  0.00  0.00    -0.081 HD
ENDBRANCH  24  30
ENDBRANCH  21  24
ENDBRANCH  18  20
BRANCH   5  32
ATOM     32  O   UNL     1      -1.238  -0.568   0.609  0.00  0.00    -0.392 OA
ATOM     33  H   UNL     1      -1.298  -1.533   0.638  0.00  0.00    +0.210 HD
ENDBRANCH   5  32
TORSDOF 4
