REMARK  Name = ZINC06344717
REMARK  4 active torsions:
REMARK  status: ('A' for Active; 'I' for Inactive)
REMARK    1  A    between atoms: C_4  and  C_7
REMARK    2  A    between atoms: N_9  and  C_24
REMARK    3  A    between atoms: N_13  and  N_14
REMARK    4  A    between atoms: C_24  and  N_26
REMARK                            x       y       z     vdW  Elec       q    Type
REMARK                         _______ _______ _______ _____ _____    ______ ____
ROOT
ATOM      1  C   UNL     1       3.698  -0.687  -0.037  0.00  0.00    +0.122 C 
ATOM      2  N   UNL     1       4.889  -0.144  -0.041  0.00  0.00    -0.168 NA
ATOM      3  N   UNL     1       5.869  -1.139  -0.057  0.00  0.00    -0.134 N 
ATOM      4  C   UNL     1       5.289  -2.355  -0.064  0.00  0.00    +0.294 C 
ATOM      5  O   UNL     1       5.863  -3.431  -0.079  0.00  0.00    -0.266 OA
ATOM      6  C   UNL     1       3.885  -2.148  -0.047  0.00  0.00    +0.177 C 
ATOM      7  N   UNL     1       2.935  -3.082  -0.043  0.00  0.00    -0.140 NA
ENDROOT
BRANCH   7   8
ATOM      8  N   UNL     1       3.257  -4.331  -0.053  0.00  0.00    -0.123 NA
ATOM      9  C   UNL     1       2.302  -5.269  -0.049  0.00  0.00    +0.193 A 
ATOM     10  N   UNL     1       2.459  -6.614  -0.052  0.00  0.00    -0.332 N 
ATOM     11  C   UNL     1       1.352  -7.437  -0.047  0.00  0.00    +0.055 A 
ATOM     12  C   UNL     1       1.289  -8.838  -0.050  0.00  0.00    +0.027 A 
ATOM     13  C   UNL     1       0.075  -9.484  -0.045  0.00  0.00    +0.002 A 
ATOM     14  C   UNL     1      -1.116  -8.774  -0.037  0.00  0.00    +0.001 A 
ATOM     15  C   UNL     1      -1.081  -7.392  -0.034  0.00  0.00    +0.017 A 
ATOM     16  C   UNL     1       0.132  -6.744  -0.039  0.00  0.00    +0.039 A 
ATOM     17  S   UNL     1       0.637  -5.043  -0.032  0.00  0.00    -0.048 S 
ATOM     18  H   UNL     1       3.350  -6.999  -0.058  0.00  0.00    +0.168 HD
ENDBRANCH   7   8
BRANCH   1  22
ATOM     19  C   UNL     1      -0.017   1.379   0.010  0.00  0.00    +0.000 A 
ATOM     20  C   UNL     1       1.169   2.093   0.002  0.00  0.00    +0.001 A 
ATOM     21  C   UNL     1       2.377   1.427  -0.013  0.00  0.00    +0.010 A 
ATOM     22  C   UNL     1       2.403   0.033  -0.021  0.00  0.00    +0.004 A 
ATOM     23  C   UNL     1       1.205  -0.680  -0.013  0.00  0.00    +0.010 A 
ATOM     24  C   UNL     1       0.002  -0.004   0.002  0.00  0.00    +0.001 A 
ENDBRANCH   1  22
BRANCH   3  25
ATOM     25  C   UNL     1       7.198  -0.916  -0.064  0.00  0.00    +0.158 C 
ATOM     26  S   UNL     1       8.288  -2.236  -0.085  0.00  0.00    -0.017 S 
BRANCH  25  27
ATOM     27  N   UNL     1       7.669   0.347  -0.055  0.00  0.00    -0.339 N 
ATOM     28  H   UNL     1       7.052   1.095  -0.043  0.00  0.00    +0.144 HD
ATOM     29  H   UNL     1       8.626   0.507  -0.060  0.00  0.00    +0.144 HD
ENDBRANCH  25  27
ENDBRANCH   3  25
TORSDOF 4
