REMARK  Name = ZINC16612541
REMARK  14 active torsions:
REMARK  status: ('A' for Active; 'I' for Inactive)
REMARK    1  A    between atoms: C_1  and  C_2
REMARK    2  A    between atoms: C_2  and  N_3
REMARK    3  A    between atoms: C_4  and  C_36
REMARK    4  A    between atoms: C_5  and  C_29
REMARK    5  A    between atoms: C_6  and  C_11
REMARK    6  A    between atoms: C_14  and  N_17
REMARK    7  A    between atoms: N_20  and  C_21
REMARK    8  A    between atoms: C_24  and  C_28
REMARK    9  A    between atoms: C_26  and  C_27
REMARK   10  A    between atoms: C_29  and  O_31
REMARK   11  A    between atoms: O_31  and  C_32
REMARK   12  A    between atoms: C_32  and  C_33
REMARK   13  A    between atoms: C_33  and  C_34
REMARK   14  A    between atoms: C_33  and  C_35
REMARK                            x       y       z     vdW  Elec       q    Type
REMARK                         _______ _______ _______ _____ _____    ______ ____
ROOT
ATOM      1  C   UNL     1       2.456   1.617  -1.576  0.00  0.00    -0.022 A 
ATOM      2  C   UNL     1       2.309   2.892  -2.091  0.00  0.00    +0.007 A 
ATOM      3  C   UNL     1       2.364   3.097  -3.456  0.00  0.00    +0.024 A 
ATOM      4  C   UNL     1       2.556   2.020  -4.311  0.00  0.00    +0.035 A 
ATOM      5  C   UNL     1       2.698   0.740  -3.791  0.00  0.00    +0.024 A 
ATOM      6  C   UNL     1       2.648   0.543  -2.425  0.00  0.00    +0.007 A 
ENDROOT
BRANCH   1  10
ATOM      7  N   UNL     1       1.758   3.298   1.818  0.00  0.00    -0.286 N 
ATOM      8  C   UNL     1       0.738   2.556   1.298  0.00  0.00    +0.021 C 
ATOM      9  C   UNL     1       0.970   1.608   0.364  0.00  0.00    +0.078 C 
ATOM     10  C   UNL     1       2.401   1.398  -0.086  0.00  0.00    +0.141 C 
ATOM     11  N   UNL     1       3.428   2.251   0.536  0.00  0.00    -0.315 N 
ATOM     12  C   UNL     1       3.039   3.155   1.457  0.00  0.00    +0.138 C 
ATOM     13  S   UNL     1       4.222   4.153   2.189  0.00  0.00    -0.018 S 
ATOM     14  C   UNL     1      -0.672   2.797   1.775  0.00  0.00    +0.061 C 
ATOM     15  H   UNL     1       4.362   2.164   0.289  0.00  0.00    +0.149 HD
BRANCH   7  17
ATOM     16  C   UNL     1       1.350   3.646   4.204  0.00  0.00    +0.025 C 
ATOM     17  C   UNL     1       1.433   4.309   2.828  0.00  0.00    +0.109 C 
ENDBRANCH   7  17
BRANCH   9  18
ATOM     18  C   UNL     1      -0.087   0.838  -0.175  0.00  0.00    +0.339 C 
ATOM     19  O   UNL     1      -1.239   1.098   0.117  0.00  0.00    -0.245 OA
BRANCH  18  20
ATOM     20  O   UNL     1       0.183  -0.184  -1.013  0.00  0.00    -0.461 OA
BRANCH  20  21
ATOM     21  C   UNL     1      -0.919  -0.999  -1.419  0.00  0.00    +0.235 C 
BRANCH  21  22
ATOM     22  C   UNL     1      -0.417  -2.115  -2.337  0.00  0.00    +0.020 C 
ATOM     23  C   UNL     1      -1.572  -3.064  -2.663  0.00  0.00    +0.010 C 
ATOM     24  C   UNL     1       0.122  -1.505  -3.633  0.00  0.00    +0.010 C 
ENDBRANCH  21  22
ENDBRANCH  20  21
ENDBRANCH  18  20
ENDBRANCH   9  18
ENDBRANCH   1  10
BRANCH   4  25
ATOM     25  N   UNL     1       2.605   2.223  -5.695  0.00  0.00    -0.269 N 
ATOM     26  C   UNL     1       3.126   3.364  -6.190  0.00  0.00    +0.308 C 
ATOM     27  O   UNL     1       3.637   4.174  -5.442  0.00  0.00    -0.252 OA
ATOM     28  N   UNL     1       3.079   3.606  -7.515  0.00  0.00    -0.269 N 
ATOM     29  H   UNL     1       2.266   1.544  -6.298  0.00  0.00    +0.156 HD
ATOM     30  H   UNL     1       2.614   2.992  -8.104  0.00  0.00    +0.156 HD
BRANCH  28  31
ATOM     31  C   UNL     1       3.702   4.744  -8.041  0.00  0.00    +0.038 A 
ATOM     32  C   UNL     1       3.771   5.909  -7.289  0.00  0.00    +0.024 A 
ATOM     33  C   UNL     1       4.387   7.030  -7.810  0.00  0.00    +0.005 A 
ATOM     34  C   UNL     1       4.934   6.992  -9.080  0.00  0.00    -0.050 A 
ATOM     35  C   UNL     1       4.868   5.833  -9.831  0.00  0.00    +0.008 A 
ATOM     36  C   UNL     1       4.258   4.707  -9.313  0.00  0.00    -0.029 A 
ATOM     37  C   UNL     1       4.190   3.443 -10.130  0.00  0.00    +0.045 C 
ATOM     38  C   UNL     1       5.606   8.217  -9.646  0.00  0.00    +0.044 C 
ENDBRANCH  28  31
ENDBRANCH   4  25
TORSDOF 8
