REMARK  Name = ZINC34787659
REMARK  6 active torsions:
REMARK  status: ('A' for Active; 'I' for Inactive)
REMARK    1  A    between atoms: C_1  and  C_2
REMARK    2  A    between atoms: C_7  and  C_8
REMARK    3  A    between atoms: N_17  and  C_18
REMARK    4  A    between atoms: C_18  and  C_19
REMARK    5  A    between atoms: C_27  and  C_29
REMARK    6  A    between atoms: C_33  and  N_35
REMARK                            x       y       z     vdW  Elec       q    Type
REMARK                         _______ _______ _______ _____ _____    ______ ____
ROOT
ATOM      1  C   UNL     1      -2.190  -1.863   5.468  0.00  0.00    +0.199 C 
ATOM      2  O   UNL     1      -1.260  -2.146   6.193  0.00  0.00    -0.278 OA
ATOM      3  N   UNL     1      -3.272  -2.664   5.416  0.00  0.00    -0.300 N 
ATOM      4  C   UNL     1      -4.404  -2.337   4.538  0.00  0.00    +0.126 C 
ATOM      5  C   UNL     1      -4.672  -3.533   3.616  0.00  0.00    +0.127 C 
ATOM      6  N   UNL     1      -4.741  -4.751   4.436  0.00  0.00    -0.295 N 
ATOM      7  C   UNL     1      -3.609  -5.079   5.314  0.00  0.00    +0.127 C 
ATOM      8  C   UNL     1      -3.339  -3.885   6.231  0.00  0.00    +0.126 C 
ATOM      9  C   UNL     1      -5.823  -5.553   4.383  0.00  0.00    +0.247 C 
ATOM     10  O   UNL     1      -5.913  -6.502   5.137  0.00  0.00    -0.270 OA
ENDROOT
BRANCH   9  11
ATOM     11  C   UNL     1      -6.901  -5.277   3.409  0.00  0.00    +0.039 A 
ATOM     12  C   UNL     1      -6.586  -4.862   2.114  0.00  0.00    +0.013 A 
ATOM     13  C   UNL     1      -7.596  -4.607   1.210  0.00  0.00    +0.003 A 
ATOM     14  C   UNL     1      -8.919  -4.762   1.584  0.00  0.00    +0.033 A 
ATOM     15  C   UNL     1      -9.238  -5.172   2.866  0.00  0.00    +0.127 A 
ATOM     16  C   UNL     1      -8.237  -5.436   3.779  0.00  0.00    +0.045 A 
BRANCH  15  17
ATOM     17  N   UNL     1     -10.656  -5.334   3.258  0.00  0.00    +0.056 N 
ATOM     18  O   UNL     1     -11.534  -5.108   2.458  0.00  0.00    -0.126 OA
ATOM     19  O   UNL     1     -10.937  -5.693   4.378  0.00  0.00    -0.126 OA
ENDBRANCH  15  17
ENDBRANCH   9  11
BRANCH   1  20
ATOM     20  C   UNL     1      -2.136  -0.614   4.626  0.00  0.00    +0.020 C 
BRANCH  20  29
ATOM     21  C   UNL     1      -0.764   1.229   3.953  0.00  0.00    -0.005 C 
ATOM     22  C   UNL     1       0.510   2.003   4.274  0.00  0.00    -0.047 A 
ATOM     23  C   UNL     1       1.123   2.894   3.396  0.00  0.00    +0.010 A 
ATOM     24  C   UNL     1       2.255   3.537   3.765  0.00  0.00    +0.045 A 
ATOM     25  S   UNL     1       2.521   2.900   5.414  0.00  0.00    -0.101 S 
ATOM     26  C   UNL     1       1.110   1.834   5.486  0.00  0.00    -0.010 A 
ATOM     27  C   UNL     1       0.643   0.943   6.590  0.00  0.00    +0.024 C 
ATOM     28  C   UNL     1      -0.799   0.518   6.263  0.00  0.00    -0.072 C 
ATOM     29  N   UNL     1      -0.863   0.080   4.862  0.00  0.00    +0.393 N 
ATOM     30  H   UNL     1      -0.101  -0.554   4.679  0.00  0.00    -0.080 HD
BRANCH  21  37
ATOM     31  C   UNL     1      -1.672   2.940   1.810  0.00  0.00    +0.044 C 
ATOM     32  C   UNL     1      -1.149   1.561   1.502  0.00  0.00    -0.049 A 
ATOM     33  C   UNL     1      -1.098   1.116   0.194  0.00  0.00    +0.003 A 
ATOM     34  C   UNL     1      -0.618  -0.149  -0.088  0.00  0.00    +0.000 A 
ATOM     35  C   UNL     1      -0.188  -0.970   0.938  0.00  0.00    +0.000 A 
ATOM     36  C   UNL     1      -0.238  -0.525   2.246  0.00  0.00    +0.002 A 
ATOM     37  C   UNL     1      -0.715   0.742   2.527  0.00  0.00    -0.054 A 
ENDBRANCH  21  37
ENDBRANCH  20  29
ENDBRANCH   1  20
TORSDOF 5
