REMARK  Name = ZINC17015821
REMARK  5 active torsions:
REMARK  status: ('A' for Active; 'I' for Inactive)
REMARK    1  A    between atoms: C_1  and  C_2
REMARK    2  A    between atoms: C_8  and  C_24
REMARK    3  A    between atoms: C_8  and  C_25
REMARK    4  A    between atoms: C_10  and  C_22
REMARK    5  A    between atoms: C_10  and  C_23
REMARK                            x       y       z     vdW  Elec       q    Type
REMARK                         _______ _______ _______ _____ _____    ______ ____
ROOT
ATOM      1  C   UNL     1      -1.978  -1.059  -3.519  0.00  0.00    +0.044 C 
ATOM      2  C   UNL     1      -2.349   0.286  -2.951  0.00  0.00    -0.049 A 
ATOM      3  C   UNL     1      -3.280   1.062  -3.632  0.00  0.00    +0.014 A 
ATOM      4  C   UNL     1      -3.596   2.299  -3.075  0.00  0.00    +0.010 A 
ATOM      5  C   UNL     1      -2.978   2.702  -1.884  0.00  0.00    +0.049 A 
ATOM      6  C   UNL     1      -2.050   1.917  -1.208  0.00  0.00    -0.015 A 
ATOM      7  C   UNL     1      -1.747   0.698  -1.769  0.00  0.00    +0.009 A 
ATOM      8  C   UNL     1      -1.477   2.479   0.059  0.00  0.00    +0.022 C 
ATOM      9  C   UNL     1      -1.480   4.010  -0.008  0.00  0.00    +0.041 C 
ATOM     10  C   UNL     1      -2.885   4.571  -0.260  0.00  0.00    +0.038 C 
ATOM     11  N   UNL     1      -3.416   3.957  -1.489  0.00  0.00    -0.261 N 
ATOM     12  C   UNL     1      -4.313   4.420  -2.369  0.00  0.00    +0.253 C 
ATOM     13  O   UNL     1      -4.886   5.491  -2.306  0.00  0.00    -0.270 OA
ATOM     14  C   UNL     1      -4.489   3.400  -3.439  0.00  0.00    +0.065 C 
ATOM     15  C   UNL     1      -5.317   3.476  -4.540  0.00  0.00    +0.092 C 
ATOM     16  C   UNL     1      -6.242   4.564  -4.960  0.00  0.00    +0.258 C 
ATOM     17  O   UNL     1      -6.368   5.584  -4.311  0.00  0.00    -0.269 OA
ATOM     18  N   UNL     1      -6.920   4.360  -6.077  0.00  0.00    -0.243 N 
ATOM     19  C   UNL     1      -6.776   3.227  -6.793  0.00  0.00    +0.283 C 
ATOM     20  O   UNL     1      -7.332   2.914  -7.827  0.00  0.00    -0.262 OA
ATOM     21  S   UNL     1      -5.569   2.297  -5.861  0.00  0.00    -0.025 S 
ATOM     22  C   UNL     1      -3.796   4.230   0.921  0.00  0.00    +0.032 C 
ATOM     23  C   UNL     1      -2.811   6.089  -0.432  0.00  0.00    +0.032 C 
ATOM     24  C   UNL     1      -2.325   2.020   1.248  0.00  0.00    +0.021 C 
ATOM     25  H   UNL     1      -7.621   5.124  -6.443  0.00  0.00    +0.159 HD
ENDROOT
BRANCH   8  26
ATOM     26  C   UNL     1      -0.063   1.988   0.233  0.00  0.00    -0.037 A 
ATOM     27  C   UNL     1       0.309   1.352   1.402  0.00  0.00    +0.004 A 
ATOM     28  C   UNL     1       1.608   0.906   1.563  0.00  0.00    +0.000 A 
ATOM     29  C   UNL     1       2.534   1.097   0.555  0.00  0.00    +0.000 A 
ATOM     30  C   UNL     1       2.162   1.732  -0.615  0.00  0.00    +0.000 A 
ATOM     31  C   UNL     1       0.863   2.178  -0.776  0.00  0.00    +0.004 A 
ENDBRANCH   8  26
TORSDOF 1
