REMARK  Name = ZINC01295769
REMARK  5 active torsions:
REMARK  status: ('A' for Active; 'I' for Inactive)
REMARK    1  A    between atoms: C_3  and  C_6
REMARK    2  A    between atoms: C_6  and  C_8
REMARK    3  A    between atoms: C_10  and  C_22
REMARK    4  A    between atoms: C_16  and  C_17
REMARK    5  A    between atoms: C_16  and  O_21
REMARK                            x       y       z     vdW  Elec       q    Type
REMARK                         _______ _______ _______ _____ _____    ______ ____
ROOT
ATOM      1  C   UNL     1      -1.907   5.860  -0.216  0.00  0.00    +0.145 C 
ATOM      2  C   UNL     1      -2.869   6.527   0.773  0.00  0.00    +0.120 C 
ATOM      3  N   UNL     1      -3.098   7.912   0.361  0.00  0.00    -0.292 N 
ATOM      4  C   UNL     1      -3.027   8.278  -0.927  0.00  0.00    +0.302 C 
ATOM      5  O   UNL     1      -3.235   9.441  -1.217  0.00  0.00    -0.253 OA
ATOM      6  N   UNL     1      -2.734   7.412  -1.909  0.00  0.00    -0.264 N 
ATOM      7  C   UNL     1      -2.484   5.993  -1.629  0.00  0.00    +0.243 C 
ATOM      8  H   UNL     1      -3.304   8.580   1.034  0.00  0.00    +0.151 HD
ATOM      9  H   UNL     1      -2.687   7.730  -2.825  0.00  0.00    +0.153 HD
ENDROOT
BRANCH   2  10
ATOM     10  C   UNL     1      -2.267   6.504   2.155  0.00  0.00    -0.026 A 
ATOM     11  C   UNL     1      -2.566   5.470   3.022  0.00  0.00    +0.007 A 
ATOM     12  C   UNL     1      -2.010   5.447   4.287  0.00  0.00    +0.020 A 
ATOM     13  C   UNL     1      -1.163   6.464   4.689  0.00  0.00    +0.041 A 
ATOM     14  C   UNL     1      -0.868   7.501   3.822  0.00  0.00    +0.020 A 
ATOM     15  C   UNL     1      -1.421   7.521   2.556  0.00  0.00    +0.007 A 
ATOM     16 CL   UNL     1      -0.469   6.438   6.280  0.00  0.00    -0.084 Cl
ENDBRANCH   2  10
BRANCH   7  17
ATOM     17  C   UNL     1      -1.485   5.434  -2.644  0.00  0.00    +0.436 C 
ATOM     18  F   UNL     1      -1.242   4.085  -2.365  0.00  0.00    -0.166 F 
ATOM     19  F   UNL     1      -2.013   5.556  -3.934  0.00  0.00    -0.166 F 
ATOM     20  F   UNL     1      -0.286   6.150  -2.561  0.00  0.00    -0.166 F 
ENDBRANCH   7  17
BRANCH   1  21
ATOM     21  C   UNL     1      -0.564   6.541  -0.151  0.00  0.00    +0.179 C 
ATOM     22  O   UNL     1      -0.496   7.753  -0.162  0.00  0.00    -0.291 OA
BRANCH  21  25
ATOM     23  C   UNL     1       2.903   5.221   0.051  0.00  0.00    +0.008 A 
ATOM     24  C   UNL     1       1.940   6.193  -0.012  0.00  0.00    +0.019 A 
ATOM     25  C   UNL     1       0.616   5.769  -0.079  0.00  0.00    +0.055 A 
ATOM     26  S   UNL     1       0.800   3.994  -0.055  0.00  0.00    -0.094 S 
ATOM     27  C   UNL     1       2.529   3.912   0.045  0.00  0.00    +0.046 A 
ENDBRANCH  21  25
ENDBRANCH   1  21
BRANCH   7  28
ATOM     28  O   UNL     1      -3.711   5.266  -1.714  0.00  0.00    -0.364 OA
ATOM     29  H   UNL     1      -4.133   5.306  -2.584  0.00  0.00    +0.212 HD
ENDBRANCH   7  28
TORSDOF 5
