REMARK  Name = ZINC54318177
REMARK  2 active torsions:
REMARK  status: ('A' for Active; 'I' for Inactive)
REMARK    1  A    between atoms: C_5  and  C_6
REMARK    2  A    between atoms: C_11  and  N_14
REMARK                            x       y       z     vdW  Elec       q    Type
REMARK                         _______ _______ _______ _____ _____    ______ ____
ROOT
ATOM      1  C   UNL     1      -1.123  -0.944   0.008  0.00  0.00    +0.253 C 
ATOM      2  O   UNL     1      -0.193  -0.169  -0.117  0.00  0.00    -0.269 OA
ATOM      3  N   UNL     1      -0.889  -2.268   0.100  0.00  0.00    -0.297 N 
ATOM      4  C   UNL     1       0.484  -2.781   0.202  0.00  0.00    +0.110 C 
ATOM      5  C   UNL     1       0.702  -3.828  -0.894  0.00  0.00    +0.041 C 
ATOM      6  C   UNL     1      -0.381  -4.905  -0.787  0.00  0.00    +0.081 C 
ATOM      7  C   UNL     1      -1.758  -4.269  -0.993  0.00  0.00    +0.041 C 
ATOM      8  C   UNL     1      -2.003  -3.226   0.108  0.00  0.00    +0.110 C 
ENDROOT
BRANCH   1  13
ATOM      9  C   UNL     1      -3.001   0.765  -0.404  0.00  0.00    +0.024 A 
ATOM     10  C   UNL     1      -4.358   0.987  -0.223  0.00  0.00    -0.036 A 
ATOM     11  C   UNL     1      -5.063  -0.005   0.393  0.00  0.00    -0.006 A 
ATOM     12  S   UNL     1      -3.957  -1.210   0.728  0.00  0.00    -0.088 S 
ATOM     13  C   UNL     1      -2.497  -0.437   0.058  0.00  0.00    +0.075 A 
ATOM     14  C   UNL     1      -6.532  -0.002   0.702  0.00  0.00    +0.043 C 
ATOM     15  C   UNL     1      -7.055   1.434   0.563  0.00  0.00    +0.005 C 
ATOM     16  C   UNL     1      -6.554   2.014  -0.763  0.00  0.00    +0.005 C 
ATOM     17  C   UNL     1      -5.049   2.268  -0.683  0.00  0.00    +0.036 C 
ENDBRANCH   1  13
BRANCH   6  18
ATOM     18  N   UNL     1      -0.157  -5.926  -1.813  0.00  0.00    -0.281 N 
ATOM     19  C   UNL     1       0.082  -7.354  -1.556  0.00  0.00    +0.128 C 
ATOM     20  C   UNL     1       0.251  -7.960  -2.963  0.00  0.00    +0.124 C 
ATOM     21  N   UNL     1       0.088  -6.809  -3.864  0.00  0.00    -0.298 N 
ATOM     22  C   UNL     1      -0.142  -5.709  -3.135  0.00  0.00    +0.303 C 
ATOM     23  O   UNL     1      -0.319  -4.612  -3.628  0.00  0.00    -0.253 OA
ATOM     24  H   UNL     1       0.137  -6.841  -4.832  0.00  0.00    +0.150 HD
ENDBRANCH   6  18
TORSDOF 2
