REMARK  Name = ZINC15057068
REMARK  5 active torsions:
REMARK  status: ('A' for Active; 'I' for Inactive)
REMARK    1  A    between atoms: C_1  and  C_2
REMARK    2  A    between atoms: C_5  and  N_8
REMARK    3  A    between atoms: C_9  and  C_11
REMARK    4  A    between atoms: C_11  and  C_12
REMARK    5  A    between atoms: N_18  and  N_19
REMARK                            x       y       z     vdW  Elec       q    Type
REMARK                         _______ _______ _______ _____ _____    ______ ____
ROOT
ATOM      1  C   UNL     1       0.424  -6.867   2.557  0.00  0.00    +0.149 C 
ATOM      2  C   UNL     1       0.592  -8.377   2.585  0.00  0.00    +0.233 C 
ATOM      3  O   UNL     1       1.547  -8.929   2.082  0.00  0.00    -0.274 OA
ATOM      4  N   UNL     1      -0.368  -9.053   3.193  0.00  0.00    -0.263 N 
ATOM      5  C   UNL     1      -1.463  -8.426   3.770  0.00  0.00    +0.183 C 
ATOM      6  N   UNL     1      -2.472  -8.976   4.395  0.00  0.00    -0.124 NA
ATOM      7  S   UNL     1      -1.170  -6.690   3.459  0.00  0.00    -0.075 S 
ATOM      8  H   UNL     1      -0.305 -10.020   3.236  0.00  0.00    +0.157 HD
ENDROOT
BRANCH   6   9
ATOM      9  N   UNL     1      -2.530 -10.368   4.543  0.00  0.00    -0.122 NA
ATOM     10  C   UNL     1      -3.542 -10.919   5.170  0.00  0.00    +0.193 A 
ATOM     11  N   UNL     1      -4.639 -10.311   5.744  0.00  0.00    -0.332 N 
ATOM     12  C   UNL     1      -5.608 -11.082   6.365  0.00  0.00    +0.055 A 
ATOM     13  C   UNL     1      -6.780 -10.633   6.996  0.00  0.00    +0.027 A 
ATOM     14  C   UNL     1      -7.656 -11.521   7.575  0.00  0.00    +0.002 A 
ATOM     15  C   UNL     1      -7.413 -12.883   7.557  0.00  0.00    +0.001 A 
ATOM     16  C   UNL     1      -6.266 -13.354   6.941  0.00  0.00    +0.017 A 
ATOM     17  C   UNL     1      -5.391 -12.467   6.362  0.00  0.00    +0.039 A 
ATOM     18  S   UNL     1      -3.853 -12.648   5.490  0.00  0.00    -0.048 S 
ATOM     19  H   UNL     1      -4.732  -9.346   5.712  0.00  0.00    +0.168 HD
ENDBRANCH   6   9
BRANCH   1  20
ATOM     20  C   UNL     1       0.309  -6.349   1.121  0.00  0.00    +0.120 C 
BRANCH  20  22
ATOM     21  N   UNL     1       0.059  -4.170  -0.021  0.00  0.00    -0.285 N 
ATOM     22  C   UNL     1       0.175  -4.848   1.138  0.00  0.00    +0.219 C 
ATOM     23  O   UNL     1       0.173  -4.251   2.193  0.00  0.00    -0.275 OA
ATOM     24  H   UNL     1      -0.017  -4.651  -0.860  0.00  0.00    +0.155 HD
BRANCH  21  29
ATOM     25  C   UNL     1       0.008   1.503   0.007  0.00  0.00    +0.044 C 
ATOM     26  C   UNL     1       0.022  -0.004  -0.001  0.00  0.00    -0.050 A 
ATOM     27  C   UNL     1       0.777  -0.692   0.931  0.00  0.00    +0.005 A 
ATOM     28  C   UNL     1       0.791  -2.073   0.927  0.00  0.00    +0.023 A 
ATOM     29  C   UNL     1       0.046  -2.771  -0.014  0.00  0.00    +0.033 A 
ATOM     30  C   UNL     1      -0.712  -2.077  -0.948  0.00  0.00    +0.023 A 
ATOM     31  C   UNL     1      -0.726  -0.696  -0.936  0.00  0.00    +0.005 A 
ENDBRANCH  21  29
ENDBRANCH  20  22
ENDBRANCH   1  20
TORSDOF 4
