REMARK  Name = ZINC03138379
REMARK  5 active torsions:
REMARK  status: ('A' for Active; 'I' for Inactive)
REMARK    1  A    between atoms: C_4  and  S_10
REMARK    2  A    between atoms: C_5  and  C_7
REMARK    3  A    between atoms: S_10  and  C_11
REMARK    4  A    between atoms: C_14  and  N_20
REMARK    5  A    between atoms: C_16  and  C_17
REMARK                            x       y       z     vdW  Elec       q    Type
REMARK                         _______ _______ _______ _____ _____    ______ ____
ROOT
ATOM      1  C   UNL     1      -1.087   3.957   0.178  0.00  0.00    +0.025 A 
ATOM      2  C   UNL     1       0.256   4.318   0.153  0.00  0.00    +0.018 A 
ATOM      3  C   UNL     1       0.617   5.643   0.275  0.00  0.00    +0.034 A 
ATOM      4  C   UNL     1      -0.351   6.625   0.422  0.00  0.00    +0.127 A 
ATOM      5  C   UNL     1      -1.686   6.287   0.449  0.00  0.00    +0.047 A 
ATOM      6  C   UNL     1      -2.070   4.949   0.322  0.00  0.00    +0.052 A 
ENDROOT
BRANCH   6   7
ATOM      7  C   UNL     1      -3.497   4.581   0.343  0.00  0.00    +0.243 C 
ATOM      8  O   UNL     1      -3.826   3.416   0.236  0.00  0.00    -0.270 OA
ATOM      9  N   UNL     1      -4.437   5.537   0.481  0.00  0.00    -0.325 N 
ATOM     10  H   UNL     1      -4.175   6.467   0.567  0.00  0.00    +0.145 HD
ATOM     11  H   UNL     1      -5.376   5.295   0.495  0.00  0.00    +0.145 HD
ENDBRANCH   6   7
BRANCH   4  12
ATOM     12  N   UNL     1       0.052   8.043   0.550  0.00  0.00    +0.056 N 
ATOM     13  O   UNL     1       1.232   8.345   0.526  0.00  0.00    -0.126 OA
ATOM     14  O   UNL     1      -0.796   8.908   0.679  0.00  0.00    -0.126 OA
ENDBRANCH   4  12
BRANCH   1  15
ATOM     15  S   UNL     1      -1.552   2.265   0.022  0.00  0.00    -0.088 S 
BRANCH  15  19
ATOM     16  C   UNL     1       2.395   0.022   0.039  0.00  0.00    +0.001 A 
ATOM     17  C   UNL     1       1.717   0.234  -1.151  0.00  0.00    +0.001 A 
ATOM     18  C   UNL     1       0.518   0.917  -1.160  0.00  0.00    +0.016 A 
ATOM     19  C   UNL     1      -0.018   1.398   0.029  0.00  0.00    +0.025 A 
ATOM     20  C   UNL     1       0.667   1.185   1.236  0.00  0.00    +0.050 A 
ATOM     21  C   UNL     1       1.880   0.492   1.228  0.00  0.00    +0.014 A 
BRANCH  20  22
ATOM     22  C   UNL     1       0.110   1.691   2.504  0.00  0.00    +0.243 C 
ATOM     23  O   UNL     1      -0.945   2.295   2.506  0.00  0.00    -0.270 OA
ATOM     24  N   UNL     1       0.771   1.484   3.660  0.00  0.00    -0.325 N 
ATOM     25  H   UNL     1       1.613   1.003   3.658  0.00  0.00    +0.145 HD
ATOM     26  H   UNL     1       0.405   1.817   4.494  0.00  0.00    +0.145 HD
ENDBRANCH  20  22
ENDBRANCH  15  19
ENDBRANCH   1  15
TORSDOF 5
