REMARK  Name = ZINC16932949
REMARK  13 active torsions:
REMARK  status: ('A' for Active; 'I' for Inactive)
REMARK    1  A    between atoms: C_1  and  C_2
REMARK    2  A    between atoms: C_2  and  C_3
REMARK    3  A    between atoms: C_3  and  C_5
REMARK    4  A    between atoms: C_3  and  N_59
REMARK    5  A    between atoms: C_8  and  S_17
REMARK    6  A    between atoms: N_9  and  C_10
REMARK    7  A    between atoms: C_10  and  C_11
REMARK    8  A    between atoms: S_17  and  C_18
REMARK    9  A    between atoms: C_18  and  C_20
REMARK   10  A    between atoms: C_18  and  C_21
REMARK   11  A    between atoms: N_23  and  C_24
REMARK   12  A    between atoms: C_32  and  N_59
REMARK   13  A    between atoms: C_33  and  N_59
REMARK                            x       y       z     vdW  Elec       q    Type
REMARK                         _______ _______ _______ _____ _____    ______ ____
ROOT
ATOM      1  C   UNL     1      -0.073   0.959   2.471  0.00  0.00    +0.121 A 
ATOM      2  N   UNL     1       1.076   1.307   2.977  0.00  0.00    -0.135 NA
ATOM      3  N   UNL     1       1.332   0.600   4.019  0.00  0.00    -0.123 NA
ATOM      4  C   UNL     1       0.356  -0.252   4.231  0.00  0.00    +0.193 A 
ATOM      5  N   UNL     1      -0.571  -0.050   3.249  0.00  0.00    -0.303 N 
ENDROOT
BRANCH   1   6
ATOM      6  C   UNL     1      -0.728   1.552   1.251  0.00  0.00    +0.000 C 
BRANCH   6   9
ATOM      7  C   UNL     1      -1.412   3.546   2.442  0.00  0.00    -0.096 C 
ATOM      8  C   UNL     1       0.762   3.456   1.379  0.00  0.00    -0.096 C 
ATOM      9  N   UNL     1      -0.649   3.028   1.286  0.00  0.00    +0.383 N 
ATOM     10  H   UNL     1      -1.056   3.404   0.422  0.00  0.00    -0.082 HD
ENDBRANCH   6   9
BRANCH   6  12
ATOM     11  C   UNL     1      -0.757   1.550  -1.248  0.00  0.00    +0.002 C 
ATOM     12  C   UNL     1      -0.016   1.048  -0.006  0.00  0.00    -0.011 C 
ENDBRANCH   6  12
ENDBRANCH   1   6
BRANCH   5  13
ATOM     13  C   UNL     1      -1.837  -0.764   3.067  0.00  0.00    +0.160 C 
BRANCH  13  14
ATOM     14  C   UNL     1      -1.613  -1.966   2.186  0.00  0.00    -0.028 A 
ATOM     15  C   UNL     1      -1.753  -1.853   0.815  0.00  0.00    +0.005 A 
ATOM     16  C   UNL     1      -1.543  -2.954   0.006  0.00  0.00    +0.000 A 
ATOM     17  C   UNL     1      -1.204  -4.171   0.568  0.00  0.00    +0.000 A 
ATOM     18  C   UNL     1      -1.070  -4.285   1.940  0.00  0.00    +0.000 A 
ATOM     19  C   UNL     1      -1.275  -3.182   2.748  0.00  0.00    +0.005 A 
ENDBRANCH  13  14
ENDBRANCH   5  13
BRANCH   4  20
ATOM     20  S   UNL     1       0.261  -1.434   5.534  0.00  0.00    -0.074 S 
BRANCH  20  21
ATOM     21  C   UNL     1       1.820  -1.089   6.386  0.00  0.00    +0.137 C 
ATOM     22  C   UNL     1       1.781   0.324   6.971  0.00  0.00    +0.029 C 
BRANCH  21  23
ATOM     23  C   UNL     1       2.018  -2.088   7.497  0.00  0.00    +0.230 C 
ATOM     24  O   UNL     1       1.068  -2.702   7.936  0.00  0.00    -0.274 OA
ATOM     25  N   UNL     1       3.249  -2.300   8.002  0.00  0.00    -0.284 N 
ATOM     26  H   UNL     1       4.018  -1.859   7.607  0.00  0.00    +0.155 HD
BRANCH  25  27
ATOM     27  C   UNL     1       3.419  -3.155   9.098  0.00  0.00    +0.036 A 
ATOM     28  C   UNL     1       4.391  -2.879  10.050  0.00  0.00    +0.026 A 
ATOM     29  C   UNL     1       4.554  -3.720  11.134  0.00  0.00    +0.043 A 
ATOM     30  C   UNL     1       3.756  -4.844  11.266  0.00  0.00    +0.159 A 
ATOM     31  C   UNL     1       2.789  -5.125  10.313  0.00  0.00    +0.160 A 
ATOM     32  C   UNL     1       2.619  -4.282   9.230  0.00  0.00    +0.064 A 
ATOM     33  F   UNL     1       2.011  -6.222  10.444  0.00  0.00    -0.202 F 
ATOM     34  F   UNL     1       3.921  -5.668  12.324  0.00  0.00    -0.202 F 
ENDBRANCH  25  27
ENDBRANCH  21  23
ENDBRANCH  20  21
ENDBRANCH   4  20
TORSDOF 9
