REMARK  Name = ZINC66984438
REMARK  7 active torsions:
REMARK  status: ('A' for Active; 'I' for Inactive)
REMARK    1  A    between atoms: C_1  and  C_2
REMARK    2  A    between atoms: C_12  and  C_14
REMARK    3  A    between atoms: N_16  and  C_17
REMARK    4  A    between atoms: C_17  and  C_18
REMARK    5  A    between atoms: C_23  and  N_24
REMARK    6  A    between atoms: N_24  and  C_25
REMARK    7  A    between atoms: N_24  and  C_26
REMARK                            x       y       z     vdW  Elec       q    Type
REMARK                         _______ _______ _______ _____ _____    ______ ____
ROOT
ATOM      1  C   UNL     1       0.866   1.981   4.059  0.00  0.00    +0.300 C 
ATOM      2  O   UNL     1       0.763   1.469   5.154  0.00  0.00    -0.265 OA
ATOM      3  N   UNL     1       1.018   3.316   3.950  0.00  0.00    -0.303 N 
ATOM      4  H   UNL     1       1.100   3.725   3.075  0.00  0.00    +0.149 HD
ENDROOT
BRANCH   1  16
ATOM      5  C   UNL     1      -0.855   1.210   1.069  0.00  0.00    +0.046 C 
ATOM      6  C   UNL     1      -0.720  -0.290   1.013  0.00  0.00    -0.026 A 
ATOM      7  C   UNL     1      -1.366  -1.004   0.024  0.00  0.00    +0.043 A 
ATOM      8  C   UNL     1      -1.241  -2.382  -0.025  0.00  0.00    +0.124 A 
ATOM      9  C   UNL     1      -0.471  -3.044   0.915  0.00  0.00    +0.043 A 
ATOM     10  C   UNL     1       0.179  -2.333   1.910  0.00  0.00    -0.023 A 
ATOM     11  C   UNL     1       0.060  -0.953   1.954  0.00  0.00    +0.043 A 
ATOM     12  N   UNL     1       0.718  -0.207   2.941  0.00  0.00    -0.263 N 
ATOM     13  C   UNL     1       1.291  -0.909   4.097  0.00  0.00    +0.114 C 
ATOM     14  C   UNL     1       2.027  -2.150   3.575  0.00  0.00    +0.024 C 
ATOM     15  C   UNL     1       1.004  -3.085   2.921  0.00  0.00    +0.038 C 
ATOM     16  C   UNL     1       0.824   1.132   2.831  0.00  0.00    +0.306 C 
ATOM     17  O   UNL     1       0.886   1.648   1.734  0.00  0.00    -0.265 OA
ATOM     18  F   UNL     1      -1.872  -3.082  -0.994  0.00  0.00    -0.205 F 
ENDBRANCH   1  16
BRANCH   3  19
ATOM     19  C   UNL     1       1.058   4.149   5.155  0.00  0.00    +0.143 C 
BRANCH  19  20
ATOM     20  C   UNL     1       1.235   5.593   4.761  0.00  0.00    +0.008 A 
ATOM     21  C   UNL     1       2.485   6.184   4.804  0.00  0.00    +0.010 A 
ATOM     22  C   UNL     1       2.601   7.516   4.432  0.00  0.00    +0.018 A 
ATOM     23  C   UNL     1       1.474   8.208   4.035  0.00  0.00    +0.084 A 
ATOM     24  N   UNL     1       0.294   7.619   4.005  0.00  0.00    -0.349 N 
ATOM     25  C   UNL     1       0.143   6.348   4.345  0.00  0.00    +0.103 A 
ATOM     26  H   UNL     1      -0.482   8.128   3.722  0.00  0.00    +0.167 HD
BRANCH  25  27
ATOM     27  N   UNL     1      -1.118   5.766   4.292  0.00  0.00    -0.323 N 
ATOM     28  C   UNL     1      -1.995   5.810   5.465  0.00  0.00    +0.130 C 
ATOM     29  C   UNL     1      -1.570   5.107   3.064  0.00  0.00    +0.130 C 
ENDBRANCH  25  27
ENDBRANCH  19  20
ENDBRANCH   3  19
TORSDOF 4
