REMARK  Name = ZINC12570032
REMARK  10 active torsions:
REMARK  status: ('A' for Active; 'I' for Inactive)
REMARK    1  A    between atoms: C_1  and  C_2
REMARK    2  A    between atoms: C_2  and  C_4
REMARK    3  A    between atoms: C_2  and  O_23
REMARK    4  A    between atoms: N_6  and  C_7
REMARK    5  A    between atoms: C_7  and  N_9
REMARK    6  A    between atoms: N_9  and  N_10
REMARK    7  A    between atoms: C_11  and  C_13
REMARK    8  A    between atoms: C_13  and  O_14
REMARK    9  A    between atoms: O_14  and  C_15
REMARK   10  A    between atoms: O_23  and  C_24
REMARK                            x       y       z     vdW  Elec       q    Type
REMARK                         _______ _______ _______ _____ _____    ______ ____
ROOT
ATOM      1  C   UNL     1       5.418  -4.088  -0.581  0.00  0.00    +0.153 C 
ATOM      2  S   UNL     1       6.975  -4.752  -0.837  0.00  0.00    -0.017 S 
ENDROOT
BRANCH   1   5
ATOM      3  C   UNL     1       4.544  -6.237  -0.322  0.00  0.00    +0.259 C 
ATOM      4  O   UNL     1       5.647  -6.708  -0.503  0.00  0.00    -0.271 OA
ATOM      5  N   UNL     1       4.368  -4.901  -0.351  0.00  0.00    -0.264 N 
ATOM      6  H   UNL     1       3.486  -4.525  -0.206  0.00  0.00    +0.157 HD
BRANCH   3   8
ATOM      7  C   UNL     1       2.370  -7.027  -1.217  0.00  0.00    +0.062 C 
ATOM      8  C   UNL     1       3.370  -7.146  -0.064  0.00  0.00    +0.256 C 
BRANCH   8   9
ATOM      9  O   UNL     1       3.826  -8.497   0.033  0.00  0.00    -0.478 OA
BRANCH   9  10
ATOM     10  C   UNL     1       3.056  -9.358   0.750  0.00  0.00    +0.140 A 
ATOM     11  C   UNL     1       1.832  -8.942   1.251  0.00  0.00    +0.048 A 
ATOM     12  C   UNL     1       1.048  -9.820   1.976  0.00  0.00    +0.023 A 
ATOM     13  C   UNL     1       1.488 -11.111   2.209  0.00  0.00    +0.043 A 
ATOM     14  C   UNL     1       2.712 -11.527   1.715  0.00  0.00    +0.043 A 
ATOM     15  C   UNL     1       3.496 -10.653   0.985  0.00  0.00    +0.084 A 
ATOM     16 CL   UNL     1       5.031 -11.175   0.365  0.00  0.00    -0.080 Cl
ATOM     17 CL   UNL     1       0.505 -12.210   3.125  0.00  0.00    -0.083 Cl
ENDBRANCH   9  10
ENDBRANCH   8   9
ENDBRANCH   3   8
ENDBRANCH   1   5
BRANCH   1  18
ATOM     18  N   UNL     1       5.242  -2.752  -0.610  0.00  0.00    -0.245 N 
ATOM     19  H   UNL     1       5.998  -2.167  -0.776  0.00  0.00    +0.172 HD
BRANCH  18  20
ATOM     20  N   UNL     1       3.968  -2.209  -0.400  0.00  0.00    -0.232 N 
ATOM     21  C   UNL     1       3.792  -0.873  -0.429  0.00  0.00    +0.267 C 
ATOM     22  O   UNL     1       4.737  -0.141  -0.636  0.00  0.00    -0.271 OA
ATOM     23  H   UNL     1       3.212  -2.794  -0.235  0.00  0.00    +0.173 HD
BRANCH  21  24
ATOM     24  C   UNL     1       2.422  -0.288  -0.204  0.00  0.00    +0.326 C 
BRANCH  24  25
ATOM     25  O   UNL     1       2.493   1.137  -0.282  0.00  0.00    -0.481 OA
BRANCH  25  26
ATOM     26  C   UNL     1       1.334   1.824  -0.100  0.00  0.00    +0.140 A 
ATOM     27  C   UNL     1       0.153   1.140   0.148  0.00  0.00    +0.048 A 
ATOM     28  C   UNL     1      -1.025   1.839   0.326  0.00  0.00    +0.023 A 
ATOM     29  C   UNL     1      -1.026   3.222   0.269  0.00  0.00    +0.043 A 
ATOM     30  C   UNL     1       0.150   3.907   0.021  0.00  0.00    +0.043 A 
ATOM     31  C   UNL     1       1.331   3.210  -0.164  0.00  0.00    +0.084 A 
ATOM     32 CL   UNL     1       2.807   4.069  -0.475  0.00  0.00    -0.080 Cl
ATOM     33 CL   UNL     1      -2.507   4.098   0.500  0.00  0.00    -0.083 Cl
ENDBRANCH  25  26
ENDBRANCH  24  25
ENDBRANCH  21  24
ENDBRANCH  18  20
ENDBRANCH   1  18
TORSDOF 9
