REMARK  Name = ZINC09350821
REMARK  7 active torsions:
REMARK  status: ('A' for Active; 'I' for Inactive)
REMARK    1  A    between atoms: C_4  and  S_7
REMARK    2  A    between atoms: S_7  and  C_8
REMARK    3  A    between atoms: C_13  and  N_14
REMARK    4  A    between atoms: C_19  and  C_24
REMARK    5  A    between atoms: C_21  and  O_23
REMARK    6  A    between atoms: C_24  and  S_25
REMARK    7  A    between atoms: S_25  and  C_26
REMARK                            x       y       z     vdW  Elec       q    Type
REMARK                         _______ _______ _______ _____ _____    ______ ____
ROOT
ATOM      1  N   UNL     1      -1.926   7.748   0.183  0.00  0.00    -0.327 N 
ATOM      2  C   UNL     1      -1.966   9.119   0.073  0.00  0.00    +0.180 C 
ATOM      3  N   UNL     1      -0.792   9.839   0.003  0.00  0.00    -0.296 N 
ATOM      4  C   UNL     1       0.423   9.176  -0.095  0.00  0.00    +0.234 A 
ATOM      5  N   UNL     1       1.547   9.871   0.003  0.00  0.00    -0.216 NA
ATOM      6  C   UNL     1       2.725   9.272  -0.080  0.00  0.00    +0.060 A 
ATOM      7  C   UNL     1       2.776   7.906  -0.282  0.00  0.00    +0.091 A 
ATOM      8  C   UNL     1       1.577   7.203  -0.387  0.00  0.00    +0.217 A 
ATOM      9  N   UNL     1       0.431   7.867  -0.289  0.00  0.00    -0.177 NA
ATOM     10  H   UNL     1      -1.077   7.295   0.304  0.00  0.00    +0.169 HD
ATOM     11  H   UNL     1      -3.245  10.692  -0.109  0.00  0.00    +0.159 HD
ATOM     12  H   UNL     1      -0.816  10.808   0.022  0.00  0.00    +0.172 HD
ATOM     13  N   UNL     1      -3.162   9.688   0.046  0.00  0.00    -0.371 N 
ATOM     14  H   UNL     1      -4.005   9.117   0.180  0.00  0.00    +0.159 HD
ENDROOT
BRANCH   1  20
ATOM     15  C   UNL     1      -3.237   5.820   0.843  0.00  0.00    +0.036 A 
ATOM     16  C   UNL     1      -4.413   5.088   0.771  0.00  0.00    +0.017 A 
ATOM     17  C   UNL     1      -5.461   5.538  -0.009  0.00  0.00    +0.001 A 
ATOM     18  C   UNL     1      -5.338   6.714  -0.727  0.00  0.00    +0.002 A 
ATOM     19  C   UNL     1      -4.168   7.448  -0.665  0.00  0.00    +0.027 A 
ATOM     20  C   UNL     1      -3.113   7.006   0.118  0.00  0.00    +0.056 A 
BRANCH  15  21
ATOM     21  S   UNL     1      -1.901   5.251   1.841  0.00  0.00    -0.087 S 
BRANCH  21  25
ATOM     22  C   UNL     1      -1.879   8.093   5.368  0.00  0.00    +0.000 A 
ATOM     23  C   UNL     1      -2.763   8.296   4.324  0.00  0.00    +0.001 A 
ATOM     24  C   UNL     1      -2.768   7.435   3.244  0.00  0.00    +0.015 A 
ATOM     25  C   UNL     1      -1.892   6.357   3.213  0.00  0.00    +0.013 A 
ATOM     26  C   UNL     1      -1.009   6.153   4.267  0.00  0.00    +0.015 A 
ATOM     27  C   UNL     1      -1.005   7.021   5.340  0.00  0.00    +0.001 A 
ENDBRANCH  21  25
ENDBRANCH  15  21
ENDBRANCH   1  20
BRANCH   8  28
ATOM     28  O   UNL     1       1.580   5.863  -0.586  0.00  0.00    -0.492 OA
ATOM     29  H   UNL     1       1.582   5.604  -1.517  0.00  0.00    +0.294 HD
ENDBRANCH   8  28
BRANCH   6  30
ATOM     30  C   UNL     1       3.997  10.073   0.040  0.00  0.00    +0.130 C 
BRANCH  30  31
ATOM     31  S   UNL     1       4.508  10.645  -1.604  0.00  0.00    -0.119 S 
BRANCH  31  32
ATOM     32  C   UNL     1       5.987  11.552  -1.299  0.00  0.00    +0.008 A 
ATOM     33  C   UNL     1       6.471  11.679  -0.002  0.00  0.00    +0.016 A 
ATOM     34  C   UNL     1       7.633  12.386   0.233  0.00  0.00    +0.021 A 
ATOM     35  C   UNL     1       8.310  12.977  -0.819  0.00  0.00    +0.041 A 
ATOM     36  C   UNL     1       7.828  12.857  -2.111  0.00  0.00    +0.021 A 
ATOM     37  C   UNL     1       6.669  12.147  -2.353  0.00  0.00    +0.016 A 
ATOM     38 CL   UNL     1       9.768  13.871  -0.518  0.00  0.00    -0.084 Cl
ENDBRANCH  31  32
ENDBRANCH  30  31
ENDBRANCH   6  30
TORSDOF 7
