REMARK  Name = ZINC28849248
REMARK  7 active torsions:
REMARK  status: ('A' for Active; 'I' for Inactive)
REMARK    1  A    between atoms: C_1  and  C_2
REMARK    2  A    between atoms: C_6  and  N_8
REMARK    3  A    between atoms: C_9  and  C_23
REMARK    4  A    between atoms: C_12  and  S_13
REMARK    5  A    between atoms: S_13  and  C_14
REMARK    6  A    between atoms: C_14  and  C_16
REMARK    7  A    between atoms: C_14  and  C_17
REMARK                            x       y       z     vdW  Elec       q    Type
REMARK                         _______ _______ _______ _____ _____    ______ ____
ROOT
ATOM      1  N   UNL     1       2.301   3.371  -0.002  0.00  0.00    -0.270 N 
ATOM      2  C   UNL     1       3.658   3.130  -0.016  0.00  0.00    +0.171 A 
ATOM      3  N   UNL     1       3.816   1.826  -0.025  0.00  0.00    -0.128 NA
ATOM      4  N   UNL     1       2.671   1.243  -0.011  0.00  0.00    -0.122 NA
ATOM      5  C   UNL     1       1.708   2.135  -0.003  0.00  0.00    +0.197 A 
ENDROOT
BRANCH   2   6
ATOM      6  C   UNL     1       4.730   4.145  -0.021  0.00  0.00    +0.045 A 
ATOM      7  C   UNL     1       4.570   5.494  -0.018  0.00  0.00    +0.095 A 
ATOM      8  N   UNL     1       5.792   6.102  -0.021  0.00  0.00    -0.360 N 
ATOM      9  H   UNL     1       5.860   7.200  -0.011  0.00  0.00    +0.165 HD
ATOM     10  C   UNL     1       6.795   5.156  -0.035  0.00  0.00    +0.047 A 
ATOM     11  C   UNL     1       6.181   3.892  -0.036  0.00  0.00    +0.010 A 
ATOM     12  C   UNL     1       6.961   2.738  -0.050  0.00  0.00    +0.011 A 
ATOM     13  C   UNL     1       8.334   2.842  -0.062  0.00  0.00    +0.001 A 
ATOM     14  C   UNL     1       8.941   4.090  -0.061  0.00  0.00    +0.002 A 
ATOM     15  C   UNL     1       8.183   5.240  -0.048  0.00  0.00    +0.026 A 
ENDBRANCH   2   6
BRANCH   1  21
ATOM     16  C   UNL     1      -0.550   6.643   2.312  0.00  0.00    +0.044 C 
ATOM     17  C   UNL     1       0.274   6.229   1.120  0.00  0.00    -0.048 A 
ATOM     18  C   UNL     1       0.400   7.081   0.038  0.00  0.00    +0.003 A 
ATOM     19  C   UNL     1       1.155   6.704  -1.057  0.00  0.00    +0.002 A 
ATOM     20  C   UNL     1       1.790   5.477  -1.071  0.00  0.00    +0.026 A 
ATOM     21  C   UNL     1       1.661   4.618   0.011  0.00  0.00    +0.051 A 
ATOM     22  C   UNL     1       0.902   4.999   1.110  0.00  0.00    +0.029 A 
ENDBRANCH   1  21
BRANCH   5  23
ATOM     23  S   UNL     1      -0.022   1.806   0.012  0.00  0.00    -0.073 S 
BRANCH  23  24
ATOM     24  C   UNL     1       0.002  -0.004   0.002  0.00  0.00    +0.137 C 
ATOM     25  C   UNL     1       0.606  -0.499  -1.314  0.00  0.00    +0.029 C 
BRANCH  24  26
ATOM     26  C   UNL     1      -1.405  -0.526   0.137  0.00  0.00    +0.233 C 
ATOM     27  O   UNL     1      -2.342   0.158  -0.215  0.00  0.00    -0.274 OA
ATOM     28  N   UNL     1      -1.622  -1.754   0.648  0.00  0.00    -0.239 N 
ATOM     29  C   UNL     1      -2.881  -2.221   0.768  0.00  0.00    +0.303 C 
ATOM     30  O   UNL     1      -3.820  -1.535   0.415  0.00  0.00    -0.253 OA
ATOM     31  N   UNL     1      -3.098  -3.449   1.280  0.00  0.00    -0.313 N 
ATOM     32  H   UNL     1      -0.772  -2.375   0.967  0.00  0.00    +0.159 HD
ATOM     33  H   UNL     1      -4.125  -3.830   1.378  0.00  0.00    +0.146 HD
ATOM     34  H   UNL     1      -2.248  -4.070   1.599  0.00  0.00    +0.146 HD
ENDBRANCH  24  26
ENDBRANCH  23  24
ENDBRANCH   5  23
TORSDOF 5
