REMARK  Name = ZINC48396743
REMARK  5 active torsions:
REMARK  status: ('A' for Active; 'I' for Inactive)
REMARK    1  A    between atoms: C_2  and  C_3
REMARK    2  A    between atoms: C_3  and  N_4
REMARK    3  A    between atoms: N_7  and  C_8
REMARK    4  A    between atoms: C_8  and  C_9
REMARK    5  A    between atoms: C_12  and  C_14
REMARK                            x       y       z     vdW  Elec       q    Type
REMARK                         _______ _______ _______ _____ _____    ______ ____
ROOT
ATOM      1  C   UNL     1       4.583   5.468  -0.012  0.00  0.00    +0.123 A 
ATOM      2  C   UNL     1       5.346   5.612  -1.113  0.00  0.00    +0.047 A 
ATOM      3  C   UNL     1       6.666   5.833  -0.675  0.00  0.00    +0.050 A 
ATOM      4  C   UNL     1       6.636   5.811   0.684  0.00  0.00    +0.135 A 
ATOM      5  O   UNL     1       5.365   5.595   1.072  0.00  0.00    -0.458 OA
ENDROOT
BRANCH   4   6
ATOM      6  C   UNL     1       7.796   5.999   1.581  0.00  0.00    +0.017 A 
ATOM      7  C   UNL     1       9.065   6.229   1.046  0.00  0.00    +0.013 A 
ATOM      8  C   UNL     1      10.144   6.404   1.887  0.00  0.00    +0.021 A 
ATOM      9  C   UNL     1       9.970   6.352   3.260  0.00  0.00    +0.041 A 
ATOM     10  C   UNL     1       8.714   6.124   3.797  0.00  0.00    +0.021 A 
ATOM     11  C   UNL     1       7.627   5.953   2.966  0.00  0.00    +0.013 A 
ATOM     12 CL   UNL     1      11.333   6.572   4.313  0.00  0.00    -0.084 Cl
ENDBRANCH   4   6
BRANCH   1  13
ATOM     13  C   UNL     1       3.097   5.213   0.001  0.00  0.00    +0.180 C 
BRANCH  13  17
ATOM     14  N   UNL     1       1.357   1.975  -0.000  0.00  0.00    -0.289 N 
ATOM     15  C   UNL     1       1.585   3.303   0.005  0.00  0.00    +0.301 C 
ATOM     16  O   UNL     1       0.650   4.081   0.018  0.00  0.00    -0.253 OA
ATOM     17  N   UNL     1       2.849   3.770  -0.005  0.00  0.00    -0.292 N 
ATOM     18  H   UNL     1       2.102   1.355  -0.011  0.00  0.00    +0.151 HD
ATOM     19  H   UNL     1       3.595   3.149  -0.015  0.00  0.00    +0.151 HD
BRANCH  14  20
ATOM     20  C   UNL     1      -0.018   1.468   0.010  0.00  0.00    +0.195 C 
BRANCH  20  22
ATOM     21  C   UNL     1       0.018  -1.178  -0.004  0.00  0.00    +0.005 C 
ATOM     22  C   UNL     1       0.002  -0.004   0.002  0.00  0.00    -0.087 C 
ENDBRANCH  20  22
ENDBRANCH  14  20
ENDBRANCH  13  17
ENDBRANCH   1  13
TORSDOF 5
