REMARK  Name = ZINC66783301
REMARK  10 active torsions:
REMARK  status: ('A' for Active; 'I' for Inactive)
REMARK    1  A    between atoms: C_1  and  C_2
REMARK    2  A    between atoms: C_6  and  C_7
REMARK    3  A    between atoms: N_9  and  N_10
REMARK    4  A    between atoms: C_11  and  C_13
REMARK    5  A    between atoms: C_16  and  O_27
REMARK    6  A    between atoms: C_18  and  O_25
REMARK    7  A    between atoms: C_19  and  O_23
REMARK    8  A    between atoms: O_23  and  C_24
REMARK    9  A    between atoms: O_25  and  C_26
REMARK   10  A    between atoms: O_27  and  C_28
REMARK                            x       y       z     vdW  Elec       q    Type
REMARK                         _______ _______ _______ _____ _____    ______ ____
ROOT
ATOM      1  C   UNL     1       0.088  -1.159   7.301  0.00  0.00    +0.104 A 
ATOM      2  C   UNL     1       0.116  -1.959   8.401  0.00  0.00    +0.044 A 
ATOM      3  C   UNL     1       0.113  -1.126   9.542  0.00  0.00    +0.046 A 
ATOM      4  C   UNL     1       0.134  -1.386  10.925  0.00  0.00    +0.133 A 
ATOM      5  C   UNL     1       0.124  -0.337  11.819  0.00  0.00    +0.095 A 
ATOM      6  C   UNL     1       0.094   0.978  11.361  0.00  0.00    +0.167 A 
ATOM      7  C   UNL     1       0.074   1.251  10.003  0.00  0.00    +0.186 A 
ATOM      8  C   UNL     1       0.084   0.205   9.083  0.00  0.00    +0.096 A 
ATOM      9  N   UNL     1       0.075   0.164   7.705  0.00  0.00    -0.347 N 
ATOM     10  H   UNL     1       0.059   0.935   7.117  0.00  0.00    +0.166 HD
ENDROOT
BRANCH   1  12
ATOM     11  N   UNL     1       0.059  -0.732   4.900  0.00  0.00    -0.229 N 
ATOM     12  C   UNL     1       0.081  -1.625   5.909  0.00  0.00    +0.276 C 
ATOM     13  O   UNL     1       0.094  -2.817   5.666  0.00  0.00    -0.267 OA
ATOM     14  H   UNL     1       0.049   0.219   5.094  0.00  0.00    +0.173 HD
BRANCH  11  17
ATOM     15  C   UNL     1       0.031  -0.283   2.562  0.00  0.00    +0.267 C 
ATOM     16  O   UNL     1       0.017   0.910   2.805  0.00  0.00    -0.268 OA
ATOM     17  N   UNL     1       0.052  -1.176   3.571  0.00  0.00    -0.230 N 
ATOM     18  H   UNL     1       0.063  -2.126   3.378  0.00  0.00    +0.173 HD
BRANCH  15  24
ATOM     19  C   UNL     1      -0.018   1.503   0.010  0.00  0.00    +0.045 C 
ATOM     20  C   UNL     1       0.002  -0.004   0.002  0.00  0.00    -0.031 A 
ATOM     21  C   UNL     1       0.007  -0.729  -1.166  0.00  0.00    +0.011 A 
ATOM     22  C   UNL     1       0.025  -2.083  -1.101  0.00  0.00    +0.046 A 
ATOM     23  S   UNL     1       0.037  -2.416   0.545  0.00  0.00    -0.092 S 
ATOM     24  C   UNL     1       0.023  -0.748   1.172  0.00  0.00    +0.078 A 
ENDBRANCH  15  24
ENDBRANCH  11  17
ENDBRANCH   1  12
BRANCH   7  25
ATOM     25  O   UNL     1       0.044   2.541   9.567  0.00  0.00    -0.490 OA
ATOM     26  C   UNL     1       1.302   3.180   9.345  0.00  0.00    +0.277 C 
ENDBRANCH   7  25
BRANCH   6  27
ATOM     27  O   UNL     1       0.085   2.003  12.255  0.00  0.00    -0.491 OA
ATOM     28  C   UNL     1       0.107   1.655  13.640  0.00  0.00    +0.277 C 
ENDBRANCH   6  27
BRANCH   4  29
ATOM     29  O   UNL     1       0.162  -2.667  11.377  0.00  0.00    -0.494 OA
ATOM     30  C   UNL     1       0.181  -2.854  12.794  0.00  0.00    +0.277 C 
ENDBRANCH   4  29
TORSDOF 6
