REMARK  Name = ZINC36093621
REMARK  9 active torsions:
REMARK  status: ('A' for Active; 'I' for Inactive)
REMARK    1  A    between atoms: C_1  and  C_2
REMARK    2  A    between atoms: C_2  and  O_3
REMARK    3  A    between atoms: O_3  and  C_4
REMARK    4  A    between atoms: C_6  and  C_18
REMARK    5  A    between atoms: C_9  and  O_10
REMARK    6  A    between atoms: O_10  and  C_11
REMARK    7  A    between atoms: C_11  and  C_13
REMARK    8  A    between atoms: N_27  and  C_30
REMARK    9  A    between atoms: C_31  and  O_33
REMARK                            x       y       z     vdW  Elec       q    Type
REMARK                         _______ _______ _______ _____ _____    ______ ____
ROOT
ATOM      1  C   UNL     1       0.675  -4.926  -0.013  0.00  0.00    +0.224 C 
ATOM      2  N   UNL     1       0.332  -6.208   0.628  0.00  0.00    -0.313 N 
ATOM      3  C   UNL     1       0.397  -6.239   2.003  0.00  0.00    +0.080 A 
ATOM      4  C   UNL     1       1.216  -5.362   2.725  0.00  0.00    +0.067 A 
ATOM      5  C   UNL     1       1.168  -5.506   4.166  0.00  0.00    -0.027 A 
ATOM      6  C   UNL     1       0.340  -6.482   4.609  0.00  0.00    -0.021 A 
ATOM      7  S   UNL     1      -0.357  -7.183   3.140  0.00  0.00    -0.080 S 
ATOM      8  C   UNL     1       0.098  -6.856   6.037  0.00  0.00    -0.036 C 
ATOM      9  N   UNL     1       1.170  -6.266   6.859  0.00  0.00    +0.381 N 
ATOM     10  C   UNL     1       1.307  -4.838   6.540  0.00  0.00    -0.074 C 
ATOM     11  C   UNL     1       1.954  -4.665   5.162  0.00  0.00    +0.018 C 
ATOM     12  C   UNL     1       0.837  -6.419   8.281  0.00  0.00    -0.096 C 
ATOM     13  C   UNL     1       2.037  -4.397   1.949  0.00  0.00    +0.220 C 
ATOM     14  N   UNL     1       1.766  -4.254   0.681  0.00  0.00    -0.223 NA
ATOM     15  H   UNL     1       0.074  -6.987   0.110  0.00  0.00    +0.149 HD
ATOM     16  H   UNL     1       2.040  -6.738   6.665  0.00  0.00    -0.082 HD
ENDROOT
BRANCH   1  19
ATOM     17  C   UNL     1      -1.497  -1.835   0.038  0.00  0.00    +0.163 A 
ATOM     18  C   UNL     1      -0.382  -2.659   0.030  0.00  0.00    +0.056 A 
ATOM     19  C   UNL     1      -0.538  -4.032  -0.004  0.00  0.00    -0.002 A 
ATOM     20  C   UNL     1      -1.804  -4.586  -0.031  0.00  0.00    +0.011 A 
ATOM     21  C   UNL     1      -2.920  -3.771  -0.023  0.00  0.00    +0.050 A 
ATOM     22  C   UNL     1      -2.771  -2.393   0.017  0.00  0.00    +0.173 A 
BRANCH  17  23
ATOM     23  O   UNL     1      -1.345  -0.484   0.072  0.00  0.00    -0.489 OA
BRANCH  23  25
ATOM     24  C   UNL     1      -0.038   1.548   0.129  0.00  0.00    +0.048 C 
ATOM     25  C   UNL     1      -0.008   0.019   0.092  0.00  0.00    +0.226 C 
ENDBRANCH  23  25
ENDBRANCH  17  23
BRANCH  22  26
ATOM     26  O   UNL     1      -3.868  -1.589   0.031  0.00  0.00    -0.418 OA
BRANCH  26  27
ATOM     27  C   UNL     1      -4.261  -1.035  -1.134  0.00  0.00    +0.351 C 
ATOM     28  O   UNL     1      -3.701  -1.337  -2.171  0.00  0.00    -0.244 OA
BRANCH  27  29
ATOM     29  C   UNL     1      -5.362  -0.070  -1.151  0.00  0.00    +0.097 A 
ATOM     30  C   UNL     1      -5.919   0.604  -2.229  0.00  0.00    +0.022 A 
ATOM     31  C   UNL     1      -6.954   1.456  -1.929  0.00  0.00    +0.008 A 
ATOM     32  C   UNL     1      -7.354   1.580  -0.639  0.00  0.00    +0.046 A 
ATOM     33  S   UNL     1      -6.343   0.540   0.208  0.00  0.00    -0.090 S 
ENDBRANCH  27  29
ENDBRANCH  26  27
ENDBRANCH  22  26
ENDBRANCH   1  19
BRANCH  13  34
ATOM     34  O   UNL     1       3.031  -3.692   2.537  0.00  0.00    -0.492 OA
ATOM     35  H   UNL     1       3.498  -3.095   1.937  0.00  0.00    +0.294 HD
ENDBRANCH  13  34
TORSDOF 7
