REMARK  Name = ZINC38659922
REMARK  10 active torsions:
REMARK  status: ('A' for Active; 'I' for Inactive)
REMARK    1  A    between atoms: C_1  and  O_2
REMARK    2  A    between atoms: O_2  and  C_3
REMARK    3  A    between atoms: C_6  and  O_33
REMARK    4  A    between atoms: C_7  and  C_9
REMARK    5  A    between atoms: C_14  and  O_23
REMARK    6  A    between atoms: C_18  and  N_22
REMARK    7  A    between atoms: C_19  and  C_20
REMARK    8  A    between atoms: O_23  and  C_24
REMARK    9  A    between atoms: C_24  and  C_26
REMARK   10  A    between atoms: O_33  and  C_34
REMARK                            x       y       z     vdW  Elec       q    Type
REMARK                         _______ _______ _______ _____ _____    ______ ____
ROOT
ATOM      1  C   UNL     1       1.376  -4.119  -2.323  0.00  0.00    +0.102 C 
ATOM      2  C   UNL     1       2.107  -4.652  -1.119  0.00  0.00    +0.008 A 
ATOM      3  C   UNL     1       3.490  -4.655  -1.110  0.00  0.00    +0.012 A 
ATOM      4  C   UNL     1       4.178  -5.140  -0.015  0.00  0.00    +0.047 A 
ATOM      5  C   UNL     1       3.480  -5.627   1.082  0.00  0.00    +0.135 A 
ATOM      6  C   UNL     1       2.095  -5.624   1.076  0.00  0.00    +0.093 A 
ATOM      7  C   UNL     1       1.405  -5.135  -0.026  0.00  0.00    +0.138 A 
ATOM      8  O   UNL     1       0.049  -5.139  -0.016  0.00  0.00    -0.441 OA
ATOM      9  C   UNL     1      -0.629  -5.048  -1.172  0.00  0.00    +0.199 C 
ATOM     10  C   UNL     1      -0.057  -4.572  -2.300  0.00  0.00    +0.098 C 
ENDROOT
BRANCH   1  15
ATOM     11  C   UNL     1       0.916  -0.527  -1.240  0.00  0.00    +0.121 A 
ATOM     12  C   UNL     1       1.512   0.157  -2.288  0.00  0.00    +0.049 A 
ATOM     13  C   UNL     1       2.063  -0.541  -3.345  0.00  0.00    +0.049 A 
ATOM     14  C   UNL     1       2.019  -1.928  -3.358  0.00  0.00    +0.124 A 
ATOM     15  C   UNL     1       1.423  -2.612  -2.309  0.00  0.00    +0.010 A 
ATOM     16  C   UNL     1       0.877  -1.914  -1.250  0.00  0.00    +0.053 A 
BRANCH  11  18
ATOM     17  C   UNL     1       0.449   1.586  -0.256  0.00  0.00    +0.277 C 
ATOM     18  O   UNL     1       0.373   0.160  -0.200  0.00  0.00    -0.495 OA
ENDBRANCH  11  18
BRANCH  14  19
ATOM     19  O   UNL     1       2.561  -2.616  -4.398  0.00  0.00    -0.495 OA
ATOM     20  C   UNL     1       3.158  -1.846  -5.444  0.00  0.00    +0.277 C 
ENDBRANCH  14  19
ENDBRANCH   1  15
BRANCH   9  21
ATOM     21  N   UNL     1      -1.942  -5.448  -1.207  0.00  0.00    -0.328 N 
ATOM     22  H   UNL     1      -2.366  -5.791  -0.405  0.00  0.00    +0.145 HD
ATOM     23  H   UNL     1      -2.445  -5.388  -2.034  0.00  0.00    +0.145 HD
ENDBRANCH   9  21
BRANCH  10  24
ATOM     24  C   UNL     1      -0.836  -4.498  -3.499  0.00  0.00    +0.101 C 
ATOM     25  N   UNL     1      -1.453  -4.440  -4.451  0.00  0.00    -0.191 NA
ENDBRANCH  10  24
BRANCH   5  26
ATOM     26  O   UNL     1       4.155  -6.105   2.161  0.00  0.00    -0.422 OA
BRANCH  26  27
ATOM     27  C   UNL     1       4.835  -5.226   2.922  0.00  0.00    +0.347 C 
ATOM     28  O   UNL     1       4.747  -4.035   2.700  0.00  0.00    -0.244 OA
BRANCH  27  29
ATOM     29  C   UNL     1       5.685  -5.710   4.027  0.00  0.00    +0.094 A 
ATOM     30  C   UNL     1       5.792  -7.079   4.283  0.00  0.00    +0.018 A 
ATOM     31  C   UNL     1       6.588  -7.524   5.316  0.00  0.00    +0.001 A 
ATOM     32  C   UNL     1       7.282  -6.619   6.102  0.00  0.00    +0.003 A 
ATOM     33  C   UNL     1       7.182  -5.262   5.857  0.00  0.00    +0.039 A 
ATOM     34  C   UNL     1       6.392  -4.800   4.821  0.00  0.00    +0.137 A 
ATOM     35  F   UNL     1       6.299  -3.474   4.579  0.00  0.00    -0.205 F 
ENDBRANCH  27  29
ENDBRANCH  26  27
ENDBRANCH   5  26
TORSDOF 8
