REMARK  Name = ZINC62580818
REMARK  8 active torsions:
REMARK  status: ('A' for Active; 'I' for Inactive)
REMARK    1  A    between atoms: C_1  and  C_2
REMARK    2  A    between atoms: C_2  and  C_4
REMARK    3  A    between atoms: C_2  and  N_16
REMARK    4  A    between atoms: C_8  and  C_10
REMARK    5  A    between atoms: C_17  and  C_19
REMARK    6  A    between atoms: C_19  and  C_20
REMARK    7  A    between atoms: C_20  and  C_21
REMARK    8  A    between atoms: C_24  and  C_26
REMARK                            x       y       z     vdW  Elec       q    Type
REMARK                         _______ _______ _______ _____ _____    ______ ____
ROOT
ATOM      1  N   UNL     1      -1.372  -0.511   0.012  0.00  0.00    -0.306 N 
ATOM      2  C   UNL     1      -2.029  -0.655   1.181  0.00  0.00    +0.214 C 
ATOM      3  O   UNL     1      -1.481  -0.365   2.224  0.00  0.00    -0.276 OA
ATOM      4  H   UNL     1      -1.810  -0.743  -0.822  0.00  0.00    +0.149 HD
ENDROOT
BRANCH   1   6
ATOM      5  C   UNL     1      -0.019   1.526   0.010  0.00  0.00    +0.036 C 
ATOM      6  C   UNL     1       0.002  -0.004   0.002  0.00  0.00    +0.134 C 
BRANCH   6   7
ATOM      7  C   UNL     1       0.707  -0.490  -1.238  0.00  0.00    +0.105 A 
ATOM      8  N   UNL     1       0.118  -0.748  -2.426  0.00  0.00    -0.348 N 
ATOM      9  H   UNL     1      -0.825  -0.653  -2.631  0.00  0.00    +0.167 HD
ATOM     10  C   UNL     1       1.095  -1.165  -3.286  0.00  0.00    +0.110 A 
ATOM     11  C   UNL     1       2.261  -1.149  -2.589  0.00  0.00    +0.064 A 
ATOM     12  N   UNL     1       1.986  -0.725  -1.339  0.00  0.00    -0.342 N 
ATOM     13  H   UNL     1       2.635  -0.614  -0.627  0.00  0.00    +0.167 HD
BRANCH  11  14
ATOM     14  C   UNL     1       3.598  -1.525  -3.111  0.00  0.00    -0.000 A 
ATOM     15  C   UNL     1       4.715  -1.467  -2.280  0.00  0.00    +0.010 A 
ATOM     16  C   UNL     1       5.956  -1.818  -2.771  0.00  0.00    +0.001 A 
ATOM     17  C   UNL     1       6.093  -2.225  -4.086  0.00  0.00    +0.000 A 
ATOM     18  C   UNL     1       4.988  -2.284  -4.915  0.00  0.00    +0.001 A 
ATOM     19  C   UNL     1       3.740  -1.942  -4.433  0.00  0.00    +0.010 A 
ENDBRANCH  11  14
ENDBRANCH   6   7
ENDBRANCH   1   6
BRANCH   2  20
ATOM     20  C   UNL     1      -3.442  -1.177   1.191  0.00  0.00    +0.105 C 
BRANCH  20  21
ATOM     21  C   UNL     1      -3.951  -1.243   2.633  0.00  0.00    +0.105 C 
BRANCH  21  22
ATOM     22  C   UNL     1      -5.364  -1.765   2.644  0.00  0.00    +0.197 A 
ATOM     23  N   UNL     1      -5.708  -3.019   2.738  0.00  0.00    -0.221 NA
ATOM     24  C   UNL     1      -7.046  -3.106   2.715  0.00  0.00    +0.161 A 
ATOM     25  C   UNL     1      -7.536  -1.845   2.601  0.00  0.00    +0.161 A 
ATOM     26  O   UNL     1      -6.472  -1.013   2.563  0.00  0.00    -0.440 OA
BRANCH  25  27
ATOM     27  C   UNL     1      -8.960  -1.455   2.537  0.00  0.00    +0.089 A 
ATOM     28  C   UNL     1      -9.478  -0.874   1.377  0.00  0.00    +0.137 A 
ATOM     29  C   UNL     1     -10.811  -0.513   1.324  0.00  0.00    +0.039 A 
ATOM     30  C   UNL     1     -11.632  -0.725   2.417  0.00  0.00    +0.006 A 
ATOM     31  C   UNL     1     -11.127  -1.299   3.570  0.00  0.00    +0.039 A 
ATOM     32  C   UNL     1      -9.798  -1.671   3.635  0.00  0.00    +0.137 A 
ATOM     33  F   UNL     1      -9.307  -2.238   4.760  0.00  0.00    -0.205 F 
ATOM     34  F   UNL     1      -8.678  -0.666   0.308  0.00  0.00    -0.205 F 
ENDBRANCH  25  27
ENDBRANCH  21  22
ENDBRANCH  20  21
ENDBRANCH   2  20
TORSDOF 7
