REMARK  Name = ZINC64411210
REMARK  7 active torsions:
REMARK  status: ('A' for Active; 'I' for Inactive)
REMARK    1  A    between atoms: C_1  and  C_2
REMARK    2  A    between atoms: C_2  and  O_3
REMARK    3  A    between atoms: O_3  and  C_4
REMARK    4  A    between atoms: C_4  and  C_6
REMARK    5  A    between atoms: C_13  and  N_16
REMARK    6  A    between atoms: C_17  and  C_19
REMARK    7  A    between atoms: C_22  and  C_24
REMARK                            x       y       z     vdW  Elec       q    Type
REMARK                         _______ _______ _______ _____ _____    ______ ____
ROOT
ATOM      1  N   UNL     1       2.607  -7.022  -1.927  0.00  0.00    -0.283 N 
ATOM      2  C   UNL     1       3.654  -7.802  -1.591  0.00  0.00    +0.265 C 
ATOM      3  O   UNL     1       4.752  -7.306  -1.423  0.00  0.00    -0.268 OA
ATOM      4  H   UNL     1       1.731  -7.417  -2.061  0.00  0.00    +0.152 HD
ENDROOT
BRANCH   1  12
ATOM      5  C   UNL     1       1.425  -2.325  -2.474  0.00  0.00    +0.054 C 
ATOM      6  H   UNL     1       0.664  -5.213  -1.719  0.00  0.00    +0.148 HD
ATOM      7  C   UNL     1       2.038  -1.490  -3.574  0.00  0.00    +0.045 C 
ATOM      8  C   UNL     1       2.959  -2.473  -4.343  0.00  0.00    +0.025 C 
ATOM      9  C   UNL     1       2.217  -3.795  -4.115  0.00  0.00    +0.094 C 
ATOM     10  C   UNL     1       1.588  -3.646  -2.727  0.00  0.00    +0.029 C 
ATOM     11  N   UNL     1       1.483  -4.863  -2.103  0.00  0.00    -0.320 N 
ATOM     12  C   UNL     1       2.791  -5.578  -2.091  0.00  0.00    +0.220 C 
ATOM     13  S   UNL     1       3.390  -5.171  -3.789  0.00  0.00    -0.110 S 
BRANCH   5  14
ATOM     14  C   UNL     1       0.776  -1.801  -1.335  0.00  0.00    +0.337 C 
ATOM     15  O   UNL     1       0.311  -2.553  -0.499  0.00  0.00    -0.245 OA
BRANCH  14  16
ATOM     16  O   UNL     1       0.671  -0.465  -1.174  0.00  0.00    -0.462 OA
BRANCH  16  18
ATOM     17  C   UNL     1      -0.019   1.526   0.010  0.00  0.00    +0.048 C 
ATOM     18  C   UNL     1       0.002  -0.004   0.002  0.00  0.00    +0.229 C 
ENDBRANCH  16  18
ENDBRANCH  14  16
ENDBRANCH   5  14
ENDBRANCH   1  12
BRANCH   2  19
ATOM     19  C   UNL     1       3.468  -9.253  -1.427  0.00  0.00    +0.133 A 
ATOM     20  C   UNL     1       4.502 -10.082  -1.081  0.00  0.00    +0.080 A 
ATOM     21  S   UNL     1       3.758 -11.587  -1.032  0.00  0.00    -0.077 S 
ATOM     22  C   UNL     1       2.196 -11.132  -1.442  0.00  0.00    +0.105 A 
ATOM     23  N   UNL     1       2.279  -9.839  -1.601  0.00  0.00    -0.237 NA
BRANCH  22  24
ATOM     24  C   UNL     1       0.979 -12.009  -1.587  0.00  0.00    +0.159 C 
ATOM     25  C   UNL     1       0.502 -12.468  -0.228  0.00  0.00    +0.014 C 
ATOM     26  C   UNL     1       0.582 -13.818  -0.238  0.00  0.00    -0.004 A 
ATOM     27  C   UNL     1       0.268 -14.840   0.768  0.00  0.00    +0.010 A 
ATOM     28  C   UNL     1       0.456 -16.143   0.459  0.00  0.00    +0.001 A 
ATOM     29  C   UNL     1       0.943 -16.541  -0.794  0.00  0.00    +0.002 A 
ATOM     30  C   UNL     1       1.253 -15.661  -1.769  0.00  0.00    +0.026 A 
ATOM     31  C   UNL     1       1.094 -14.264  -1.553  0.00  0.00    +0.043 A 
ATOM     32  N   UNL     1       1.321 -13.229  -2.328  0.00  0.00    -0.372 N 
ATOM     33  H   UNL     1       1.659 -13.264  -3.236  0.00  0.00    +0.161 HD
ENDBRANCH  22  24
ENDBRANCH   2  19
TORSDOF 6
