REMARK  Name = ZINC00803122
REMARK  6 active torsions:
REMARK  status: ('A' for Active; 'I' for Inactive)
REMARK    1  A    between atoms: C_1  and  O_2
REMARK    2  A    between atoms: O_2  and  C_3
REMARK    3  A    between atoms: C_6  and  C_11
REMARK    4  A    between atoms: C_8  and  O_9
REMARK    5  A    between atoms: O_9  and  C_10
REMARK    6  A    between atoms: C_14  and  C_23
REMARK                            x       y       z     vdW  Elec       q    Type
REMARK                         _______ _______ _______ _____ _____    ______ ____
ROOT
ATOM      1  C   UNL     1       2.590  -2.548   4.315  0.00  0.00    +0.143 C 
ATOM      2  C   UNL     1       4.057  -2.105   4.366  0.00  0.00    +0.059 C 
ATOM      3  C   UNL     1       4.692  -2.567   5.683  0.00  0.00    +0.107 C 
ATOM      4  N   UNL     1       3.986  -1.912   6.801  0.00  0.00    -0.307 N 
ATOM      5  C   UNL     1       2.600  -1.874   6.714  0.00  0.00    +0.216 A 
ATOM      6  N   UNL     1       1.937  -2.170   5.569  0.00  0.00    -0.224 N 
ATOM      7  N   UNL     1       0.576  -2.036   5.847  0.00  0.00    -0.132 NA
ATOM      8  C   UNL     1       0.480  -1.676   7.107  0.00  0.00    +0.233 A 
ATOM      9  N   UNL     1       1.717  -1.575   7.629  0.00  0.00    -0.180 NA
ATOM     10  N   UNL     1      -0.711  -1.432   7.792  0.00  0.00    -0.326 N 
ATOM     11  H   UNL     1       4.462  -1.530   7.554  0.00  0.00    +0.149 HD
ATOM     12  H   UNL     1      -1.561  -1.525   7.335  0.00  0.00    +0.145 HD
ATOM     13  H   UNL     1      -0.689  -1.169   8.726  0.00  0.00    +0.145 HD
ENDROOT
BRANCH   3  14
ATOM     14  C   UNL     1       4.566  -4.063   5.808  0.00  0.00    -0.009 A 
ATOM     15  C   UNL     1       3.506  -4.612   6.504  0.00  0.00    +0.007 A 
ATOM     16  C   UNL     1       3.391  -5.985   6.619  0.00  0.00    +0.000 A 
ATOM     17  C   UNL     1       4.336  -6.809   6.037  0.00  0.00    +0.001 A 
ATOM     18  C   UNL     1       5.396  -6.262   5.340  0.00  0.00    +0.020 A 
ATOM     19  C   UNL     1       5.509  -4.888   5.220  0.00  0.00    +0.046 A 
ATOM     20 CL   UNL     1       6.837  -4.199   4.339  0.00  0.00    -0.083 Cl
ENDBRANCH   3  14
BRANCH   1  24
ATOM     21  C   UNL     1       0.626  -0.619   1.042  0.00  0.00    +0.162 A 
ATOM     22  C   UNL     1       1.202   0.137   2.051  0.00  0.00    +0.050 A 
ATOM     23  C   UNL     1       1.836  -0.490   3.108  0.00  0.00    +0.009 A 
ATOM     24  C   UNL     1       1.897  -1.870   3.161  0.00  0.00    -0.019 A 
ATOM     25  C   UNL     1       1.325  -2.630   2.158  0.00  0.00    +0.055 A 
ATOM     26  C   UNL     1       0.683  -2.008   1.099  0.00  0.00    +0.162 A 
BRANCH  21  28
ATOM     27  C   UNL     1      -0.017   1.425   0.010  0.00  0.00    +0.277 C 
ATOM     28  O   UNL     1       0.002  -0.004   0.002  0.00  0.00    -0.491 OA
ENDBRANCH  21  28
BRANCH  26  29
ATOM     29  O   UNL     1       0.115  -2.754   0.114  0.00  0.00    -0.491 OA
ATOM     30  C   UNL     1       0.211  -4.174   0.238  0.00  0.00    +0.277 C 
ENDBRANCH  26  29
ENDBRANCH   1  24
TORSDOF 4
