REMARK  Name = ZINC36757280
REMARK  8 active torsions:
REMARK  status: ('A' for Active; 'I' for Inactive)
REMARK    1  A    between atoms: C_1  and  C_2
REMARK    2  A    between atoms: C_9  and  N_14
REMARK    3  A    between atoms: C_15  and  C_17
REMARK    4  A    between atoms: C_17  and  C_19
REMARK    5  A    between atoms: C_17  and  N_22
REMARK    6  A    between atoms: C_19  and  C_20
REMARK    7  A    between atoms: C_19  and  C_21
REMARK    8  A    between atoms: C_23  and  C_25
REMARK                            x       y       z     vdW  Elec       q    Type
REMARK                         _______ _______ _______ _____ _____    ______ ____
ROOT
ATOM      1  N   UNL     1       0.446  -5.962   1.988  0.00  0.00    -0.284 N 
ATOM      2  C   UNL     1       1.283  -6.688   2.755  0.00  0.00    +0.238 C 
ATOM      3  O   UNL     1       2.246  -6.160   3.271  0.00  0.00    -0.273 OA
ATOM      4  H   UNL     1      -0.354  -6.371   1.622  0.00  0.00    +0.155 HD
ENDROOT
BRANCH   1  12
ATOM      5  C   UNL     1       1.863   1.184  -0.621  0.00  0.00    +0.062 C 
ATOM      6  C   UNL     1       1.916  -0.332  -0.426  0.00  0.00    +0.256 C 
ATOM      7  C   UNL     1       0.936  -0.994  -1.361  0.00  0.00    +0.258 C 
ATOM      8  O   UNL     1       0.653  -0.468  -2.417  0.00  0.00    -0.271 OA
ATOM      9  N   UNL     1       0.376  -2.174  -1.019  0.00  0.00    -0.279 N 
ATOM     10  C   UNL     1       0.693  -2.743   0.222  0.00  0.00    +0.077 A 
ATOM     11  C   UNL     1       0.410  -4.073   0.483  0.00  0.00    +0.050 A 
ATOM     12  C   UNL     1       0.732  -4.617   1.719  0.00  0.00    +0.035 A 
ATOM     13  C   UNL     1       1.336  -3.829   2.689  0.00  0.00    +0.027 A 
ATOM     14  C   UNL     1       1.620  -2.501   2.429  0.00  0.00    +0.049 A 
ATOM     15  C   UNL     1       1.301  -1.954   1.198  0.00  0.00    +0.143 A 
ATOM     16  O   UNL     1       1.577  -0.650   0.927  0.00  0.00    -0.478 OA
ATOM     17  H   UNL     1      -0.238  -2.621  -1.623  0.00  0.00    +0.155 HD
ENDBRANCH   1  12
BRANCH   2  18
ATOM     18  C   UNL     1       1.024  -8.157   2.972  0.00  0.00    +0.162 C 
BRANCH  18  19
ATOM     19  N   UNL     1       2.217  -8.784   3.545  0.00  0.00    -0.300 N 
ATOM     20  C   UNL     1       2.436 -10.102   3.370  0.00  0.00    +0.246 C 
ATOM     21  O   UNL     1       1.642 -10.771   2.736  0.00  0.00    -0.270 OA
ATOM     22  H   UNL     1       2.850  -8.250   4.051  0.00  0.00    +0.150 HD
BRANCH  20  23
ATOM     23  C   UNL     1       3.639 -10.735   3.949  0.00  0.00    +0.055 A 
ATOM     24  C   UNL     1       4.549  -9.970   4.683  0.00  0.00    +0.016 A 
ATOM     25  C   UNL     1       5.669 -10.566   5.220  0.00  0.00    +0.021 A 
ATOM     26  C   UNL     1       5.895 -11.921   5.034  0.00  0.00    +0.042 A 
ATOM     27  C   UNL     1       4.998 -12.685   4.307  0.00  0.00    +0.040 A 
ATOM     28  C   UNL     1       3.868 -12.101   3.769  0.00  0.00    +0.054 A 
ATOM     29 CL   UNL     1       2.739 -13.062   2.865  0.00  0.00    -0.083 Cl
ATOM     30 CL   UNL     1       7.310 -12.662   5.713  0.00  0.00    -0.083 Cl
ENDBRANCH  20  23
ENDBRANCH  18  19
BRANCH  18  31
ATOM     31  C   UNL     1      -0.155  -8.330   3.931  0.00  0.00    +0.012 C 
ATOM     32  C   UNL     1       0.116  -7.548   5.218  0.00  0.00    +0.009 C 
ATOM     33  C   UNL     1      -1.431  -7.802   3.273  0.00  0.00    +0.009 C 
ENDBRANCH  18  31
ENDBRANCH   2  18
TORSDOF 5
