REMARK  Name = ZINC20345982
REMARK  4 active torsions:
REMARK  status: ('A' for Active; 'I' for Inactive)
REMARK    1  A    between atoms: C_1  and  C_2
REMARK    2  A    between atoms: C_5  and  C_9
REMARK    3  A    between atoms: C_6  and  C_8
REMARK    4  A    between atoms: C_18  and  C_20
REMARK                            x       y       z     vdW  Elec       q    Type
REMARK                         _______ _______ _______ _____ _____    ______ ____
ROOT
ATOM      1  C   UNL     1       0.060  -4.255  -0.021  0.00  0.00    +0.004 A 
ATOM      2  C   UNL     1       1.126  -4.928  -0.518  0.00  0.00    +0.056 A 
ATOM      3  S   UNL     1       0.671  -6.638  -0.304  0.00  0.00    -0.076 S 
ATOM      4  C   UNL     1      -0.924  -6.412   0.440  0.00  0.00    +0.116 A 
ATOM      5  C   UNL     1      -1.065  -5.015   0.511  0.00  0.00    +0.080 A 
ATOM      6  C   UNL     1      -2.285  -4.539   1.087  0.00  0.00    +0.261 A 
ATOM      7  O   UNL     1      -2.497  -3.342   1.184  0.00  0.00    -0.267 OA
ATOM      8  N   UNL     1      -3.197  -5.429   1.518  0.00  0.00    -0.306 N 
ATOM      9  H   UNL     1      -4.026  -5.111   1.909  0.00  0.00    +0.170 HD
ATOM     10  C   UNL     1      -2.976  -6.775   1.415  0.00  0.00    +0.142 A 
ATOM     11  N   UNL     1      -1.866  -7.237   0.881  0.00  0.00    -0.222 NA
ENDROOT
BRANCH   1  16
ATOM     12  C   UNL     1      -0.018   1.503   0.010  0.00  0.00    +0.044 C 
ATOM     13  C   UNL     1       0.002  -0.004   0.002  0.00  0.00    -0.050 A 
ATOM     14  C   UNL     1       0.006  -0.686  -1.202  0.00  0.00    +0.004 A 
ATOM     15  C   UNL     1       0.024  -2.066  -1.215  0.00  0.00    +0.009 A 
ATOM     16  C   UNL     1       0.040  -2.772  -0.013  0.00  0.00    -0.014 A 
ATOM     17  C   UNL     1       0.037  -2.079   1.196  0.00  0.00    -0.042 A 
ATOM     18  C   UNL     1       0.023  -0.699   1.198  0.00  0.00    +0.007 A 
ATOM     19  C   UNL     1       0.053  -2.836   2.500  0.00  0.00    +0.044 C 
ENDBRANCH   1  16
BRANCH  10  20
ATOM     20  C   UNL     1      -4.001  -7.721   1.900  0.00  0.00    +0.017 A 
ATOM     21  C   UNL     1      -5.190  -7.244   2.454  0.00  0.00    +0.011 A 
ATOM     22  C   UNL     1      -6.144  -8.133   2.905  0.00  0.00    +0.001 A 
ATOM     23  C   UNL     1      -5.923  -9.496   2.809  0.00  0.00    +0.000 A 
ATOM     24  C   UNL     1      -4.747  -9.976   2.260  0.00  0.00    +0.001 A 
ATOM     25  C   UNL     1      -3.788  -9.098   1.801  0.00  0.00    +0.011 A 
ENDBRANCH  10  20
TORSDOF 2
