REMARK  Name = ZINC35533073
REMARK  7 active torsions:
REMARK  status: ('A' for Active; 'I' for Inactive)
REMARK    1  A    between atoms: C_1  and  C_2
REMARK    2  A    between atoms: C_5  and  C_26
REMARK    3  A    between atoms: C_6  and  C_7
REMARK    4  A    between atoms: C_6  and  C_8
REMARK    5  A    between atoms: N_11  and  O_12
REMARK    6  A    between atoms: O_12  and  C_13
REMARK    7  A    between atoms: C_13  and  C_15
REMARK                            x       y       z     vdW  Elec       q    Type
REMARK                         _______ _______ _______ _____ _____    ______ ____
ROOT
ATOM      1  C   UNL     1      -0.019   1.526   0.010  0.00  0.00    +0.018 C 
ATOM      2  C   UNL     1       0.002  -0.004   0.002  0.00  0.00    +0.015 C 
ATOM      3  C   UNL     1       0.746  -0.667  -1.197  0.00  0.00    +0.014 C 
ATOM      4  C   UNL     1       1.065  -2.101  -0.713  0.00  0.00    +0.018 C 
ATOM      5  C   UNL     1       0.474  -2.165   0.729  0.00  0.00    +0.058 C 
ATOM      6  C   UNL     1       0.727  -0.692   1.212  0.00  0.00    -0.010 C 
ATOM      7  C   UNL     1       0.034  -0.396   2.543  0.00  0.00    +0.013 C 
ATOM      8  C   UNL     1       2.218  -0.351   1.258  0.00  0.00    +0.013 C 
ATOM      9  C   UNL     1      -1.070  -2.124   0.515  0.00  0.00    +0.071 C 
ATOM     10  C   UNL     1      -1.369  -0.692   0.058  0.00  0.00    +0.066 C 
ATOM     11  N   UNL     1      -2.506  -0.182  -0.233  0.00  0.00    -0.083 NA
ENDROOT
BRANCH   5  12
ATOM     12  C   UNL     1       1.007  -3.261   1.615  0.00  0.00    +0.218 C 
ATOM     13  O   UNL     1       1.582  -2.983   2.646  0.00  0.00    -0.275 OA
ATOM     14  N   UNL     1       0.845  -4.552   1.262  0.00  0.00    -0.329 N 
ATOM     15  H   UNL     1       0.385  -4.775   0.438  0.00  0.00    +0.145 HD
ATOM     16  H   UNL     1       1.188  -5.258   1.832  0.00  0.00    +0.145 HD
ENDBRANCH   5  12
BRANCH  11  17
ATOM     17  O   UNL     1      -3.682  -0.964  -0.125  0.00  0.00    -0.312 OA
BRANCH  17  18
ATOM     18  C   UNL     1      -4.809  -0.307  -0.461  0.00  0.00    +0.373 C 
ATOM     19  O   UNL     1      -4.753   0.854  -0.818  0.00  0.00    -0.242 OA
BRANCH  18  20
ATOM     20  C   UNL     1      -6.108  -0.995  -0.397  0.00  0.00    +0.146 A 
ATOM     21  C   UNL     1      -7.287  -0.346  -0.743  0.00  0.00    +0.033 A 
ATOM     22  C   UNL     1      -8.504  -1.066  -0.625  0.00  0.00    +0.018 A 
ATOM     23  C   UNL     1      -9.695  -0.539  -1.143  0.00  0.00    +0.011 A 
ATOM     24  C   UNL     1     -10.850  -1.262  -1.059  0.00  0.00    +0.001 A 
ATOM     25  C   UNL     1     -10.858  -2.513  -0.457  0.00  0.00    +0.004 A 
ATOM     26  C   UNL     1      -9.701  -3.042   0.078  0.00  0.00    +0.047 A 
ATOM     27  C   UNL     1      -8.516  -2.322   0.010  0.00  0.00    +0.139 A 
ATOM     28  O   UNL     1      -7.384  -2.812   0.569  0.00  0.00    -0.422 OA
ATOM     29  C   UNL     1      -6.210  -2.402   0.031  0.00  0.00    +0.352 A 
ATOM     30  O   UNL     1      -5.271  -3.166  -0.092  0.00  0.00    -0.244 OA
ENDBRANCH  18  20
ENDBRANCH  17  18
ENDBRANCH  11  17
TORSDOF 4
