REMARK  Name = ZINC22464272
REMARK  10 active torsions:
REMARK  status: ('A' for Active; 'I' for Inactive)
REMARK    1  A    between atoms: C_1  and  C_2
REMARK    2  A    between atoms: C_2  and  C_3
REMARK    3  A    between atoms: C_3  and  C_4
REMARK    4  A    between atoms: C_4  and  C_5
REMARK    5  A    between atoms: C_5  and  C_7
REMARK    6  A    between atoms: C_5  and  N_24
REMARK    7  A    between atoms: N_9  and  C_10
REMARK    8  A    between atoms: C_10  and  C_11
REMARK    9  A    between atoms: C_11  and  C_13
REMARK   10  A    between atoms: C_11  and  N_19
REMARK                            x       y       z     vdW  Elec       q    Type
REMARK                         _______ _______ _______ _____ _____    ______ ____
ROOT
ATOM      1  C   UNL     1       4.733   4.657   0.073  0.00  0.00    +0.158 C 
ENDROOT
BRANCH   1   2
ATOM      2  N   UNL     1       3.587   3.745   0.015  0.00  0.00    -0.316 N 
ATOM      3  C   UNL     1       2.306   4.241   0.119  0.00  0.00    +0.150 C 
ATOM      4  N   UNL     1       2.106   5.512   0.269  0.00  0.00    -0.113 NA
ATOM      5  S   UNL     1       0.446   5.706   0.354  0.00  0.00    +0.101 S 
ATOM      6  O   UNL     1       0.031   6.404  -0.812  0.00  0.00    -0.146 OA
ATOM      7  O   UNL     1       0.125   6.126   1.673  0.00  0.00    -0.146 OA
ATOM      8  C   UNL     1      -0.067   4.019   0.185  0.00  0.00    +0.123 A 
ATOM      9  C   UNL     1       1.150   3.333   0.061  0.00  0.00    +0.043 A 
ATOM     10  C   UNL     1       1.093   1.940  -0.092  0.00  0.00    +0.013 A 
ATOM     11  C   UNL     1      -0.122   1.292  -0.117  0.00  0.00    +0.001 A 
ATOM     12  C   UNL     1      -1.306   1.996   0.001  0.00  0.00    +0.002 A 
ATOM     13  C   UNL     1      -1.269   3.375   0.159  0.00  0.00    +0.030 A 
ATOM     14  H   UNL     1       3.750   2.665  -0.112  0.00  0.00    +0.148 HD
ENDBRANCH   1   2
BRANCH   1  15
ATOM     15  C   UNL     1       5.904   4.038  -0.645  0.00  0.00    +0.233 C 
ATOM     16  O   UNL     1       5.793   2.944  -1.155  0.00  0.00    -0.274 OA
ATOM     17  N   UNL     1       7.075   4.702  -0.721  0.00  0.00    -0.315 N 
ATOM     18  H   UNL     1       7.176   5.694  -0.258  0.00  0.00    +0.149 HD
BRANCH  17  19
ATOM     19  C   UNL     1       8.214   4.100  -1.419  0.00  0.00    +0.093 C 
BRANCH  19  20
ATOM     20  C   UNL     1       9.372   5.099  -1.460  0.00  0.00    -0.020 C 
BRANCH  20  21
ATOM     21  C   UNL     1       9.864   5.355  -0.059  0.00  0.00    -0.059 A 
ATOM     22  C   UNL     1      10.707   4.447   0.555  0.00  0.00    +0.002 A 
ATOM     23  C   UNL     1      11.162   4.685   1.838  0.00  0.00    +0.000 A 
ATOM     24  C   UNL     1      10.767   5.825   2.512  0.00  0.00    +0.000 A 
ATOM     25  C   UNL     1       9.920   6.730   1.901  0.00  0.00    +0.000 A 
ATOM     26  C   UNL     1       9.469   6.495   0.615  0.00  0.00    +0.002 A 
ENDBRANCH  20  21
BRANCH  20  27
ATOM     27  N   UNL     1      10.466   4.547  -2.270  0.00  0.00    +0.385 N 
ATOM     28  C   UNL     1      10.010   4.255  -3.653  0.00  0.00    -0.078 C 
ATOM     29  C   UNL     1      11.331   4.206  -4.460  0.00  0.00    -0.020 C 
ATOM     30  C   UNL     1      12.176   5.325  -3.809  0.00  0.00    -0.020 C 
ATOM     31  C   UNL     1      11.569   5.524  -2.407  0.00  0.00    -0.078 C 
ATOM     32  H   UNL     1      10.796   3.637  -1.747  0.00  0.00    -0.081 HD
ENDBRANCH  20  27
ENDBRANCH  19  20
ENDBRANCH  17  19
ENDBRANCH   1  15
BRANCH   1  33
ATOM     33  C   UNL     1       5.107   4.913   1.534  0.00  0.00    +0.032 C 
BRANCH  33  34
ATOM     34  C   UNL     1       3.965   5.653   2.232  0.00  0.00    +0.002 C 
BRANCH  34  36
ATOM     35  C   UNL     1       3.197   6.649   4.391  0.00  0.00    +0.004 C 
ATOM     36  C   UNL     1       4.339   5.909   3.693  0.00  0.00    -0.003 C 
ENDBRANCH  34  36
ENDBRANCH  33  34
ENDBRANCH   1  33
TORSDOF 9
