REMARK  Name = ZINC39499882
REMARK  10 active torsions:
REMARK  status: ('A' for Active; 'I' for Inactive)
REMARK    1  A    between atoms: C_1  and  C_2
REMARK    2  A    between atoms: C_2  and  O_3
REMARK    3  A    between atoms: O_3  and  C_4
REMARK    4  A    between atoms: C_4  and  C_6
REMARK    5  A    between atoms: C_7  and  C_31
REMARK    6  A    between atoms: C_11  and  C_24
REMARK    7  A    between atoms: C_12  and  O_23
REMARK    8  A    between atoms: C_15  and  C_16
REMARK    9  A    between atoms: C_29  and  O_30
REMARK   10  A    between atoms: C_31  and  N_32
REMARK                            x       y       z     vdW  Elec       q    Type
REMARK                         _______ _______ _______ _____ _____    ______ ____
ROOT
ATOM      1  C   UNL     1       1.500  -2.373   2.474  0.00  0.00    +0.072 A 
ATOM      2  C   UNL     1       0.782  -2.662   3.646  0.00  0.00    -0.011 A 
ATOM      3  C   UNL     1       1.403  -3.179   4.737  0.00  0.00    +0.014 A 
ATOM      4  C   UNL     1       2.788  -3.436   4.712  0.00  0.00    -0.016 A 
ATOM      5  C   UNL     1       3.439  -3.971   5.834  0.00  0.00    +0.020 A 
ATOM      6  C   UNL     1       4.799  -4.215   5.783  0.00  0.00    +0.028 A 
ATOM      7  C   UNL     1       5.532  -3.930   4.615  0.00  0.00    +0.125 A 
ATOM      8  C   UNL     1       4.915  -3.409   3.515  0.00  0.00    +0.055 A 
ATOM      9  C   UNL     1       3.535  -3.154   3.541  0.00  0.00    -0.006 A 
ATOM     10  C   UNL     1       2.876  -2.620   2.410  0.00  0.00    +0.004 A 
ENDROOT
BRANCH  10  11
ATOM     11  C   UNL     1       3.632  -2.322   1.174  0.00  0.00    -0.014 A 
ATOM     12  C   UNL     1       4.216  -3.359   0.443  0.00  0.00    +0.009 A 
ATOM     13  C   UNL     1       4.921  -3.075  -0.709  0.00  0.00    +0.003 A 
ATOM     14  C   UNL     1       5.051  -1.768  -1.140  0.00  0.00    +0.038 A 
ATOM     15  C   UNL     1       4.475  -0.734  -0.420  0.00  0.00    +0.124 A 
ATOM     16  C   UNL     1       3.761  -1.005   0.732  0.00  0.00    +0.047 A 
ATOM     17  F   UNL     1       4.607   0.541  -0.847  0.00  0.00    -0.205 F 
ENDBRANCH  10  11
BRANCH   6  18
ATOM     18  C   UNL     1       5.490  -4.779   6.966  0.00  0.00    +0.027 A 
ATOM     19  C   UNL     1       5.184  -6.065   7.408  0.00  0.00    +0.012 A 
ATOM     20  C   UNL     1       5.831  -6.586   8.510  0.00  0.00    +0.001 A 
ATOM     21  C   UNL     1       6.783  -5.836   9.179  0.00  0.00    +0.004 A 
ATOM     22  C   UNL     1       7.093  -4.560   8.750  0.00  0.00    +0.046 A 
ATOM     23  C   UNL     1       6.456  -4.026   7.641  0.00  0.00    +0.125 A 
BRANCH  23  24
ATOM     24  O   UNL     1       6.764  -2.773   7.215  0.00  0.00    -0.506 OA
ATOM     25  H   UNL     1       6.226  -2.077   7.617  0.00  0.00    +0.292 HD
ENDBRANCH  23  24
ENDBRANCH   6  18
BRANCH   1  26
ATOM     26  C   UNL     1       0.801  -1.813   1.304  0.00  0.00    +0.340 C 
ATOM     27  O   UNL     1       0.321  -2.555   0.470  0.00  0.00    -0.245 OA
BRANCH  26  28
ATOM     28  O   UNL     1       0.693  -0.477   1.160  0.00  0.00    -0.461 OA
BRANCH  28  30
ATOM     29  C   UNL     1      -0.019   1.526   0.010  0.00  0.00    +0.048 C 
ATOM     30  C   UNL     1       0.002  -0.004   0.002  0.00  0.00    +0.229 C 
ENDBRANCH  28  30
ENDBRANCH  26  28
ENDBRANCH   1  26
BRANCH   7  31
ATOM     31  O   UNL     1       6.868  -4.176   4.583  0.00  0.00    -0.506 OA
ATOM     32  H   UNL     1       7.097  -5.064   4.276  0.00  0.00    +0.292 HD
ENDBRANCH   7  31
BRANCH   2  33
ATOM     33  C   UNL     1      -0.701  -2.394   3.694  0.00  0.00    +0.181 C 
BRANCH  33  34
ATOM     34  N   UNL     1      -1.422  -3.538   3.132  0.00  0.00    -0.248 N 
ATOM     35  C   UNL     1      -2.400  -4.244   3.726  0.00  0.00    +0.219 A 
ATOM     36  N   UNL     1      -2.784  -5.181   2.898  0.00  0.00    -0.223 NA
ATOM     37  C   UNL     1      -2.078  -5.106   1.771  0.00  0.00    +0.245 A 
ATOM     38  N   UNL     1      -1.234  -4.112   1.864  0.00  0.00    -0.158 NA
ENDBRANCH  33  34
ENDBRANCH   2  33
TORSDOF 9
