REMARK  Name = ZINC34793513
REMARK  9 active torsions:
REMARK  status: ('A' for Active; 'I' for Inactive)
REMARK    1  A    between atoms: C_1  and  C_2
REMARK    2  A    between atoms: C_2  and  N_3
REMARK    3  A    between atoms: C_6  and  C_11
REMARK    4  A    between atoms: N_21  and  C_23
REMARK    5  A    between atoms: C_23  and  C_24
REMARK    6  A    between atoms: C_24  and  C_25
REMARK    7  A    between atoms: C_30  and  N_33
REMARK    8  A    between atoms: N_33  and  C_34
REMARK    9  A    between atoms: N_33  and  C_35
REMARK                            x       y       z     vdW  Elec       q    Type
REMARK                         _______ _______ _______ _____ _____    ______ ____
ROOT
ATOM      1  N   UNL     1       0.987  -0.501   1.045  0.00  0.00    -0.257 N 
ATOM      2  C   UNL     1       2.312  -0.829   1.078  0.00  0.00    +0.042 C 
ATOM      3  C   UNL     1       2.893  -1.277   2.210  0.00  0.00    +0.058 C 
ATOM      4  C   UNL     1       2.024  -1.405   3.445  0.00  0.00    +0.143 C 
ATOM      5  N   UNL     1       0.608  -1.028   3.305  0.00  0.00    -0.288 N 
ATOM      6  C   UNL     1       0.174  -0.591   2.106  0.00  0.00    +0.307 C 
ATOM      7  O   UNL     1      -0.992  -0.273   1.982  0.00  0.00    -0.252 OA
ATOM      8  C   UNL     1       4.259  -1.544   1.987  0.00  0.00    +0.247 C 
ATOM      9  O   UNL     1       5.026  -1.960   2.836  0.00  0.00    -0.270 OA
ATOM     10  N   UNL     1       4.605  -1.280   0.714  0.00  0.00    -0.292 N 
ATOM     11  C   UNL     1       3.397  -0.802   0.025  0.00  0.00    +0.159 C 
ATOM     12  H   UNL     1       0.001  -1.088   4.060  0.00  0.00    +0.151 HD
ENDROOT
BRANCH   4  13
ATOM     13  C   UNL     1       2.628  -0.550   4.529  0.00  0.00    -0.004 A 
ATOM     14  C   UNL     1       3.535   0.440   4.203  0.00  0.00    +0.008 A 
ATOM     15  C   UNL     1       4.090   1.225   5.196  0.00  0.00    +0.020 A 
ATOM     16  C   UNL     1       3.736   1.020   6.518  0.00  0.00    +0.042 A 
ATOM     17  C   UNL     1       2.827   0.029   6.845  0.00  0.00    +0.040 A 
ATOM     18  C   UNL     1       2.269  -0.753   5.849  0.00  0.00    +0.048 A 
ATOM     19 CL   UNL     1       1.125  -1.992   6.258  0.00  0.00    -0.083 Cl
ATOM     20 CL   UNL     1       4.432   2.005   7.766  0.00  0.00    -0.083 Cl
ENDBRANCH   4  13
BRANCH   1  22
ATOM     21  C   UNL     1       0.559   1.501  -0.292  0.00  0.00    +0.025 C 
ATOM     22  C   UNL     1       0.424  -0.021  -0.220  0.00  0.00    +0.111 C 
ENDBRANCH   1  22
BRANCH  10  23
ATOM     23  C   UNL     1       5.936  -1.438   0.124  0.00  0.00    +0.117 C 
BRANCH  23  24
ATOM     24  C   UNL     1       6.075  -2.849  -0.452  0.00  0.00    +0.115 C 
BRANCH  24  25
ATOM     25  C   UNL     1       7.444  -3.012  -1.058  0.00  0.00    +0.217 C 
ATOM     26  O   UNL     1       8.232  -2.090  -1.033  0.00  0.00    -0.276 OA
ATOM     27  N   UNL     1       7.794  -4.182  -1.629  0.00  0.00    -0.302 N 
ATOM     28  C   UNL     1       6.848  -5.305  -1.673  0.00  0.00    +0.106 C 
ATOM     29  C   UNL     1       6.713  -5.780  -3.123  0.00  0.00    +0.004 C 
ATOM     30  C   UNL     1       8.101  -6.105  -3.681  0.00  0.00    -0.066 C 
ATOM     31  C   UNL     1       8.967  -4.843  -3.664  0.00  0.00    +0.004 C 
ATOM     32  C   UNL     1       9.125  -4.356  -2.225  0.00  0.00    +0.106 C 
BRANCH  30  33
ATOM     33  N   UNL     1       7.973  -6.592  -5.060  0.00  0.00    +0.378 N 
ATOM     34  C   UNL     1       9.305  -6.904  -5.595  0.00  0.00    -0.096 C 
ATOM     35  C   UNL     1       7.143  -7.804  -5.077  0.00  0.00    -0.096 C 
ATOM     36  H   UNL     1       7.540  -5.880  -5.630  0.00  0.00    -0.082 HD
ENDBRANCH  30  33
ENDBRANCH  24  25
ENDBRANCH  23  24
ENDBRANCH  10  23
TORSDOF 6
