REMARK  Name = ZINC36635536
REMARK  6 active torsions:
REMARK  status: ('A' for Active; 'I' for Inactive)
REMARK    1  A    between atoms: C_1  and  C_2
REMARK    2  A    between atoms: C_4  and  C_25
REMARK    3  A    between atoms: C_5  and  N_9
REMARK    4  A    between atoms: C_6  and  C_8
REMARK    5  A    between atoms: C_13  and  N_17
REMARK    6  A    between atoms: N_17  and  C_18
REMARK                            x       y       z     vdW  Elec       q    Type
REMARK                         _______ _______ _______ _____ _____    ______ ____
ROOT
ATOM      1  N   UNL     1       0.059  -4.172  -0.021  0.00  0.00    -0.208 N 
ATOM      2  C   UNL     1      -1.058  -4.912  -0.025  0.00  0.00    +0.228 C 
ATOM      3  O   UNL     1      -2.189  -4.476  -0.022  0.00  0.00    -0.275 OA
ATOM      4  C   UNL     1      -0.683  -6.378  -0.033  0.00  0.00    +0.128 C 
ATOM      5  C   UNL     1       0.859  -6.357  -0.033  0.00  0.00    +0.166 C 
ATOM      6  C   UNL     1       1.194  -4.882  -0.031  0.00  0.00    +0.247 C 
ATOM      7  O   UNL     1       2.313  -4.416  -0.035  0.00  0.00    -0.273 OA
ENDROOT
BRANCH   1  12
ATOM      8  C   UNL     1      -0.018   1.503   0.010  0.00  0.00    +0.044 C 
ATOM      9  C   UNL     1       0.002  -0.004   0.002  0.00  0.00    -0.050 A 
ATOM     10  C   UNL     1       0.006  -0.688  -1.200  0.00  0.00    +0.008 A 
ATOM     11  C   UNL     1       0.025  -2.068  -1.211  0.00  0.00    -0.028 A 
ATOM     12  C   UNL     1       0.040  -2.771  -0.013  0.00  0.00    +0.050 A 
ATOM     13  C   UNL     1       0.037  -2.082   1.192  0.00  0.00    -0.028 A 
ATOM     14  C   UNL     1       0.023  -0.700   1.196  0.00  0.00    +0.008 A 
ATOM     15  C   UNL     1       0.053  -2.840   2.494  0.00  0.00    +0.046 C 
ATOM     16  C   UNL     1       0.028  -2.813  -2.521  0.00  0.00    +0.046 C 
ENDBRANCH   1  12
BRANCH   5  17
ATOM     17  N   UNL     1       1.383  -7.015   1.166  0.00  0.00    -0.332 N 
ATOM     18  H   UNL     1       0.842  -7.061   1.970  0.00  0.00    +0.147 HD
BRANCH  17  19
ATOM     19  C   UNL     1       2.663  -7.575   1.153  0.00  0.00    +0.042 A 
ATOM     20  C   UNL     1       3.442  -7.505   0.005  0.00  0.00    +0.024 A 
ATOM     21  C   UNL     1       4.707  -8.059  -0.005  0.00  0.00    +0.002 A 
ATOM     22  C   UNL     1       5.199  -8.684   1.126  0.00  0.00    +0.001 A 
ATOM     23  C   UNL     1       4.427  -8.757   2.271  0.00  0.00    +0.017 A 
ATOM     24  C   UNL     1       3.162  -8.200   2.289  0.00  0.00    +0.039 A 
ATOM     25 BR   UNL     1       2.110  -8.293   3.858  0.00  0.00    -0.048 Br
ENDBRANCH  17  19
ENDBRANCH   5  17
TORSDOF 3
