REMARK  Name = ZINC02345755
REMARK  7 active torsions:
REMARK  status: ('A' for Active; 'I' for Inactive)
REMARK    1  A    between atoms: C_4  and  C_7
REMARK    2  A    between atoms: C_8  and  C_18
REMARK    3  A    between atoms: N_20  and  N_21
REMARK    4  A    between atoms: C_22  and  C_23
REMARK    5  A    between atoms: C_26  and  O_29
REMARK    6  A    between atoms: O_29  and  C_30
REMARK    7  A    between atoms: C_30  and  C_31
REMARK                            x       y       z     vdW  Elec       q    Type
REMARK                         _______ _______ _______ _____ _____    ______ ____
ROOT
ATOM      1  C   UNL     1       5.970   1.755  -0.045  0.00  0.00    +0.286 C 
ATOM      2  O   UNL     1       5.950   2.972  -0.038  0.00  0.00    -0.267 OA
ATOM      3  N   UNL     1       4.814   1.062  -0.037  0.00  0.00    -0.202 N 
ATOM      4  H   UNL     1       4.829   0.092  -0.042  0.00  0.00    +0.178 HD
ENDROOT
BRANCH   1   6
ATOM      5  C   UNL     1       8.516   1.627  -0.075  0.00  0.00    +0.109 A 
ATOM      6  C   UNL     1       7.256   1.040  -0.060  0.00  0.00    +0.177 A 
ATOM      7  N   UNL     1       7.417  -0.293  -0.069  0.00  0.00    -0.124 NA
ATOM      8  N   UNL     1       8.669  -0.587  -0.083  0.00  0.00    -0.058 NA
ATOM      9  N   UNL     1       9.415   0.599  -0.083  0.00  0.00    -0.187 N 
ATOM     10  C   UNL     1      10.809   0.708  -0.096  0.00  0.00    +0.241 A 
ATOM     11  C   UNL     1      11.758  -0.410  -0.111  0.00  0.00    +0.206 A 
ATOM     12  N   UNL     1      12.967   0.079  -0.120  0.00  0.00    -0.032 NA
ATOM     13  O   UNL     1      12.865   1.492  -0.113  0.00  0.00    -0.239 OA
ATOM     14  N   UNL     1      11.487   1.821  -0.103  0.00  0.00    -0.027 NA
ATOM     15  N   UNL     1      11.425  -1.760  -0.114  0.00  0.00    -0.337 N 
ATOM     16  H   UNL     1      10.493  -2.029  -0.105  0.00  0.00    +0.144 HD
ATOM     17  H   UNL     1      12.124  -2.432  -0.124  0.00  0.00    +0.144 HD
BRANCH   5  21
ATOM     18  C   UNL     1       9.394   5.782  -0.082  0.00  0.00    +0.000 A 
ATOM     19  C   UNL     1       8.411   5.285  -0.919  0.00  0.00    +0.001 A 
ATOM     20  C   UNL     1       8.121   3.936  -0.922  0.00  0.00    +0.010 A 
ATOM     21  C   UNL     1       8.822   3.073  -0.077  0.00  0.00    +0.003 A 
ATOM     22  C   UNL     1       9.808   3.583   0.769  0.00  0.00    +0.010 A 
ATOM     23  C   UNL     1      10.092   4.932   0.757  0.00  0.00    +0.001 A 
ENDBRANCH   5  21
ENDBRANCH   1   6
BRANCH   3  24
ATOM     24  N   UNL     1       3.589   1.743  -0.022  0.00  0.00    -0.187 NA
ATOM     25  C   UNL     1       2.476   1.076  -0.015  0.00  0.00    +0.138 C 
BRANCH  25  26
ATOM     26  C   UNL     1       1.187   1.792   0.000  0.00  0.00    -0.005 A 
ATOM     27  C   UNL     1      -0.013   1.076   0.008  0.00  0.00    +0.013 A 
ATOM     28  C   UNL     1      -1.215   1.750   0.017  0.00  0.00    +0.046 A 
ATOM     29  C   UNL     1      -1.235   3.138   0.031  0.00  0.00    +0.121 A 
ATOM     30  C   UNL     1      -0.044   3.854   0.023  0.00  0.00    +0.046 A 
ATOM     31  C   UNL     1       1.162   3.189   0.008  0.00  0.00    +0.013 A 
BRANCH  29  32
ATOM     32  O   UNL     1      -2.422   3.798   0.046  0.00  0.00    -0.487 OA
BRANCH  32  33
ATOM     33  C   UNL     1      -3.607   3.001   0.053  0.00  0.00    +0.267 C 
BRANCH  33  34
ATOM     34  C   UNL     1      -4.817   3.899   0.069  0.00  0.00    +0.025 A 
ATOM     35  C   UNL     1      -4.659   5.272   0.081  0.00  0.00    +0.010 A 
ATOM     36  C   UNL     1      -5.768   6.096   0.090  0.00  0.00    +0.001 A 
ATOM     37  C   UNL     1      -7.038   5.549   0.099  0.00  0.00    +0.003 A 
ATOM     38  C   UNL     1      -7.199   4.176   0.093  0.00  0.00    +0.039 A 
ATOM     39  C   UNL     1      -6.088   3.350   0.078  0.00  0.00    +0.130 A 
ATOM     40  F   UNL     1      -6.244   2.008   0.073  0.00  0.00    -0.205 F 
ENDBRANCH  33  34
ENDBRANCH  32  33
ENDBRANCH  29  32
ENDBRANCH  25  26
ENDBRANCH   3  24
TORSDOF 7
