REMARK  Name = ZINC12242811
REMARK  7 active torsions:
REMARK  status: ('A' for Active; 'I' for Inactive)
REMARK    1  A    between atoms: C_1  and  N_68
REMARK    2  A    between atoms: C_5  and  C_8
REMARK    3  A    between atoms: C_13  and  C_16
REMARK    4  A    between atoms: C_16  and  C_30
REMARK    5  A    between atoms: N_19  and  C_23
REMARK    6  A    between atoms: C_23  and  C_24
REMARK    7  A    between atoms: C_24  and  C_25
REMARK                            x       y       z     vdW  Elec       q    Type
REMARK                         _______ _______ _______ _____ _____    ______ ____
ROOT
ATOM      1  C   UNL     1       1.689   9.462  -0.588  0.00  0.00    +0.158 C 
ATOM      2  C   UNL     1       3.118   9.067  -0.904  0.00  0.00    +0.253 C 
ATOM      3  O   UNL     1       3.853   8.377  -0.232  0.00  0.00    -0.272 OA
ATOM      4  N   UNL     1       3.401   9.643  -2.089  0.00  0.00    -0.224 N 
ATOM      5  C   UNL     1       2.362  10.344  -2.558  0.00  0.00    +0.310 C 
ATOM      6  O   UNL     1       2.379  10.955  -3.608  0.00  0.00    -0.252 OA
ATOM      7  N   UNL     1       1.296  10.292  -1.739  0.00  0.00    -0.280 N 
ATOM      8  H   UNL     1       0.438  10.722  -1.878  0.00  0.00    +0.152 HD
ENDROOT
BRANCH   1  14
ATOM      9  C   UNL     1       0.793  13.900   2.449  0.00  0.00    +0.217 C 
ATOM     10  O   UNL     1      -0.342  14.167   2.781  0.00  0.00    -0.275 OA
ATOM     11  N   UNL     1       1.142  12.620   2.212  0.00  0.00    -0.301 N 
ATOM     12  C   UNL     1       2.536  12.267   1.911  0.00  0.00    +0.108 C 
ATOM     13  C   UNL     1       2.572  11.475   0.600  0.00  0.00    +0.025 C 
ATOM     14  C   UNL     1       1.629  10.275   0.707  0.00  0.00    +0.031 C 
ATOM     15  C   UNL     1       0.198  10.767   0.935  0.00  0.00    +0.025 C 
ATOM     16  C   UNL     1       0.135  11.550   2.250  0.00  0.00    +0.108 C 
BRANCH   9  21
ATOM     17  C   UNL     1       4.510  16.243   4.616  0.00  0.00    -0.096 C 
ATOM     18  C   UNL     1       2.950  17.489   3.248  0.00  0.00    -0.079 C 
ATOM     19  C   UNL     1       2.140  17.448   1.950  0.00  0.00    -0.018 C 
ATOM     20  C   UNL     1       1.100  16.327   2.037  0.00  0.00    +0.009 C 
ATOM     21  C   UNL     1       1.814  14.998   2.301  0.00  0.00    +0.059 C 
ATOM     22  C   UNL     1       2.633  15.111   3.589  0.00  0.00    -0.067 C 
ATOM     23  N   UNL     1       3.631  16.190   3.430  0.00  0.00    +0.378 N 
ATOM     24  H   UNL     1       4.204  15.995   2.600  0.00  0.00    -0.082 HD
ENDBRANCH   9  21
ENDBRANCH   1  14
BRANCH   1  25
ATOM     25  C   UNL     1       0.812   8.241  -0.487  0.00  0.00    +0.074 A 
ATOM     26  C   UNL     1       0.571   7.478  -1.613  0.00  0.00    +0.026 A 
ATOM     27  C   UNL     1      -0.233   6.353  -1.508  0.00  0.00    +0.003 A 
ATOM     28  C   UNL     1      -0.776   6.043  -0.271  0.00  0.00    +0.020 A 
ATOM     29  C   UNL     1      -0.495   6.857   0.810  0.00  0.00    +0.111 A 
ATOM     30  N   UNL     1       0.279   7.916   0.675  0.00  0.00    -0.257 NA
ENDBRANCH   1  25
BRANCH   4  31
ATOM     31  C   UNL     1       4.690   9.522  -2.776  0.00  0.00    +0.123 C 
BRANCH  31  32
ATOM     32  C   UNL     1       4.662   8.303  -3.701  0.00  0.00    +0.062 C 
BRANCH  32  33
ATOM     33  C   UNL     1       5.988   8.179  -4.407  0.00  0.00    -0.009 A 
ATOM     34  C   UNL     1       7.100   7.506  -4.024  0.00  0.00    +0.011 A 
ATOM     35  C   UNL     1       8.212   7.526  -4.844  0.00  0.00    +0.008 A 
ATOM     36  C   UNL     1       8.162   8.228  -6.002  0.00  0.00    +0.045 A 
ATOM     37  S   UNL     1       6.500   8.880  -5.967  0.00  0.00    -0.102 S 
ENDBRANCH  32  33
ENDBRANCH  31  32
ENDBRANCH   4  31
TORSDOF 6
