REMARK  Name = ZINC12580745
REMARK  8 active torsions:
REMARK  status: ('A' for Active; 'I' for Inactive)
REMARK    1  A    between atoms: C_9  and  O_12
REMARK    2  A    between atoms: O_12  and  C_13
REMARK    3  A    between atoms: C_13  and  C_14
REMARK    4  A    between atoms: N_16  and  N_17
REMARK    5  A    between atoms: C_18  and  C_20
REMARK    6  A    between atoms: C_20  and  C_21
REMARK    7  A    between atoms: C_21  and  C_22
REMARK    8  A    between atoms: N_24  and  C_25
REMARK                            x       y       z     vdW  Elec       q    Type
REMARK                         _______ _______ _______ _____ _____    ______ ____
ROOT
ATOM      1  C   UNL     1       2.116   9.460   0.087  0.00  0.00    +0.267 C 
ATOM      2  O   UNL     1       0.991   9.913   0.096  0.00  0.00    -0.271 OA
ATOM      3  N   UNL     1       3.177  10.291   0.074  0.00  0.00    -0.232 N 
ATOM      4  H   UNL     1       4.077   9.928   0.067  0.00  0.00    +0.173 HD
ENDROOT
BRANCH   3   5
ATOM      5  N   UNL     1       2.981  11.678   0.072  0.00  0.00    -0.234 N 
ATOM      6  C   UNL     1       4.042  12.509   0.059  0.00  0.00    +0.230 C 
ATOM      7  O   UNL     1       5.167  12.056   0.050  0.00  0.00    -0.274 OA
ATOM      8  H   UNL     1       2.081  12.040   0.079  0.00  0.00    +0.173 HD
BRANCH   6   9
ATOM      9  C   UNL     1       3.830  14.001   0.056  0.00  0.00    +0.106 C 
BRANCH   9  10
ATOM     10  C   UNL     1       5.187  14.708   0.041  0.00  0.00    +0.105 C 
BRANCH  10  11
ATOM     11  C   UNL     1       4.975  16.200   0.038  0.00  0.00    +0.218 C 
ATOM     12  O   UNL     1       3.850  16.653   0.048  0.00  0.00    -0.275 OA
ATOM     13  N   UNL     1       6.036  17.031   0.026  0.00  0.00    -0.284 N 
ATOM     14  H   UNL     1       6.935  16.671   0.084  0.00  0.00    +0.155 HD
BRANCH  13  15
ATOM     15  C   UNL     1       5.841  18.414  -0.072  0.00  0.00    +0.052 A 
ATOM     16  C   UNL     1       4.740  19.006   0.533  0.00  0.00    +0.025 A 
ATOM     17  C   UNL     1       4.553  20.371   0.440  0.00  0.00    +0.002 A 
ATOM     18  C   UNL     1       5.455  21.148  -0.264  0.00  0.00    +0.002 A 
ATOM     19  C   UNL     1       6.550  20.562  -0.872  0.00  0.00    +0.022 A 
ATOM     20  C   UNL     1       6.746  19.197  -0.778  0.00  0.00    +0.062 A 
ATOM     21 CL   UNL     1       8.120  18.462  -1.542  0.00  0.00    -0.082 Cl
ENDBRANCH  13  15
ENDBRANCH  10  11
ENDBRANCH   9  10
ENDBRANCH   6   9
ENDBRANCH   3   5
BRANCH   1  22
ATOM     22  C   UNL     1       2.328   7.968   0.090  0.00  0.00    +0.326 C 
BRANCH  22  23
ATOM     23  O   UNL     1       1.061   7.307   0.104  0.00  0.00    -0.482 OA
BRANCH  23  32
ATOM     24  C   UNL     1      -0.018   1.078   0.134  0.00  0.00    +0.001 A 
ATOM     25  C   UNL     1      -1.240   1.748   0.138  0.00  0.00    +0.001 A 
ATOM     26  C   UNL     1      -1.293   3.108   0.140  0.00  0.00    +0.010 A 
ATOM     27  C   UNL     1      -0.099   3.851   0.126  0.00  0.00    -0.000 A 
ATOM     28  C   UNL     1       1.144   3.169   0.117  0.00  0.00    -0.017 A 
ATOM     29  C   UNL     1       1.158   1.764   0.121  0.00  0.00    +0.008 A 
ATOM     30  C   UNL     1       2.339   3.909   0.103  0.00  0.00    +0.012 A 
ATOM     31  C   UNL     1       2.295   5.268   0.099  0.00  0.00    +0.047 A 
ATOM     32  C   UNL     1       1.074   5.948   0.108  0.00  0.00    +0.136 A 
ATOM     33  C   UNL     1      -0.116   5.256   0.122  0.00  0.00    +0.067 A 
ATOM     34 BR   UNL     1      -1.761   6.189   0.134  0.00  0.00    -0.046 Br
ENDBRANCH  23  32
ENDBRANCH  22  23
ENDBRANCH   1  22
TORSDOF 8
