REMARK  Name = ZINC15015767
REMARK  8 active torsions:
REMARK  status: ('A' for Active; 'I' for Inactive)
REMARK    1  A    between atoms: C_1  and  C_2
REMARK    2  A    between atoms: C_2  and  C_3
REMARK    3  A    between atoms: C_3  and  C_4
REMARK    4  A    between atoms: C_4  and  S_5
REMARK    5  A    between atoms: S_5  and  C_6
REMARK    6  A    between atoms: C_19  and  C_22
REMARK    7  A    between atoms: C_23  and  C_24
REMARK    8  A    between atoms: C_27  and  N_29
REMARK                            x       y       z     vdW  Elec       q    Type
REMARK                         _______ _______ _______ _____ _____    ______ ____
ROOT
ATOM      1  C   UNL     1      -5.151   1.617   4.061  0.00  0.00    +0.212 A 
ATOM      2  N   UNL     1      -6.402   1.393   4.453  0.00  0.00    -0.184 NA
ATOM      3  C   UNL     1      -6.827   1.916   5.591  0.00  0.00    +0.248 A 
ATOM      4  C   UNL     1      -5.933   2.702   6.352  0.00  0.00    +0.156 A 
ATOM      5  N   UNL     1      -4.702   2.893   5.902  0.00  0.00    -0.141 NA
ATOM      6  N   UNL     1      -4.329   2.363   4.788  0.00  0.00    -0.122 NA
ATOM      7  C   UNL     1      -6.385   3.291   7.630  0.00  0.00    +0.029 A 
ATOM      8  C   UNL     1      -6.158   4.627   7.937  0.00  0.00    +0.027 A 
ATOM      9  C   UNL     1      -6.585   5.135   9.149  0.00  0.00    +0.019 A 
ATOM     10  C   UNL     1      -7.237   4.320  10.060  0.00  0.00    +0.017 A 
ATOM     11  C   UNL     1      -7.473   2.990   9.765  0.00  0.00    +0.025 A 
ATOM     12  C   UNL     1      -7.058   2.469   8.553  0.00  0.00    +0.040 A 
ATOM     13  N   UNL     1      -7.313   1.138   8.208  0.00  0.00    -0.306 N 
ATOM     14  C   UNL     1      -8.274   0.858   7.146  0.00  0.00    +0.287 C 
ATOM     15  O   UNL     1      -8.093   1.721   6.029  0.00  0.00    -0.449 OA
ATOM     16 BR   UNL     1      -6.279   6.954   9.566  0.00  0.00    -0.050 Br
ATOM     17  H   UNL     1      -6.858   0.413   8.665  0.00  0.00    +0.150 HD
ENDROOT
BRANCH  14  18
ATOM     18  C   UNL     1      -9.669   1.041   7.686  0.00  0.00    +0.041 C 
ATOM     19  C   UNL     1     -10.523   0.021   7.681  0.00  0.00    +0.047 C 
BRANCH  19  20
ATOM     20  C   UNL     1     -11.884   0.200   8.209  0.00  0.00    +0.131 A 
ATOM     21  C   UNL     1     -12.855  -0.755   8.258  0.00  0.00    +0.051 A 
ATOM     22  C   UNL     1     -13.988  -0.152   8.837  0.00  0.00    +0.076 A 
ATOM     23  C   UNL     1     -13.662   1.128   9.103  0.00  0.00    +0.280 A 
ATOM     24  O   UNL     1     -12.391   1.338   8.723  0.00  0.00    -0.435 OA
BRANCH  23  25
ATOM     25  N   UNL     1     -14.557   2.137   9.713  0.00  0.00    +0.093 N 
ATOM     26  O   UNL     1     -15.696   1.835  10.020  0.00  0.00    -0.123 OA
ATOM     27  O   UNL     1     -14.154   3.270   9.909  0.00  0.00    -0.123 OA
ENDBRANCH  23  25
ENDBRANCH  19  20
ENDBRANCH  14  18
BRANCH   1  28
ATOM     28  S   UNL     1      -4.578   0.917   2.549  0.00  0.00    -0.084 S 
BRANCH  28  29
ATOM     29  C   UNL     1      -2.880   1.543   2.537  0.00  0.00    +0.077 C 
BRANCH  29  30
ATOM     30  C   UNL     1      -2.164   1.050   1.278  0.00  0.00    +0.011 C 
BRANCH  30  32
ATOM     31  C   UNL     1      -0.013   1.086   0.008  0.00  0.00    +0.004 C 
ATOM     32  C   UNL     1      -0.729   1.579   1.267  0.00  0.00    -0.003 C 
ENDBRANCH  30  32
ENDBRANCH  29  30
ENDBRANCH  28  29
ENDBRANCH   1  28
TORSDOF 7
