REMARK  Name = ZINC01326856
REMARK  2 active torsions:
REMARK  status: ('A' for Active; 'I' for Inactive)
REMARK    1  A    between atoms: C_10  and  N_11
REMARK    2  A    between atoms: N_11  and  C_12
REMARK                            x       y       z     vdW  Elec       q    Type
REMARK                         _______ _______ _______ _____ _____    ______ ____
ROOT
ATOM      1  N   UNL     1      -2.511   3.781   0.046  0.00  0.00    -0.299 N 
ATOM      2  H   UNL     1      -2.217   4.146   0.895  0.00  0.00    +0.154 HD
ENDROOT
BRANCH   1   3
ATOM      3  C   UNL     1      -3.709   3.104  -0.034  0.00  0.00    +0.133 A 
ATOM      4  C   UNL     1      -4.903   3.794  -0.115  0.00  0.00    +0.014 A 
ATOM      5  C   UNL     1      -6.096   3.080  -0.195  0.00  0.00    +0.052 A 
ATOM      6  N   UNL     1      -6.078   1.760  -0.193  0.00  0.00    -0.215 NA
ATOM      7  C   UNL     1      -4.931   1.079  -0.116  0.00  0.00    +0.255 A 
ATOM      8  N   UNL     1      -3.737   1.739  -0.042  0.00  0.00    -0.182 N 
ATOM      9  N   UNL     1      -2.743   0.755   0.032  0.00  0.00    -0.151 NA
ATOM     10  C   UNL     1      -3.349  -0.407  -0.010  0.00  0.00    +0.247 A 
ATOM     11  N   UNL     1      -4.660  -0.222  -0.098  0.00  0.00    -0.197 NA
ATOM     12  C   UNL     1      -7.258   4.047  -0.273  0.00  0.00    +0.056 C 
ATOM     13  C   UNL     1      -6.634   5.400  -0.675  0.00  0.00    +0.011 C 
ATOM     14  C   UNL     1      -5.192   5.277  -0.137  0.00  0.00    +0.041 C 
ENDBRANCH   1   3
BRANCH   1  24
ATOM     15  C   UNL     1       1.828   6.152  -0.963  0.00  0.00    +0.001 A 
ATOM     16  C   UNL     1       1.055   6.003   0.187  0.00  0.00    +0.001 A 
ATOM     17  C   UNL     1      -0.103   5.288   0.165  0.00  0.00    +0.010 A 
ATOM     18  C   UNL     1      -0.528   4.690  -1.032  0.00  0.00    +0.003 A 
ATOM     19  C   UNL     1       0.257   4.840  -2.201  0.00  0.00    -0.016 A 
ATOM     20  C   UNL     1       1.447   5.586  -2.141  0.00  0.00    +0.008 A 
ATOM     21  C   UNL     1      -0.168   4.243  -3.400  0.00  0.00    +0.008 A 
ATOM     22  C   UNL     1      -1.325   3.526  -3.431  0.00  0.00    +0.002 A 
ATOM     23  C   UNL     1      -2.107   3.376  -2.290  0.00  0.00    +0.024 A 
ATOM     24  C   UNL     1      -1.723   3.942  -1.092  0.00  0.00    +0.040 A 
ENDBRANCH   1  24
TORSDOF 2
