REMARK  Name = ZINC00840343
REMARK  4 active torsions:
REMARK  status: ('A' for Active; 'I' for Inactive)
REMARK    1  A    between atoms: C_3  and  C_11
REMARK    2  A    between atoms: C_6  and  N_7
REMARK    3  A    between atoms: N_13  and  N_14
REMARK    4  A    between atoms: C_15  and  C_17
REMARK                            x       y       z     vdW  Elec       q    Type
REMARK                         _______ _______ _______ _____ _____    ______ ____
ROOT
ATOM      1  C   UNL     1      -5.012   4.013   0.048  0.00  0.00    +0.262 C 
ATOM      2  O   UNL     1      -6.057   3.392   0.050  0.00  0.00    -0.269 OA
ATOM      3  N   UNL     1      -5.029   5.361   0.056  0.00  0.00    -0.230 N 
ATOM      4  H   UNL     1      -4.195   5.856   0.054  0.00  0.00    +0.173 HD
ENDROOT
BRANCH   1   7
ATOM      5  C   UNL     1      -1.321   3.320   0.032  0.00  0.00    +0.033 A 
ATOM      6  C   UNL     1      -2.521   4.001   0.036  0.00  0.00    +0.017 A 
ATOM      7  C   UNL     1      -3.723   3.291   0.038  0.00  0.00    +0.057 A 
ATOM      8  C   UNL     1      -3.701   1.893   0.030  0.00  0.00    +0.055 A 
ATOM      9  C   UNL     1      -2.493   1.225   0.021  0.00  0.00    +0.053 A 
ATOM     10  C   UNL     1      -1.306   1.936   0.019  0.00  0.00    +0.128 A 
ATOM     11 CL   UNL     1      -5.190   1.000   0.033  0.00  0.00    -0.083 Cl
BRANCH  10  12
ATOM     12  N   UNL     1      -0.014   1.214   0.009  0.00  0.00    +0.056 N 
ATOM     13  O   UNL     1       0.002  -0.004   0.002  0.00  0.00    -0.126 OA
ATOM     14  O   UNL     1       1.032   1.837   0.002  0.00  0.00    -0.126 OA
ENDBRANCH  10  12
ENDBRANCH   1   7
BRANCH   3  15
ATOM     15  N   UNL     1      -6.251   6.046   0.065  0.00  0.00    -0.230 N 
ATOM     16  C   UNL     1      -6.268   7.393   0.072  0.00  0.00    +0.262 C 
ATOM     17  O   UNL     1      -5.223   8.015   0.071  0.00  0.00    -0.269 OA
ATOM     18  H   UNL     1      -7.085   5.550   0.066  0.00  0.00    +0.173 HD
BRANCH  16  19
ATOM     19  C   UNL     1      -7.556   8.116   0.083  0.00  0.00    +0.057 A 
ATOM     20  C   UNL     1      -8.759   7.405   0.084  0.00  0.00    +0.016 A 
ATOM     21  C   UNL     1      -9.958   8.085   0.094  0.00  0.00    +0.021 A 
ATOM     22  C   UNL     1      -9.973   9.470   0.101  0.00  0.00    +0.042 A 
ATOM     23  C   UNL     1      -8.786  10.181   0.099  0.00  0.00    +0.040 A 
ATOM     24  C   UNL     1      -7.578   9.513   0.096  0.00  0.00    +0.054 A 
ATOM     25 CL   UNL     1      -6.089  10.406   0.102  0.00  0.00    -0.083 Cl
ATOM     26 CL   UNL     1     -11.488  10.318   0.113  0.00  0.00    -0.083 Cl
ENDBRANCH  16  19
ENDBRANCH   3  15
TORSDOF 4
