REMARK  Name = ZINC36312982
REMARK  12 active torsions:
REMARK  status: ('A' for Active; 'I' for Inactive)
REMARK    1  A    between atoms: C_4  and  C_7
REMARK    2  A    between atoms: C_8  and  C_18
REMARK    3  A    between atoms: C_9  and  N_12
REMARK    4  A    between atoms: C_18  and  N_19
REMARK    5  A    between atoms: N_19  and  C_20
REMARK    6  A    between atoms: N_19  and  C_26
REMARK    7  A    between atoms: C_20  and  C_21
REMARK    8  A    between atoms: C_26  and  C_27
REMARK    9  A    between atoms: C_27  and  C_29
REMARK   10  A    between atoms: C_27  and  O_37
REMARK   11  A    between atoms: C_29  and  O_30
REMARK   12  A    between atoms: O_30  and  C_31
REMARK                            x       y       z     vdW  Elec       q    Type
REMARK                         _______ _______ _______ _____ _____    ______ ____
ROOT
ATOM      1  N   UNL     1       2.642  -4.155   1.049  0.00  0.00    +0.389 N 
ATOM      2  H   UNL     1       2.218  -3.927   0.162  0.00  0.00    -0.081 HD
ENDROOT
BRANCH   1   3
ATOM      3  C   UNL     1       2.936  -2.918   1.784  0.00  0.00    -0.035 C 
BRANCH   3   5
ATOM      4  C   UNL     1       5.069  -1.595   1.106  0.00  0.00    +0.117 A 
ATOM      5  C   UNL     1       3.730  -1.988   0.904  0.00  0.00    +0.025 A 
ATOM      6  C   UNL     1       3.281  -1.380  -0.224  0.00  0.00    +0.222 A 
ATOM      7  O   UNL     1       4.283  -0.634  -0.721  0.00  0.00    -0.339 OA
ATOM      8  N   UNL     1       5.403  -0.778   0.134  0.00  0.00    -0.076 NA
BRANCH   4  12
ATOM      9  C   UNL     1       7.579  -2.824   4.312  0.00  0.00    +0.000 A 
ATOM     10  C   UNL     1       8.069  -2.814   3.018  0.00  0.00    +0.001 A 
ATOM     11  C   UNL     1       7.258  -2.416   1.974  0.00  0.00    +0.010 A 
ATOM     12  C   UNL     1       5.945  -2.024   2.225  0.00  0.00    +0.004 A 
ATOM     13  C   UNL     1       5.457  -2.036   3.530  0.00  0.00    +0.010 A 
ATOM     14  C   UNL     1       6.276  -2.436   4.567  0.00  0.00    +0.001 A 
ENDBRANCH   4  12
BRANCH   6  15
ATOM     15  N   UNL     1       2.016  -1.507  -0.767  0.00  0.00    -0.299 N 
ATOM     16  C   UNL     1       0.945  -0.573  -0.395  0.00  0.00    +0.108 C 
ATOM     17  C   UNL     1       0.349   0.028  -1.672  0.00  0.00    +0.019 C 
ATOM     18  C   UNL     1      -0.098  -1.101  -2.603  0.00  0.00    +0.003 C 
ATOM     19  C   UNL     1       1.113  -1.954  -2.990  0.00  0.00    +0.019 C 
ATOM     20  C   UNL     1       1.719  -2.574  -1.732  0.00  0.00    +0.108 C 
ENDBRANCH   6  15
ENDBRANCH   3   5
ENDBRANCH   1   3
BRANCH   1  21
ATOM     21  C   UNL     1       3.889  -4.897   0.819  0.00  0.00    -0.003 C 
BRANCH  21  22
ATOM     22  C   UNL     1       4.429  -5.391   2.136  0.00  0.00    +0.089 A 
ATOM     23  C   UNL     1       4.220  -6.610   2.665  0.00  0.00    +0.042 A 
ATOM     24  C   UNL     1       4.907  -6.644   3.900  0.00  0.00    +0.041 A 
ATOM     25  C   UNL     1       5.494  -5.444   4.053  0.00  0.00    +0.195 A 
ATOM     26  O   UNL     1       5.206  -4.691   2.978  0.00  0.00    -0.470 OA
ENDBRANCH  21  22
ENDBRANCH   1  21
BRANCH   1  27
ATOM     27  C   UNL     1       1.717  -4.984   1.835  0.00  0.00    -0.043 C 
BRANCH  27  28
ATOM     28  C   UNL     1       1.301  -6.205   1.012  0.00  0.00    +0.135 C 
BRANCH  28  29
ATOM     29  O   UNL     1       0.638  -5.773  -0.179  0.00  0.00    -0.390 OA
ATOM     30  H   UNL     1      -0.160  -5.252  -0.018  0.00  0.00    +0.210 HD
ENDBRANCH  28  29
BRANCH  28  31
ATOM     31  C   UNL     1       0.352  -7.076   1.837  0.00  0.00    +0.258 C 
BRANCH  31  32
ATOM     32  O   UNL     1       0.055  -8.273   1.114  0.00  0.00    -0.489 OA
BRANCH  32  33
ATOM     33  C   UNL     1      -0.780  -9.163   1.711  0.00  0.00    +0.121 A 
ATOM     34  C   UNL     1      -1.309  -8.887   2.964  0.00  0.00    +0.045 A 
ATOM     35  C   UNL     1      -2.159  -9.793   3.568  0.00  0.00    +0.004 A 
ATOM     36  C   UNL     1      -2.482 -10.974   2.926  0.00  0.00    +0.000 A 
ATOM     37  C   UNL     1      -1.956 -11.252   1.677  0.00  0.00    +0.004 A 
ATOM     38  C   UNL     1      -1.111 -10.346   1.066  0.00  0.00    +0.045 A 
ENDBRANCH  32  33
ENDBRANCH  31  32
ENDBRANCH  28  31
ENDBRANCH  27  28
ENDBRANCH   1  27
TORSDOF 12
