REMARK  Name = ZINC61473591
REMARK  4 active torsions:
REMARK  status: ('A' for Active; 'I' for Inactive)
REMARK    1  A    between atoms: C_3  and  C_9
REMARK    2  A    between atoms: C_6  and  C_7
REMARK    3  A    between atoms: N_11  and  N_12
REMARK    4  A    between atoms: C_13  and  C_15
REMARK                            x       y       z     vdW  Elec       q    Type
REMARK                         _______ _______ _______ _____ _____    ______ ____
ROOT
ATOM      1  N   UNL     1       6.035   2.232  -0.044  0.00  0.00    -0.234 N 
ATOM      2  C   UNL     1       7.212   1.574  -0.058  0.00  0.00    +0.236 C 
ATOM      3  O   UNL     1       7.228   0.361  -0.065  0.00  0.00    -0.274 OA
ATOM      4  H   UNL     1       6.022   3.202  -0.038  0.00  0.00    +0.173 HD
ENDROOT
BRANCH   2   5
ATOM      5  C   UNL     1       8.506   2.345  -0.067  0.00  0.00    +0.118 C 
ATOM      6  C   UNL     1       9.687   1.372  -0.112  0.00  0.00    +0.055 C 
ATOM      7  C   UNL     1      10.956   2.127  -0.417  0.00  0.00    -0.004 A 
ATOM      8  C   UNL     1      12.172   1.524  -0.139  0.00  0.00    +0.027 A 
ATOM      9  C   UNL     1      13.355   2.186  -0.409  0.00  0.00    +0.041 A 
ATOM     10  C   UNL     1      13.327   3.455  -0.960  0.00  0.00    +0.023 A 
ATOM     11  C   UNL     1      12.118   4.059  -1.237  0.00  0.00    +0.047 A 
ATOM     12  C   UNL     1      10.925   3.397  -0.964  0.00  0.00    +0.124 A 
ATOM     13  O   UNL     1       9.755   4.029  -1.241  0.00  0.00    -0.491 OA
ATOM     14  C   UNL     1       8.569   3.237  -1.313  0.00  0.00    +0.242 C 
ATOM     15 CL   UNL     1      14.875   1.425  -0.058  0.00  0.00    -0.084 Cl
ENDBRANCH   2   5
BRANCH   1  18
ATOM     16  C   UNL     1       3.656   2.173  -0.021  0.00  0.00    +0.260 C 
ATOM     17  O   UNL     1       3.639   3.388  -0.015  0.00  0.00    -0.269 OA
ATOM     18  N   UNL     1       4.832   1.515  -0.036  0.00  0.00    -0.230 N 
ATOM     19  H   UNL     1       4.845   0.545  -0.041  0.00  0.00    +0.173 HD
BRANCH  16  22
ATOM     20  C   UNL     1      -0.017   1.393   0.010  0.00  0.00    +0.019 A 
ATOM     21  C   UNL     1       1.167   2.097   0.002  0.00  0.00    +0.014 A 
ATOM     22  C   UNL     1       2.385   1.416  -0.013  0.00  0.00    +0.038 A 
ATOM     23  C   UNL     1       2.404   0.019  -0.021  0.00  0.00    +0.014 A 
ATOM     24  C   UNL     1       1.221  -0.686  -0.014  0.00  0.00    +0.019 A 
ATOM     25  C   UNL     1       0.002  -0.004   0.002  0.00  0.00    +0.052 A 
BRANCH  25  26
ATOM     26  C   UNL     1      -1.228  -0.737   0.010  0.00  0.00    +0.099 C 
ATOM     27  N   UNL     1      -2.204  -1.318   0.017  0.00  0.00    -0.191 NA
ENDBRANCH  25  26
ENDBRANCH  16  22
ENDBRANCH   1  18
TORSDOF 4
