REMARK  Name = ZINC09318592
REMARK  3 active torsions:
REMARK  status: ('A' for Active; 'I' for Inactive)
REMARK    1  A    between atoms: C_1  and  C_2
REMARK    2  A    between atoms: C_7  and  C_8
REMARK    3  A    between atoms: C_13  and  C_21
REMARK                            x       y       z     vdW  Elec       q    Type
REMARK                         _______ _______ _______ _____ _____    ______ ____
ROOT
ATOM      1  C   UNL     1       0.243   0.047   2.493  0.00  0.00    +0.032 C 
ATOM      2  C   UNL     1      -0.833  -0.441   3.465  0.00  0.00    +0.060 C 
ATOM      3  C   UNL     1      -0.690   0.281   4.784  0.00  0.00    +0.020 C 
ATOM      4  C   UNL     1       0.520   0.681   5.227  0.00  0.00    +0.041 C 
ATOM      5  C   UNL     1       0.698   1.391   6.552  0.00  0.00    +0.175 C 
ATOM      6  N   UNL     1      -0.594   1.849   7.048  0.00  0.00    -0.221 N 
ATOM      7  C   UNL     1      -1.780   1.423   6.547  0.00  0.00    +0.218 A 
ATOM      8  N   UNL     1      -2.734   2.015   7.211  0.00  0.00    -0.201 NA
ATOM      9  C   UNL     1      -2.202   2.823   8.134  0.00  0.00    +0.247 A 
ATOM     10  N   UNL     1      -0.895   2.751   8.067  0.00  0.00    -0.156 NA
ATOM     11  N   UNL     1      -1.839   0.515   5.502  0.00  0.00    -0.287 N 
ATOM     12  C   UNL     1       1.679   0.455   4.463  0.00  0.00    +0.164 C 
ATOM     13  O   UNL     1       2.756   0.813   4.897  0.00  0.00    -0.292 OA
ATOM     14  C   UNL     1       1.616  -0.219   3.121  0.00  0.00    +0.088 C 
ATOM     15  H   UNL     1      -2.666   0.059   5.283  0.00  0.00    +0.155 HD
ENDROOT
BRANCH   1  22
ATOM     16  C   UNL     1      -0.450   1.463   0.073  0.00  0.00    +0.044 C 
ATOM     17  C   UNL     1      -0.204  -0.023   0.032  0.00  0.00    -0.047 A 
ATOM     18  C   UNL     1      -0.305  -0.708  -1.165  0.00  0.00    +0.003 A 
ATOM     19  C   UNL     1      -0.080  -2.071  -1.202  0.00  0.00    +0.000 A 
ATOM     20  C   UNL     1       0.247  -2.749  -0.043  0.00  0.00    +0.000 A 
ATOM     21  C   UNL     1       0.348  -2.065   1.153  0.00  0.00    +0.004 A 
ATOM     22  C   UNL     1       0.127  -0.701   1.190  0.00  0.00    -0.041 A 
ENDBRANCH   1  22
BRANCH   5  23
ATOM     23  C   UNL     1       1.307   0.442   7.551  0.00  0.00    -0.018 A 
ATOM     24  C   UNL     1       0.652  -0.731   7.878  0.00  0.00    +0.009 A 
ATOM     25  C   UNL     1       1.210  -1.603   8.793  0.00  0.00    +0.039 A 
ATOM     26  C   UNL     1       2.426  -1.302   9.383  0.00  0.00    +0.123 A 
ATOM     27  C   UNL     1       3.082  -0.127   9.054  0.00  0.00    +0.039 A 
ATOM     28  C   UNL     1       2.524   0.741   8.134  0.00  0.00    +0.009 A 
ATOM     29  F   UNL     1       2.973  -2.153  10.278  0.00  0.00    -0.205 F 
ENDBRANCH   5  23
TORSDOF 2
