REMARK  Name = ZINC39738096
REMARK  6 active torsions:
REMARK  status: ('A' for Active; 'I' for Inactive)
REMARK    1  A    between atoms: C_7  and  S_31
REMARK    2  A    between atoms: C_9  and  N_12
REMARK    3  A    between atoms: C_10  and  O_11
REMARK    4  A    between atoms: N_13  and  C_14
REMARK    5  A    between atoms: C_18  and  C_20
REMARK    6  A    between atoms: C_21  and  C_22
REMARK                            x       y       z     vdW  Elec       q    Type
REMARK                         _______ _______ _______ _____ _____    ______ ____
ROOT
ATOM      1  C   UNL     1       5.804  -3.301   0.344  0.00  0.00    +0.087 A 
ATOM      2  C   UNL     1       6.939  -2.834   1.015  0.00  0.00    +0.029 A 
ATOM      3  C   UNL     1       7.963  -3.704   1.330  0.00  0.00    +0.003 A 
ATOM      4  C   UNL     1       7.875  -5.039   0.986  0.00  0.00    +0.008 A 
ATOM      5  C   UNL     1       6.747  -5.519   0.317  0.00  0.00    -0.023 A 
ATOM      6  C   UNL     1       5.706  -4.649   0.000  0.00  0.00    +0.037 A 
ENDROOT
BRANCH   1   8
ATOM      7  N   UNL     1       4.881  -1.192   0.351  0.00  0.00    -0.146 NA
ATOM      8  N   UNL     1       4.790  -2.438   0.032  0.00  0.00    -0.149 NA
BRANCH   7  17
ATOM      9  C   UNL     1       0.830   3.588  -0.602  0.00  0.00    +0.001 A 
ATOM     10  C   UNL     1       1.953   4.079   0.061  0.00  0.00    +0.001 A 
ATOM     11  C   UNL     1       2.987   3.256   0.391  0.00  0.00    +0.012 A 
ATOM     12  C   UNL     1       2.923   1.893   0.059  0.00  0.00    +0.028 A 
ATOM     13  C   UNL     1       1.781   1.393  -0.615  0.00  0.00    +0.013 A 
ATOM     14  C   UNL     1       0.735   2.272  -0.938  0.00  0.00    +0.010 A 
ATOM     15  C   UNL     1       1.709   0.027  -0.950  0.00  0.00    +0.130 A 
ATOM     16  C   UNL     1       2.728  -0.809  -0.630  0.00  0.00    +0.063 A 
ATOM     17  C   UNL     1       3.871  -0.333   0.040  0.00  0.00    +0.130 A 
ATOM     18  C   UNL     1       3.974   1.015   0.386  0.00  0.00    +0.152 A 
BRANCH  15  19
ATOM     19  S   UNL     1       0.291  -0.599  -1.788  0.00  0.00    +0.140 S 
ATOM     20  O   UNL     1       0.482  -0.326  -3.204  0.00  0.00    -0.140 OA
ATOM     21  O   UNL     1       0.232  -2.026  -1.512  0.00  0.00    -0.140 OA
ATOM     22  O   UNL     1      -0.862   0.107  -1.250  0.00  0.00    -0.043 OA
ENDBRANCH  15  19
BRANCH  18  23
ATOM     23  O   UNL     1       5.075   1.474   1.030  0.00  0.00    -0.504 OA
ATOM     24  H   UNL     1       5.011   1.437   1.994  0.00  0.00    +0.292 HD
ENDBRANCH  18  23
ENDBRANCH   7  17
ENDBRANCH   1   8
BRANCH   5  25
ATOM     25  C   UNL     1       6.655  -6.948  -0.049  0.00  0.00    +0.007 C 
ATOM     26  C   UNL     1       7.733  -7.595  -0.471  0.00  0.00    +0.020 C 
BRANCH  26  27
ATOM     27  C   UNL     1       9.005  -6.837  -0.750  0.00  0.00    +0.198 C 
ATOM     28  N   UNL     1       9.520  -7.189  -2.079  0.00  0.00    -0.360 N 
ATOM     29  C   UNL     1      10.701  -7.712  -1.915  0.00  0.00    +0.060 A 
ATOM     30  C   UNL     1      11.696  -8.248  -2.854  0.00  0.00    +0.027 A 
ATOM     31  C   UNL     1      12.860  -8.736  -2.382  0.00  0.00    +0.002 A 
ATOM     32  C   UNL     1      13.174  -8.757  -1.011  0.00  0.00    +0.002 A 
ATOM     33  C   UNL     1      12.333  -8.291  -0.066  0.00  0.00    +0.027 A 
ATOM     34  C   UNL     1      11.033  -7.734  -0.464  0.00  0.00    +0.060 A 
ATOM     35  N   UNL     1      10.044  -7.224   0.212  0.00  0.00    -0.360 N 
ATOM     36  H   UNL     1       9.064  -7.057  -2.925  0.00  0.00    +0.162 HD
ATOM     37  H   UNL     1      10.002  -7.119   1.176  0.00  0.00    +0.162 HD
ENDBRANCH  26  27
ENDBRANCH   5  25
TORSDOF 6
