REMARK  Name = ZINC47501880
REMARK  5 active torsions:
REMARK  status: ('A' for Active; 'I' for Inactive)
REMARK    1  A    between atoms: C_3  and  S_22
REMARK    2  A    between atoms: C_6  and  C_7
REMARK    3  A    between atoms: N_9  and  C_10
REMARK    4  A    between atoms: C_12  and  C_18
REMARK    5  A    between atoms: S_22  and  C_25
REMARK                            x       y       z     vdW  Elec       q    Type
REMARK                         _______ _______ _______ _____ _____    ______ ____
ROOT
ATOM      1  C   UNL     1      -1.276  -0.774  -0.163  0.00  0.00    +0.248 C 
ATOM      2  O   UNL     1      -2.341  -0.204  -0.303  0.00  0.00    -0.270 OA
ATOM      3  N   UNL     1      -1.244  -2.111   0.003  0.00  0.00    -0.277 N 
ATOM      4  H   UNL     1      -0.393  -2.575   0.043  0.00  0.00    +0.155 HD
ENDROOT
BRANCH   3   5
ATOM      5  C   UNL     1      -2.440  -2.832   0.116  0.00  0.00    +0.099 A 
ATOM      6  C   UNL     1      -2.731  -3.835  -0.768  0.00  0.00    +0.042 A 
ATOM      7  C   UNL     1      -3.934  -4.540  -0.632  0.00  0.00    +0.073 A 
ATOM      8  C   UNL     1      -4.794  -4.227   0.365  0.00  0.00    +0.098 A 
ATOM      9  N   UNL     1      -4.508  -3.230   1.244  0.00  0.00    -0.327 N 
ATOM     10  H   UNL     1      -5.136  -3.020   1.952  0.00  0.00    +0.168 HD
ATOM     11  C   UNL     1      -3.358  -2.535   1.147  0.00  0.00    +0.270 A 
ATOM     12  O   UNL     1      -3.112  -1.647   1.947  0.00  0.00    -0.266 OA
BRANCH   7  13
ATOM     13  C   UNL     1      -4.271  -5.648  -1.596  0.00  0.00    +0.419 C 
ATOM     14  F   UNL     1      -5.513  -6.198  -1.259  0.00  0.00    -0.166 F 
ATOM     15  F   UNL     1      -4.326  -5.134  -2.896  0.00  0.00    -0.166 F 
ATOM     16  F   UNL     1      -3.288  -6.641  -1.528  0.00  0.00    -0.166 F 
ENDBRANCH   7  13
ENDBRANCH   3   5
BRANCH   1  22
ATOM     17  C   UNL     1      -0.046   1.385  -0.343  0.00  0.00    +0.015 A 
ATOM     18  C   UNL     1       1.133   2.101  -0.351  0.00  0.00    +0.028 A 
ATOM     19  C   UNL     1       2.343   1.449  -0.191  0.00  0.00    +0.098 A 
ATOM     20  C   UNL     1       2.379   0.076  -0.021  0.00  0.00    +0.028 A 
ATOM     21  C   UNL     1       1.208  -0.652  -0.012  0.00  0.00    +0.015 A 
ATOM     22  C   UNL     1      -0.017  -0.000  -0.172  0.00  0.00    +0.037 A 
BRANCH  19  23
ATOM     23  S   UNL     1       3.844   2.371  -0.202  0.00  0.00    +0.091 S 
ATOM     24  O   UNL     1       4.834   1.447  -0.632  0.00  0.00    -0.161 OA
ATOM     25  O   UNL     1       3.552   3.530  -0.972  0.00  0.00    -0.161 OA
BRANCH  23  26
ATOM     26  C   UNL     1       4.125   2.827   1.531  0.00  0.00    +0.526 C 
ATOM     27  F   UNL     1       4.236   1.667   2.306  0.00  0.00    -0.150 F 
ATOM     28  F   UNL     1       5.306   3.570   1.633  0.00  0.00    -0.150 F 
ATOM     29  F   UNL     1       3.050   3.594   1.992  0.00  0.00    -0.150 F 
ENDBRANCH  23  26
ENDBRANCH  19  23
ENDBRANCH   1  22
TORSDOF 5
