REMARK  Name = ZINC60380570
REMARK  9 active torsions:
REMARK  status: ('A' for Active; 'I' for Inactive)
REMARK    1  A    between atoms: C_1  and  C_2
REMARK    2  A    between atoms: C_2  and  C_3
REMARK    3  A    between atoms: C_2  and  C_4
REMARK    4  A    between atoms: C_2  and  N_11
REMARK    5  A    between atoms: N_11  and  S_12
REMARK    6  A    between atoms: S_12  and  C_15
REMARK    7  A    between atoms: C_18  and  N_22
REMARK    8  A    between atoms: N_22  and  S_23
REMARK    9  A    between atoms: S_23  and  C_26
REMARK                            x       y       z     vdW  Elec       q    Type
REMARK                         _______ _______ _______ _____ _____    ______ ____
ROOT
ATOM      1  S   UNL     1       2.352  -0.431  -1.432  0.00  0.00    +0.062 S 
ATOM      2  O   UNL     1       2.800  -1.280  -0.384  0.00  0.00    -0.153 OA
ATOM      3  O   UNL     1       2.616  -0.705  -2.801  0.00  0.00    -0.153 OA
ENDROOT
BRANCH   1   4
ATOM      4  C   UNL     1       3.015   1.168  -1.102  0.00  0.00    +0.140 A 
ATOM      5  C   UNL     1       3.856   1.357  -0.021  0.00  0.00    +0.033 A 
ATOM      6  C   UNL     1       4.377   2.609   0.240  0.00  0.00    +0.029 A 
ATOM      7  C   UNL     1       4.057   3.680  -0.584  0.00  0.00    +0.077 A 
ATOM      8  C   UNL     1       3.212   3.490  -1.669  0.00  0.00    +0.067 A 
ATOM      9  C   UNL     1       2.697   2.232  -1.930  0.00  0.00    +0.151 A 
ATOM     10  F   UNL     1       1.879   2.044  -2.988  0.00  0.00    -0.203 F 
BRANCH   7  11
ATOM     11  N   UNL     1       4.583   4.947  -0.321  0.00  0.00    -0.103 NA
BRANCH  11  12
ATOM     12  S   UNL     1       4.200   6.223  -1.305  0.00  0.00    +0.059 S 
ATOM     13  O   UNL     1       4.748   5.883  -2.571  0.00  0.00    -0.154 OA
ATOM     14  O   UNL     1       2.799   6.396  -1.145  0.00  0.00    -0.154 OA
ATOM     15  C   UNL     1       5.089   7.638  -0.599  0.00  0.00    +0.220 C 
ENDBRANCH  11  12
ENDBRANCH   7  11
ENDBRANCH   1   4
BRANCH   1  16
ATOM     16  N   UNL     1       0.707  -0.319  -1.280  0.00  0.00    -0.180 NA
ATOM     17  H   UNL     1       0.138  -0.463  -2.053  0.00  0.00    +0.149 HD
BRANCH  16  19
ATOM     18  C   UNL     1       0.502   1.417   0.429  0.00  0.00    +0.034 C 
ATOM     19  C   UNL     1       0.111  -0.004   0.020  0.00  0.00    +0.059 C 
ATOM     20  C   UNL     1       0.620  -0.995   1.069  0.00  0.00    +0.034 C 
BRANCH  19  21
ATOM     21  C   UNL     1      -1.390  -0.103  -0.078  0.00  0.00    -0.026 A 
ATOM     22  C   UNL     1      -1.968  -0.911  -1.039  0.00  0.00    +0.006 A 
ATOM     23  C   UNL     1      -3.344  -1.003  -1.129  0.00  0.00    +0.015 A 
ATOM     24  C   UNL     1      -4.143  -0.286  -0.257  0.00  0.00    +0.018 A 
ATOM     25  C   UNL     1      -3.565   0.522   0.705  0.00  0.00    +0.015 A 
ATOM     26  C   UNL     1      -2.188   0.609   0.798  0.00  0.00    +0.006 A 
ATOM     27 BR   UNL     1      -6.026  -0.411  -0.380  0.00  0.00    -0.050 Br
ENDBRANCH  19  21
ENDBRANCH  16  19
ENDBRANCH   1  16
TORSDOF 6
