REMARK  Name = ZINC08695566
REMARK  13 active torsions:
REMARK  status: ('A' for Active; 'I' for Inactive)
REMARK    1  A    between atoms: C_1  and  C_2
REMARK    2  A    between atoms: C_2  and  O_3
REMARK    3  A    between atoms: O_3  and  C_4
REMARK    4  A    between atoms: C_7  and  C_10
REMARK    5  A    between atoms: C_12  and  C_37
REMARK    6  A    between atoms: C_13  and  C_36
REMARK    7  A    between atoms: C_20  and  C_21
REMARK    8  A    between atoms: C_23  and  C_34
REMARK    9  A    between atoms: N_24  and  C_27
REMARK   10  A    between atoms: C_25  and  C_26
REMARK   11  A    between atoms: C_37  and  O_39
REMARK   12  A    between atoms: O_39  and  C_40
REMARK   13  A    between atoms: C_40  and  C_41
REMARK                            x       y       z     vdW  Elec       q    Type
REMARK                         _______ _______ _______ _____ _____    ______ ____
ROOT
ATOM      1  C   UNL     1       3.788   1.144   0.045  0.00  0.00    +0.162 C 
ATOM      2  C   UNL     1       4.539  -0.168   0.013  0.00  0.00    +0.085 C 
ATOM      3  C   UNL     1       3.812  -1.323  -0.060  0.00  0.00    +0.053 C 
ATOM      4  N   UNL     1       2.487  -1.285  -0.100  0.00  0.00    -0.228 NA
ATOM      5  C   UNL     1       1.770  -0.190  -0.076  0.00  0.00    +0.178 A 
ATOM      6  N   UNL     1       2.301   1.077  -0.004  0.00  0.00    -0.275 N 
ATOM      7  C   UNL     1       1.465   2.123   0.015  0.00  0.00    +0.268 A 
ATOM      8  O   UNL     1       1.889   3.263   0.077  0.00  0.00    -0.266 OA
ATOM      9  C   UNL     1       0.024   1.857  -0.042  0.00  0.00    +0.081 A 
ATOM     10  C   UNL     1      -1.017   2.732  -0.042  0.00  0.00    +0.030 C 
ATOM     11  S   UNL     1       0.007   0.073  -0.120  0.00  0.00    -0.046 S 
ATOM     12  C   UNL     1       4.523  -2.652  -0.096  0.00  0.00    +0.066 C 
ENDROOT
BRANCH  10  13
ATOM     13  C   UNL     1      -2.394   2.233  -0.113  0.00  0.00    -0.003 A 
ATOM     14  C   UNL     1      -2.823   0.831  -0.188  0.00  0.00    +0.031 A 
ATOM     15  C   UNL     1      -4.166   0.843  -0.234  0.00  0.00    +0.022 A 
ATOM     16  N   UNL     1      -4.606   2.136  -0.195  0.00  0.00    -0.317 N 
ATOM     17  C   UNL     1      -3.552   2.987  -0.116  0.00  0.00    +0.028 A 
ATOM     18  C   UNL     1      -3.631   4.490  -0.048  0.00  0.00    +0.064 C 
ATOM     19  C   UNL     1      -5.047  -0.377  -0.318  0.00  0.00    +0.064 C 
BRANCH  16  20
ATOM     20  C   UNL     1      -5.952   2.527  -0.226  0.00  0.00    +0.047 A 
ATOM     21  C   UNL     1      -6.438   3.259  -1.300  0.00  0.00    +0.029 A 
ATOM     22  C   UNL     1      -7.766   3.638  -1.332  0.00  0.00    +0.040 A 
ATOM     23  C   UNL     1      -8.609   3.298  -0.287  0.00  0.00    +0.124 A 
ATOM     24  C   UNL     1      -8.124   2.572   0.788  0.00  0.00    +0.040 A 
ATOM     25  C   UNL     1      -6.799   2.187   0.820  0.00  0.00    +0.029 A 
ATOM     26  F   UNL     1      -9.906   3.674  -0.317  0.00  0.00    -0.205 F 
ENDBRANCH  16  20
ENDBRANCH  10  13
BRANCH   1  30
ATOM     27  C   UNL     1       4.893   3.199   3.626  0.00  0.00    +0.121 A 
ATOM     28  C   UNL     1       5.584   3.436   2.447  0.00  0.00    +0.046 A 
ATOM     29  C   UNL     1       5.225   2.771   1.291  0.00  0.00    +0.009 A 
ATOM     30  C   UNL     1       4.178   1.868   1.308  0.00  0.00    -0.020 A 
ATOM     31  C   UNL     1       3.483   1.634   2.481  0.00  0.00    +0.009 A 
ATOM     32  C   UNL     1       3.842   2.293   3.641  0.00  0.00    +0.046 A 
BRANCH  27  33
ATOM     33  O   UNL     1       5.245   3.852   4.765  0.00  0.00    -0.492 OA
BRANCH  33  35
ATOM     34  C   UNL     1       5.027   4.382   7.112  0.00  0.00    +0.048 C 
ATOM     35  C   UNL     1       4.489   3.557   5.941  0.00  0.00    +0.225 C 
ENDBRANCH  33  35
ENDBRANCH  27  33
ENDBRANCH   1  30
BRANCH   2  36
ATOM     36  C   UNL     1       5.942  -0.198   0.055  0.00  0.00    +0.339 C 
ATOM     37  O   UNL     1       6.526  -1.264   0.138  0.00  0.00    -0.245 OA
BRANCH  36  38
ATOM     38  O   UNL     1       6.644   0.955   0.004  0.00  0.00    -0.462 OA
BRANCH  38  39
ATOM     39  C   UNL     1       8.069   0.849   0.052  0.00  0.00    +0.229 C 
ATOM     40  C   UNL     1       8.686   2.247  -0.017  0.00  0.00    +0.048 C 
ENDBRANCH  38  39
ENDBRANCH  36  38
ENDBRANCH   2  36
TORSDOF 8
