REMARK  Name = ZINC39674398
REMARK  10 active torsions:
REMARK  status: ('A' for Active; 'I' for Inactive)
REMARK    1  A    between atoms: C_1  and  C_2
REMARK    2  A    between atoms: C_2  and  C_3
REMARK    3  A    between atoms: C_3  and  C_5
REMARK    4  A    between atoms: C_3  and  C_11
REMARK    5  A    between atoms: C_15  and  C_24
REMARK    6  A    between atoms: N_26  and  C_27
REMARK    7  A    between atoms: C_27  and  C_29
REMARK    8  A    between atoms: C_27  and  C_30
REMARK    9  A    between atoms: C_31  and  C_37
REMARK   10  A    between atoms: C_34  and  C_36
REMARK                            x       y       z     vdW  Elec       q    Type
REMARK                         _______ _______ _______ _____ _____    ______ ____
ROOT
ATOM      1  C   UNL     1      -0.926  -2.958  -0.123  0.00  0.00    +0.223 C 
ATOM      2  O   UNL     1      -1.265  -3.757  -0.970  0.00  0.00    -0.275 OA
ATOM      3  N   UNL     1      -0.379  -3.389   1.031  0.00  0.00    -0.300 N 
ATOM      4  C   UNL     1       0.087  -2.573   2.176  0.00  0.00    +0.121 C 
ATOM      5  C   UNL     1      -0.341  -3.374   3.427  0.00  0.00    +0.100 C 
ATOM      6  C   UNL     1      -0.466  -4.827   2.938  0.00  0.00    -0.004 C 
ATOM      7  C   UNL     1      -0.115  -4.788   1.444  0.00  0.00    +0.115 C 
ATOM      8  C   UNL     1      -1.895  -5.326   3.125  0.00  0.00    -0.010 C 
ATOM      9  C   UNL     1      -1.981  -6.790   2.685  0.00  0.00    -0.082 C 
ATOM     10  N   UNL     1      -1.050  -7.598   3.483  0.00  0.00    +0.379 N 
ATOM     11  C   UNL     1       0.330  -7.171   3.227  0.00  0.00    -0.082 C 
ATOM     12  C   UNL     1       0.514  -5.723   3.689  0.00  0.00    -0.010 C 
ATOM     13  H   UNL     1      -1.261  -7.481   4.463  0.00  0.00    -0.086 HD
ATOM     14  H   UNL     1      -1.153  -8.571   3.235  0.00  0.00    -0.086 HD
ENDROOT
BRANCH   5  15
ATOM     15  C   UNL     1       0.709  -3.268   4.502  0.00  0.00    +0.219 C 
ATOM     16  O   UNL     1       1.876  -3.138   4.200  0.00  0.00    -0.275 OA
ATOM     17  N   UNL     1       0.351  -3.318   5.801  0.00  0.00    -0.309 N 
ATOM     18  H   UNL     1      -0.583  -3.422   6.043  0.00  0.00    +0.149 HD
BRANCH  17  19
ATOM     19  C   UNL     1       1.372  -3.215   6.847  0.00  0.00    +0.100 C 
ATOM     20  C   UNL     1       1.688  -1.741   7.107  0.00  0.00    +0.033 C 
BRANCH  19  21
ATOM     21  C   UNL     1       0.859  -3.850   8.113  0.00  0.00    -0.001 C 
ATOM     22  C   UNL     1       1.387  -4.868   8.795  0.00  0.00    +0.063 C 
ATOM     23  N   UNL     1       0.640  -5.156   9.884  0.00  0.00    -0.159 NA
ATOM     24  N   UNL     1      -0.354  -4.440  10.027  0.00  0.00    -0.180 NA
ATOM     25  C   UNL     1      -0.376  -3.475   8.914  0.00  0.00    +0.154 C 
ATOM     26  C   UNL     1      -1.641  -3.652   8.073  0.00  0.00    +0.039 C 
ATOM     27  C   UNL     1       2.647  -5.598   8.404  0.00  0.00    +0.067 C 
ENDBRANCH  19  21
ENDBRANCH  17  19
ENDBRANCH   5  15
BRANCH   1  28
ATOM     28  C   UNL     1      -1.116  -1.482  -0.361  0.00  0.00    +0.105 C 
BRANCH  28  29
ATOM     29  C   UNL     1      -1.741  -1.268  -1.715  0.00  0.00    -0.036 A 
ATOM     30  C   UNL     1      -1.095  -1.714  -2.853  0.00  0.00    +0.004 A 
ATOM     31  C   UNL     1      -1.669  -1.518  -4.096  0.00  0.00    +0.000 A 
ATOM     32  C   UNL     1      -2.889  -0.876  -4.200  0.00  0.00    +0.000 A 
ATOM     33  C   UNL     1      -3.535  -0.431  -3.062  0.00  0.00    +0.000 A 
ATOM     34  C   UNL     1      -2.963  -0.631  -1.819  0.00  0.00    +0.004 A 
ENDBRANCH  28  29
BRANCH  28  36
ATOM     35  C   UNL     1       0.037   0.734  -0.426  0.00  0.00    +0.005 C 
ATOM     36  C   UNL     1       0.241  -0.778  -0.309  0.00  0.00    +0.014 C 
ENDBRANCH  28  36
ENDBRANCH   1  28
TORSDOF 6
