REMARK  Name = ZINC15862876
REMARK  5 active torsions:
REMARK  status: ('A' for Active; 'I' for Inactive)
REMARK    1  A    between atoms: C_1  and  N_2
REMARK    2  A    between atoms: N_2  and  C_3
REMARK    3  A    between atoms: C_13  and  N_14
REMARK    4  A    between atoms: N_14  and  S_15
REMARK    5  A    between atoms: S_15  and  C_18
REMARK                            x       y       z     vdW  Elec       q    Type
REMARK                         _______ _______ _______ _____ _____    ______ ____
ROOT
ATOM      1  C   UNL     1       2.529   3.894  -0.237  0.00  0.00    +0.067 A 
ATOM      2  C   UNL     1       1.432   3.147  -0.872  0.00  0.00    +0.040 A 
ATOM      3  C   UNL     1       1.616   1.835  -1.314  0.00  0.00    +0.013 A 
ATOM      4  C   UNL     1       0.570   1.163  -1.904  0.00  0.00    +0.001 A 
ATOM      5  C   UNL     1      -0.660   1.784  -2.066  0.00  0.00    +0.004 A 
ATOM      6  C   UNL     1      -0.856   3.078  -1.630  0.00  0.00    +0.047 A 
ATOM      7  C   UNL     1       0.186   3.774  -1.031  0.00  0.00    +0.141 A 
ATOM      8  O   UNL     1       0.009   5.043  -0.603  0.00  0.00    -0.421 OA
ATOM      9  C   UNL     1       0.997   5.740  -0.021  0.00  0.00    +0.362 A 
ATOM     10  O   UNL     1       0.780   6.883   0.346  0.00  0.00    -0.243 OA
ATOM     11  C   UNL     1       2.276   5.189   0.177  0.00  0.00    +0.154 A 
ENDROOT
BRANCH   1  13
ATOM     12  C   UNL     1       4.682   3.676  -1.158  0.00  0.00    +0.125 C 
ATOM     13  N   UNL     1       3.775   3.318  -0.059  0.00  0.00    -0.345 N 
ATOM     14  H   UNL     1       3.700   2.317   0.037  0.00  0.00    +0.146 HD
ENDBRANCH   1  13
BRANCH  11  15
ATOM     15  N   UNL     1       3.288   5.949   0.791  0.00  0.00    -0.208 N 
ATOM     16  H   UNL     1       4.105   6.149   0.307  0.00  0.00    +0.174 HD
BRANCH  15  17
ATOM     17  S   UNL     1       3.086   6.500   2.339  0.00  0.00    +0.075 S 
ATOM     18  O   UNL     1       4.271   7.209   2.676  0.00  0.00    -0.150 OA
ATOM     19  O   UNL     1       1.799   7.101   2.391  0.00  0.00    -0.150 OA
BRANCH  17  20
ATOM     20  C   UNL     1       3.026   5.089   3.392  0.00  0.00    +0.137 A 
ATOM     21  C   UNL     1       4.002   4.887   4.309  0.00  0.00    +0.031 A 
ATOM     22  C   UNL     1       3.987   3.781   5.158  0.00  0.00    +0.004 A 
ATOM     23  C   UNL     1       2.996   2.859   5.105  0.00  0.00    +0.031 A 
ATOM     24  C   UNL     1       1.940   3.007   4.169  0.00  0.00    +0.102 A 
ATOM     25  C   UNL     1       1.952   4.167   3.283  0.00  0.00    +0.126 A 
ATOM     26  N   UNL     1       0.909   4.177   2.456  0.00  0.00    -0.189 NA
ATOM     27  S   UNL     1       0.068   2.899   2.797  0.00  0.00    +0.117 S 
ATOM     28  N   UNL     1       0.882   2.226   3.955  0.00  0.00    -0.191 NA
ENDBRANCH  17  20
ENDBRANCH  15  17
ENDBRANCH  11  15
TORSDOF 4
