REMARK  Name = ZINC39922377
REMARK  13 active torsions:
REMARK  status: ('A' for Active; 'I' for Inactive)
REMARK    1  A    between atoms: C_4  and  C_10
REMARK    2  A    between atoms: N_11  and  N_12
REMARK    3  A    between atoms: C_13  and  C_15
REMARK    4  A    between atoms: C_15  and  C_16
REMARK    5  A    between atoms: C_16  and  C_17
REMARK    6  A    between atoms: C_17  and  C_18
REMARK    7  A    between atoms: C_18  and  C_19
REMARK    8  A    between atoms: C_19  and  C_20
REMARK    9  A    between atoms: C_20  and  C_21
REMARK   10  A    between atoms: C_21  and  C_22
REMARK   11  A    between atoms: C_22  and  C_23
REMARK   12  A    between atoms: N_25  and  N_26
REMARK   13  A    between atoms: C_27  and  C_28
REMARK                            x       y       z     vdW  Elec       q    Type
REMARK                         _______ _______ _______ _____ _____    ______ ____
ROOT
ATOM      1  C   UNL     1      11.107   8.167  -0.061  0.00  0.00    +0.000 C 
ENDROOT
BRANCH   1   2
ATOM      2  C   UNL     1       9.578   8.117  -0.047  0.00  0.00    +0.000 C 
BRANCH   2   3
ATOM      3  C   UNL     1       9.116   6.658  -0.050  0.00  0.00    +0.009 C 
BRANCH   3   4
ATOM      4  C   UNL     1       7.586   6.608  -0.036  0.00  0.00    +0.097 C 
BRANCH   4   6
ATOM      5  N   UNL     1       5.815   4.882  -0.028  0.00  0.00    -0.207 N 
ATOM      6  C   UNL     1       7.131   5.171  -0.039  0.00  0.00    +0.232 C 
ATOM      7  O   UNL     1       7.949   4.276  -0.051  0.00  0.00    -0.274 OA
ATOM      8  H   UNL     1       5.161   5.598  -0.018  0.00  0.00    +0.177 HD
BRANCH   5  10
ATOM      9  C   UNL     1       4.113   3.265  -0.020  0.00  0.00    +0.136 C 
ATOM     10  N   UNL     1       5.391   3.546  -0.031  0.00  0.00    -0.188 NA
BRANCH   9  14
ATOM     11  C   UNL     1      -0.017   1.394   0.010  0.00  0.00    +0.001 A 
ATOM     12  C   UNL     1       1.129   2.121   0.003  0.00  0.00    +0.010 A 
ATOM     13  C   UNL     1       2.377   1.460  -0.013  0.00  0.00    +0.004 A 
ATOM     14  C   UNL     1       3.689   1.928  -0.023  0.00  0.00    +0.000 C 
ATOM     15  C   UNL     1       4.561   0.692  -0.038  0.00  0.00    +0.150 C 
ATOM     16  N   UNL     1       3.644  -0.451  -0.035  0.00  0.00    -0.380 N 
ATOM     17  C   UNL     1       2.403  -0.013  -0.021  0.00  0.00    +0.043 A 
ATOM     18  C   UNL     1       1.162  -0.704  -0.012  0.00  0.00    +0.026 A 
ATOM     19  C   UNL     1       0.002  -0.004   0.002  0.00  0.00    +0.002 A 
ATOM     20  H   UNL     1       3.909  -1.384  -0.043  0.00  0.00    +0.160 HD
ENDBRANCH   9  14
ENDBRANCH   5  10
ENDBRANCH   4   6
ENDBRANCH   3   4
ENDBRANCH   2   3
ENDBRANCH   1   2
BRANCH   1  21
ATOM     21  C   UNL     1      11.569   9.626  -0.058  0.00  0.00    +0.000 C 
BRANCH  21  22
ATOM     22  C   UNL     1      13.098   9.676  -0.072  0.00  0.00    +0.000 C 
BRANCH  22  23
ATOM     23  C   UNL     1      13.561  11.134  -0.070  0.00  0.00    +0.009 C 
BRANCH  23  24
ATOM     24  C   UNL     1      15.090  11.185  -0.084  0.00  0.00    +0.097 C 
BRANCH  24  25
ATOM     25  C   UNL     1      15.545  12.621  -0.081  0.00  0.00    +0.232 C 
ATOM     26  O   UNL     1      14.727  13.516  -0.069  0.00  0.00    -0.274 OA
ATOM     27  N   UNL     1      16.861  12.911  -0.092  0.00  0.00    -0.207 N 
ATOM     28  H   UNL     1      17.515  12.195  -0.102  0.00  0.00    +0.177 HD
BRANCH  27  29
ATOM     29  N   UNL     1      17.285  14.246  -0.089  0.00  0.00    -0.188 NA
ATOM     30  C   UNL     1      18.563  14.528  -0.100  0.00  0.00    +0.136 C 
BRANCH  30  31
ATOM     31  C   UNL     1      18.987  15.865  -0.097  0.00  0.00    +0.000 C 
ATOM     32  C   UNL     1      20.299  16.332  -0.113  0.00  0.00    +0.004 A 
ATOM     33  C   UNL     1      20.273  17.805  -0.103  0.00  0.00    +0.043 A 
ATOM     34  N   UNL     1      19.032  18.244  -0.083  0.00  0.00    -0.380 N 
ATOM     35  C   UNL     1      18.115  17.101  -0.083  0.00  0.00    +0.150 C 
ATOM     36  C   UNL     1      21.514  18.496  -0.117  0.00  0.00    +0.026 A 
ATOM     37  C   UNL     1      22.674  17.797  -0.138  0.00  0.00    +0.002 A 
ATOM     38  C   UNL     1      22.693  16.399  -0.147  0.00  0.00    +0.001 A 
ATOM     39  C   UNL     1      21.547  15.672  -0.134  0.00  0.00    +0.010 A 
ATOM     40  H   UNL     1      18.767  19.177  -0.073  0.00  0.00    +0.160 HD
ENDBRANCH  30  31
ENDBRANCH  27  29
ENDBRANCH  24  25
ENDBRANCH  23  24
ENDBRANCH  22  23
ENDBRANCH  21  22
ENDBRANCH   1  21
TORSDOF 13
