REMARK  Name = ZINC16269123
REMARK  8 active torsions:
REMARK  status: ('A' for Active; 'I' for Inactive)
REMARK    1  A    between atoms: C_1  and  C_2
REMARK    2  A    between atoms: C_4  and  C_38
REMARK    3  A    between atoms: C_6  and  N_8
REMARK    4  A    between atoms: C_11  and  C_37
REMARK    5  A    between atoms: N_21  and  C_24
REMARK    6  A    between atoms: C_24  and  N_73
REMARK    7  A    between atoms: C_27  and  C_30
REMARK    8  A    between atoms: C_30  and  C_31
REMARK                            x       y       z     vdW  Elec       q    Type
REMARK                         _______ _______ _______ _____ _____    ______ ____
ROOT
ATOM      1  N   UNL     1       1.086   1.690  -0.222  0.00  0.00    -0.243 N 
ATOM      2  C   UNL     1       0.015   0.921  -0.026  0.00  0.00    +0.234 C 
ATOM      3  O   UNL     1       0.125  -0.263   0.211  0.00  0.00    -0.274 OA
ATOM      4  C   UNL     1      -1.351   1.585  -0.115  0.00  0.00    +0.132 C 
ATOM      5  S   UNL     1      -0.897   3.185  -0.917  0.00  0.00    -0.108 S 
ATOM      6  C   UNL     1       0.891   3.106  -0.515  0.00  0.00    +0.193 C 
ATOM      7  C   UNL     1       1.223   4.005   0.635  0.00  0.00    +0.017 A 
ATOM      8  C   UNL     1       0.806   4.072   1.946  0.00  0.00    +0.009 A 
ATOM      9  C   UNL     1       1.312   5.048   2.785  0.00  0.00    +0.000 A 
ATOM     10  C   UNL     1       2.238   5.957   2.305  0.00  0.00    +0.002 A 
ATOM     11  C   UNL     1       2.660   5.893   0.993  0.00  0.00    +0.024 A 
ATOM     12  C   UNL     1       2.156   4.913   0.141  0.00  0.00    +0.041 A 
ATOM     13  N   UNL     1       2.425   4.648  -1.204  0.00  0.00    -0.285 N 
ATOM     14  C   UNL     1       1.719   3.594  -1.665  0.00  0.00    +0.257 C 
ATOM     15  O   UNL     1       1.749   3.134  -2.787  0.00  0.00    -0.272 OA
ATOM     16  C   UNL     1      -2.304   0.774  -0.996  0.00  0.00    +0.029 C 
ENDROOT
BRANCH   1  22
ATOM     17  C   UNL     1       4.553  -1.256  -2.086  0.00  0.00    +0.044 C 
ATOM     18  C   UNL     1       4.080  -0.282  -1.038  0.00  0.00    -0.048 A 
ATOM     19  C   UNL     1       4.921   0.077  -0.000  0.00  0.00    +0.006 A 
ATOM     20  C   UNL     1       4.491   0.971   0.964  0.00  0.00    -0.048 A 
ATOM     21  C   UNL     1       3.220   1.507   0.894  0.00  0.00    +0.027 A 
ATOM     22  C   UNL     1       2.374   1.148  -0.147  0.00  0.00    +0.039 A 
ATOM     23  C   UNL     1       2.807   0.247  -1.111  0.00  0.00    +0.027 A 
ATOM     24  C   UNL     1       5.410   1.359   2.093  0.00  0.00    +0.044 C 
ENDBRANCH   1  22
BRANCH  13  25
ATOM     25  C   UNL     1       3.364   5.422  -2.019  0.00  0.00    +0.038 C 
BRANCH  25  31
ATOM     26  C   UNL     1       5.454   4.884  -0.921  0.00  0.00    -0.076 C 
ATOM     27  C   UNL     1       6.700   3.999  -1.004  0.00  0.00    -0.015 C 
ATOM     28  C   UNL     1       7.503   4.373  -2.253  0.00  0.00    -0.010 C 
ATOM     29  C   UNL     1       6.613   4.212  -3.489  0.00  0.00    -0.015 C 
ATOM     30  C   UNL     1       5.370   5.091  -3.334  0.00  0.00    -0.076 C 
ATOM     31  N   UNL     1       4.628   4.665  -2.128  0.00  0.00    +0.390 N 
ATOM     32  H   UNL     1       4.412   3.664  -2.206  0.00  0.00    -0.080 HD
BRANCH  28  33
ATOM     33  C   UNL     1       8.718   3.451  -2.374  0.00  0.00    +0.038 C 
BRANCH  33  34
ATOM     34  C   UNL     1       9.653   3.698  -1.219  0.00  0.00    -0.047 A 
ATOM     35  C   UNL     1      10.656   4.643  -1.332  0.00  0.00    +0.003 A 
ATOM     36  C   UNL     1      11.511   4.873  -0.271  0.00  0.00    +0.000 A 
ATOM     37  C   UNL     1      11.370   4.152   0.900  0.00  0.00    +0.000 A 
ATOM     38  C   UNL     1      10.370   3.203   1.011  0.00  0.00    +0.000 A 
ATOM     39  C   UNL     1       9.512   2.976  -0.048  0.00  0.00    +0.003 A 
ENDBRANCH  33  34
ENDBRANCH  28  33
ENDBRANCH  25  31
ENDBRANCH  13  25
TORSDOF 5
