REMARK  Name = ZINC08831580
REMARK  10 active torsions:
REMARK  status: ('A' for Active; 'I' for Inactive)
REMARK    1  A    between atoms: C_1  and  C_2
REMARK    2  A    between atoms: C_2  and  C_3
REMARK    3  A    between atoms: C_2  and  C_4
REMARK    4  A    between atoms: C_2  and  C_5
REMARK    5  A    between atoms: C_12  and  N_16
REMARK    6  A    between atoms: C_13  and  C_14
REMARK    7  A    between atoms: N_16  and  C_17
REMARK    8  A    between atoms: C_17  and  N_19
REMARK    9  A    between atoms: C_20  and  C_22
REMARK   10  A    between atoms: C_23  and  C_24
REMARK                            x       y       z     vdW  Elec       q    Type
REMARK                         _______ _______ _______ _____ _____    ______ ____
ROOT
ATOM      1  N   UNL     1       1.520  -1.987  -0.022  0.00  0.00    -0.290 N 
ATOM      2  H   UNL     1       0.795  -2.632  -0.019  0.00  0.00    +0.154 HD
ENDROOT
BRANCH   1   9
ATOM      3  C   UNL     1       0.194   4.257  -0.357  0.00  0.00    -0.000 C 
ATOM      4  C   UNL     1      -0.953   3.697   0.488  0.00  0.00    +0.009 C 
ATOM      5  C   UNL     1      -1.295   2.279   0.033  0.00  0.00    +0.037 C 
ATOM      6  C   UNL     1      -0.018   1.448   0.010  0.00  0.00    -0.018 A 
ATOM      7  C   UNL     1       1.197   2.040   0.002  0.00  0.00    -0.004 A 
ATOM      8  S   UNL     1       2.353   0.699  -0.016  0.00  0.00    -0.077 S 
ATOM      9  C   UNL     1       1.240  -0.629  -0.013  0.00  0.00    +0.089 A 
ATOM     10  C   UNL     1       0.002  -0.004   0.002  0.00  0.00    +0.084 A 
ATOM     11  C   UNL     1       1.486   3.510   0.005  0.00  0.00    +0.047 C 
BRANCH   3  13
ATOM     12  C   UNL     1       1.524   6.302  -0.898  0.00  0.00    +0.011 C 
ATOM     13  C   UNL     1       0.366   5.749  -0.065  0.00  0.00    -0.035 C 
ATOM     14  C   UNL     1      -0.922   6.491  -0.427  0.00  0.00    +0.011 C 
ATOM     15  C   UNL     1       0.668   5.946   1.422  0.00  0.00    +0.011 C 
ENDBRANCH   3  13
BRANCH  10  16
ATOM     16  C   UNL     1      -1.212  -0.763   0.008  0.00  0.00    +0.102 C 
ATOM     17  N   UNL     1      -2.176  -1.365   0.013  0.00  0.00    -0.191 NA
ENDBRANCH  10  16
ENDBRANCH   1   9
BRANCH   1  18
ATOM     18  C   UNL     1       2.799  -2.412  -0.036  0.00  0.00    +0.141 C 
ATOM     19  S   UNL     1       4.079  -1.274  -0.042  0.00  0.00    -0.018 S 
BRANCH  18  20
ATOM     20  N   UNL     1       3.071  -3.732  -0.045  0.00  0.00    -0.264 N 
ATOM     21  C   UNL     1       4.350  -4.157  -0.059  0.00  0.00    +0.242 C 
ATOM     22  O   UNL     1       5.260  -3.348  -0.063  0.00  0.00    -0.270 OA
ATOM     23  H   UNL     1       2.346  -4.377  -0.042  0.00  0.00    +0.157 HD
BRANCH  21  24
ATOM     24  C   UNL     1       4.645  -5.589  -0.070  0.00  0.00    +0.068 C 
ATOM     25  C   UNL     1       5.926  -6.014  -0.083  0.00  0.00    +0.013 C 
BRANCH  25  26
ATOM     26  C   UNL     1       6.223  -7.455  -0.094  0.00  0.00    -0.025 A 
ATOM     27  C   UNL     1       5.180  -8.387  -0.083  0.00  0.00    +0.009 A 
ATOM     28  C   UNL     1       5.465  -9.736  -0.097  0.00  0.00    +0.020 A 
ATOM     29  C   UNL     1       6.782 -10.168  -0.112  0.00  0.00    +0.041 A 
ATOM     30  C   UNL     1       7.819  -9.251  -0.117  0.00  0.00    +0.020 A 
ATOM     31  C   UNL     1       7.549  -7.899  -0.108  0.00  0.00    +0.009 A 
ATOM     32 CL   UNL     1       7.132 -11.869  -0.123  0.00  0.00    -0.084 Cl
ENDBRANCH  25  26
ENDBRANCH  21  24
ENDBRANCH  18  20
ENDBRANCH   1  18
TORSDOF 7
