REMARK  Name = ZINC00904009
REMARK  9 active torsions:
REMARK  status: ('A' for Active; 'I' for Inactive)
REMARK    1  A    between atoms: C_1  and  C_2
REMARK    2  A    between atoms: C_4  and  N_25
REMARK    3  A    between atoms: C_6  and  C_24
REMARK    4  A    between atoms: C_7  and  O_8
REMARK    5  A    between atoms: O_8  and  C_9
REMARK    6  A    between atoms: C_9  and  C_10
REMARK    7  A    between atoms: N_12  and  N_13
REMARK    8  A    between atoms: C_14  and  C_15
REMARK    9  A    between atoms: C_17  and  O_23
REMARK                            x       y       z     vdW  Elec       q    Type
REMARK                         _______ _______ _______ _____ _____    ______ ____
ROOT
ATOM      1  C   UNL     1      -1.049   1.010   4.254  0.00  0.00    +0.270 C 
ATOM      2  O   UNL     1       0.073   1.255   4.647  0.00  0.00    -0.270 OA
ATOM      3  N   UNL     1      -2.116   1.401   4.978  0.00  0.00    -0.204 N 
ATOM      4  H   UNL     1      -3.013   1.205   4.663  0.00  0.00    +0.177 HD
ENDROOT
BRANCH   3   5
ATOM      5  N   UNL     1      -1.931   2.090   6.183  0.00  0.00    -0.188 NA
ATOM      6  C   UNL     1      -2.959   2.466   6.880  0.00  0.00    +0.139 C 
BRANCH   6   7
ATOM      7  C   UNL     1      -2.764   3.191   8.149  0.00  0.00    +0.012 A 
ATOM      8  C   UNL     1      -3.869   3.592   8.905  0.00  0.00    +0.057 A 
ATOM      9  C   UNL     1      -3.678   4.271  10.095  0.00  0.00    +0.131 A 
ATOM     10  C   UNL     1      -2.391   4.553  10.537  0.00  0.00    +0.060 A 
ATOM     11  C   UNL     1      -1.296   4.158   9.791  0.00  0.00    +0.034 A 
ATOM     12  C   UNL     1      -1.474   3.474   8.604  0.00  0.00    +0.028 A 
ATOM     13 BR   UNL     1       0.028   2.928   7.593  0.00  0.00    -0.050 Br
ATOM     14 BR   UNL     1      -2.137   5.482  12.164  0.00  0.00    -0.046 Br
BRANCH   9  15
ATOM     15  O   UNL     1      -4.751   4.663  10.832  0.00  0.00    -0.506 OA
ATOM     16  H   UNL     1      -5.043   4.008  11.481  0.00  0.00    +0.292 HD
ENDBRANCH   9  15
ENDBRANCH   6   7
ENDBRANCH   3   5
BRANCH   1  17
ATOM     17  C   UNL     1      -1.248   0.269   2.957  0.00  0.00    +0.326 C 
BRANCH  17  18
ATOM     18  O   UNL     1       0.025  -0.033   2.381  0.00  0.00    -0.482 OA
BRANCH  18  25
ATOM     19  C   UNL     1      -0.018   1.503   0.010  0.00  0.00    +0.047 C 
ATOM     20  C   UNL     1       0.002  -0.004   0.002  0.00  0.00    -0.006 A 
ATOM     21  C   UNL     1       0.006  -0.689  -1.198  0.00  0.00    +0.039 A 
ATOM     22  C   UNL     1       0.025  -2.071  -1.206  0.00  0.00    +0.127 A 
ATOM     23  C   UNL     1       0.040  -2.772  -0.014  0.00  0.00    +0.039 A 
ATOM     24  C   UNL     1       0.036  -2.092   1.188  0.00  0.00    -0.006 A 
ATOM     25  C   UNL     1       0.023  -0.705   1.199  0.00  0.00    +0.127 A 
ATOM     26  C   UNL     1       0.052  -2.856   2.487  0.00  0.00    +0.047 C 
BRANCH  22  27
ATOM     27  N   UNL     1       0.029  -2.802  -2.493  0.00  0.00    +0.056 N 
ATOM     28  O   UNL     1       0.015  -2.191  -3.536  0.00  0.00    -0.126 OA
ATOM     29  O   UNL     1       0.046  -4.011  -2.501  0.00  0.00    -0.126 OA
ENDBRANCH  22  27
ENDBRANCH  18  25
ENDBRANCH  17  18
ENDBRANCH   1  17
TORSDOF 7
