REMARK  Name = ZINC41585968
REMARK  7 active torsions:
REMARK  status: ('A' for Active; 'I' for Inactive)
REMARK    1  A    between atoms: C_1  and  O_2
REMARK    2  A    between atoms: O_2  and  C_3
REMARK    3  A    between atoms: C_6  and  C_9
REMARK    4  A    between atoms: C_15  and  O_37
REMARK    5  A    between atoms: C_16  and  C_24
REMARK    6  A    between atoms: C_19  and  C_20
REMARK    7  A    between atoms: C_24  and  N_25
REMARK                            x       y       z     vdW  Elec       q    Type
REMARK                         _______ _______ _______ _____ _____    ______ ____
ROOT
ATOM      1  C   UNL     1       2.619  -2.350  -4.468  0.00  0.00    +0.076 A 
ATOM      2  C   UNL     1       2.005  -2.335  -5.809  0.00  0.00    +0.201 A 
ATOM      3  O   UNL     1       1.113  -1.558  -6.104  0.00  0.00    -0.286 OA
ATOM      4  C   UNL     1       2.536  -3.317  -6.773  0.00  0.00    +0.065 A 
ATOM      5  C   UNL     1       1.883  -3.583  -7.976  0.00  0.00    +0.019 A 
ATOM      6  C   UNL     1       2.404  -4.504  -8.840  0.00  0.00    +0.046 A 
ATOM      7  C   UNL     1       3.581  -5.178  -8.522  0.00  0.00    +0.125 A 
ATOM      8  C   UNL     1       4.242  -4.923  -7.332  0.00  0.00    +0.051 A 
ATOM      9  C   UNL     1       3.729  -3.986  -6.445  0.00  0.00    +0.147 A 
ATOM     10  O   UNL     1       4.365  -3.715  -5.289  0.00  0.00    -0.449 OA
ATOM     11  C   UNL     1       3.770  -3.050  -4.296  0.00  0.00    +0.219 A 
ENDROOT
BRANCH   1  15
ATOM     12  C   UNL     1       0.839  -0.243  -1.229  0.00  0.00    +0.120 A 
ATOM     13  C   UNL     1       2.003   0.239  -1.813  0.00  0.00    +0.046 A 
ATOM     14  C   UNL     1       2.582  -0.442  -2.863  0.00  0.00    +0.012 A 
ATOM     15  C   UNL     1       1.998  -1.615  -3.338  0.00  0.00    -0.010 A 
ATOM     16  C   UNL     1       0.831  -2.097  -2.749  0.00  0.00    +0.012 A 
ATOM     17  C   UNL     1       0.259  -1.414  -1.696  0.00  0.00    +0.046 A 
BRANCH  12  19
ATOM     18  C   UNL     1       0.921   1.628   0.236  0.00  0.00    +0.277 C 
ATOM     19  O   UNL     1       0.271   0.430  -0.194  0.00  0.00    -0.495 OA
ENDBRANCH  12  19
ENDBRANCH   1  15
BRANCH  11  20
ATOM     20  C   UNL     1       4.399  -3.082  -2.928  0.00  0.00    +0.451 C 
ATOM     21  F   UNL     1       3.541  -2.474  -2.006  0.00  0.00    -0.163 F 
ATOM     22  F   UNL     1       4.626  -4.409  -2.549  0.00  0.00    -0.163 F 
ATOM     23  F   UNL     1       5.616  -2.391  -2.957  0.00  0.00    -0.163 F 
ENDBRANCH  11  20
BRANCH   7  24
ATOM     24  O   UNL     1       4.086  -6.094  -9.388  0.00  0.00    -0.506 OA
ATOM     25  H   UNL     1       4.702  -5.725 -10.036  0.00  0.00    +0.292 HD
ENDBRANCH   7  24
BRANCH   8  26
ATOM     26  C   UNL     1       5.513  -5.661  -7.001  0.00  0.00    +0.127 C 
BRANCH  26  27
ATOM     27  N   UNL     1       6.665  -4.907  -7.516  0.00  0.00    -0.295 NA
ATOM     28  C   UNL     1       6.806  -3.622  -6.819  0.00  0.00    +0.103 C 
ATOM     29  C   UNL     1       7.899  -2.792  -7.502  0.00  0.00    +0.122 C 
ATOM     30  N   UNL     1       9.125  -3.600  -7.571  0.00  0.00    -0.314 N 
ATOM     31  C   UNL     1       9.034  -4.957  -8.132  0.00  0.00    +0.122 C 
ATOM     32  C   UNL     1       7.897  -5.701  -7.424  0.00  0.00    +0.103 C 
ATOM     33  C   UNL     1      10.338  -3.096  -7.117  0.00  0.00    +0.099 A 
ATOM     34  C   UNL     1      11.506  -3.826  -7.315  0.00  0.00    +0.042 A 
ATOM     35  C   UNL     1      12.706  -3.313  -6.858  0.00  0.00    +0.005 A 
ATOM     36  C   UNL     1      12.698  -2.082  -6.215  0.00  0.00    +0.018 A 
ATOM     37  C   UNL     1      11.503  -1.411  -6.053  0.00  0.00    +0.084 A 
ATOM     38  N   UNL     1      10.373  -1.923  -6.504  0.00  0.00    -0.350 N 
ATOM     39  H   UNL     1       9.547  -1.429  -6.381  0.00  0.00    +0.166 HD
ENDBRANCH  26  27
ENDBRANCH   8  26
TORSDOF 6
