REMARK  Name = ZINC20693162
REMARK  8 active torsions:
REMARK  status: ('A' for Active; 'I' for Inactive)
REMARK    1  A    between atoms: C_1  and  O_2
REMARK    2  A    between atoms: O_2  and  C_3
REMARK    3  A    between atoms: C_5  and  C_10
REMARK    4  A    between atoms: C_8  and  O_9
REMARK    5  A    between atoms: C_21  and  S_26
REMARK    6  A    between atoms: S_26  and  N_29
REMARK    7  A    between atoms: N_29  and  C_30
REMARK    8  A    between atoms: C_30  and  C_31
REMARK                            x       y       z     vdW  Elec       q    Type
REMARK                         _______ _______ _______ _____ _____    ______ ____
ROOT
ATOM      1  C   UNL     1       5.107   3.325  -0.034  0.00  0.00    +0.105 C 
ATOM      2  C   UNL     1       5.003   4.796  -0.395  0.00  0.00    +0.029 C 
ATOM      3  C   UNL     1       4.042   5.656   0.437  0.00  0.00    +0.033 C 
ATOM      4  C   UNL     1       3.630   6.725  -0.576  0.00  0.00    -0.030 C 
ATOM      5  C   UNL     1       3.747   6.249  -1.810  0.00  0.00    -0.023 C 
ATOM      6  C   UNL     1       4.207   4.839  -1.734  0.00  0.00    +0.049 C 
ATOM      7  C   UNL     1       5.055   4.236  -2.785  0.00  0.00    -0.018 A 
ATOM      8  C   UNL     1       5.044   4.680  -4.089  0.00  0.00    +0.034 A 
ATOM      9  C   UNL     1       5.848   4.076  -5.038  0.00  0.00    +0.106 A 
ATOM     10  C   UNL     1       6.666   3.020  -4.680  0.00  0.00    +0.030 A 
ATOM     11  C   UNL     1       6.687   2.571  -3.376  0.00  0.00    +0.025 A 
ATOM     12  C   UNL     1       5.888   3.174  -2.413  0.00  0.00    +0.031 A 
ATOM     13  N   UNL     1       5.941   2.714  -1.092  0.00  0.00    -0.336 N 
ATOM     14  H   UNL     1       6.619   1.883  -0.847  0.00  0.00    +0.147 HD
ENDROOT
BRANCH   1  17
ATOM     15  C   UNL     1       1.725   2.128   1.152  0.00  0.00    +0.162 A 
ATOM     16  C   UNL     1       2.986   2.703   1.140  0.00  0.00    +0.054 A 
ATOM     17  C   UNL     1       3.738   2.693  -0.020  0.00  0.00    -0.023 A 
ATOM     18  C   UNL     1       3.238   2.106  -1.167  0.00  0.00    +0.009 A 
ATOM     19  C   UNL     1       1.984   1.525  -1.160  0.00  0.00    +0.049 A 
ATOM     20  C   UNL     1       1.224   1.531  -0.001  0.00  0.00    +0.158 A 
BRANCH  15  22
ATOM     21  C   UNL     1       1.559   2.771   3.436  0.00  0.00    +0.277 C 
ATOM     22  O   UNL     1       0.981   2.141   2.291  0.00  0.00    -0.491 OA
ENDBRANCH  15  22
BRANCH  20  23
ATOM     23  O   UNL     1      -0.010   0.960   0.008  0.00  0.00    -0.503 OA
ATOM     24  H   UNL     1      -0.405   0.489  -0.904  0.00  0.00    +0.292 HD
ENDBRANCH  20  23
ENDBRANCH   1  17
BRANCH   9  25
ATOM     25  S   UNL     1       5.829   4.651  -6.704  0.00  0.00    +0.059 S 
ATOM     26  O   UNL     1       5.386   6.001  -6.663  0.00  0.00    -0.153 OA
ATOM     27  O   UNL     1       7.073   4.274  -7.278  0.00  0.00    -0.153 OA
BRANCH  25  28
ATOM     28  N   UNL     1       4.660   3.794  -7.505  0.00  0.00    -0.186 NA
ATOM     29  H   UNL     1       4.960   2.998  -8.203  0.00  0.00    +0.148 HD
BRANCH  28  30
ATOM     30  C   UNL     1       3.253   3.942  -7.124  0.00  0.00    +0.132 C 
BRANCH  30  31
ATOM     31  C   UNL     1       2.376   3.368  -8.207  0.00  0.00    -0.018 C 
ATOM     32  C   UNL     1       1.492   2.447  -7.914  0.00  0.00    +0.005 C 
ENDBRANCH  30  31
ENDBRANCH  28  30
ENDBRANCH  25  28
ENDBRANCH   9  25
TORSDOF 7
