REMARK  Name = ZINC39634917
REMARK  7 active torsions:
REMARK  status: ('A' for Active; 'I' for Inactive)
REMARK    1  A    between atoms: C_1  and  O_2
REMARK    2  A    between atoms: O_2  and  C_3
REMARK    3  A    between atoms: C_6  and  C_9
REMARK    4  A    between atoms: C_9  and  C_10
REMARK    5  A    between atoms: C_10  and  N_11
REMARK    6  A    between atoms: C_12  and  C_14
REMARK    7  A    between atoms: C_25  and  C_27
REMARK                            x       y       z     vdW  Elec       q    Type
REMARK                         _______ _______ _______ _____ _____    ______ ____
ROOT
ATOM      1  C   UNL     1      -8.675  -4.564  -2.543  0.00  0.00    +0.100 C 
ATOM      2  C   UNL     1      -8.519  -6.006  -2.011  0.00  0.00    +0.121 C 
ATOM      3  N   UNL     1      -9.459  -6.810  -2.827  0.00  0.00    -0.296 N 
ATOM      4  C   UNL     1      -9.334  -6.248  -4.193  0.00  0.00    +0.115 C 
ATOM      5  C   UNL     1      -9.209  -4.727  -3.976  0.00  0.00    -0.004 C 
ATOM      6  C   UNL     1      -8.226  -4.130  -4.978  0.00  0.00    -0.010 C 
ATOM      7  C   UNL     1      -8.805  -4.252  -6.390  0.00  0.00    -0.082 C 
ATOM      8  N   UNL     1     -10.090  -3.546  -6.456  0.00  0.00    +0.379 N 
ATOM      9  C   UNL     1     -11.059  -4.186  -5.557  0.00  0.00    -0.082 C 
ATOM     10  C   UNL     1     -10.575  -4.061  -4.110  0.00  0.00    -0.010 C 
ATOM     11  C   UNL     1     -10.249  -7.823  -2.420  0.00  0.00    +0.248 C 
ATOM     12  O   UNL     1     -10.314  -8.106  -1.239  0.00  0.00    -0.270 OA
ATOM     13  H   UNL     1      -9.960  -2.585  -6.179  0.00  0.00    -0.086 HD
ATOM     14  H   UNL     1     -10.441  -3.576  -7.402  0.00  0.00    -0.086 HD
ENDROOT
BRANCH  11  15
ATOM     15  C   UNL     1     -11.037  -8.588  -3.407  0.00  0.00    +0.055 A 
ATOM     16  C   UNL     1     -10.517  -8.834  -4.680  0.00  0.00    +0.016 A 
ATOM     17  C   UNL     1     -11.257  -9.549  -5.597  0.00  0.00    +0.021 A 
ATOM     18  C   UNL     1     -12.514 -10.024  -5.260  0.00  0.00    +0.042 A 
ATOM     19  C   UNL     1     -13.036  -9.784  -4.000  0.00  0.00    +0.040 A 
ATOM     20  C   UNL     1     -12.302  -9.075  -3.070  0.00  0.00    +0.054 A 
ATOM     21 CL   UNL     1     -12.955  -8.781  -1.488  0.00  0.00    -0.083 Cl
ATOM     22 CL   UNL     1     -13.439 -10.923  -6.422  0.00  0.00    -0.083 Cl
ENDBRANCH  11  15
BRANCH   1  24
ATOM     23  N   UNL     1      -7.289  -2.516  -2.578  0.00  0.00    -0.315 N 
ATOM     24  C   UNL     1      -7.342  -3.862  -2.557  0.00  0.00    +0.218 C 
ATOM     25  O   UNL     1      -6.316  -4.509  -2.549  0.00  0.00    -0.275 OA
ATOM     26  H   UNL     1      -8.109  -1.998  -2.584  0.00  0.00    +0.149 HD
BRANCH  23  27
ATOM     27  C   UNL     1      -5.992  -1.834  -2.591  0.00  0.00    +0.109 C 
BRANCH  27  28
ATOM     28  C   UNL     1      -6.212  -0.320  -2.614  0.00  0.00    +0.054 C 
BRANCH  28  32
ATOM     29  C   UNL     1      -2.430   1.670  -2.653  0.00  0.00    +0.120 A 
ATOM     30  C   UNL     1      -3.048   1.328  -3.847  0.00  0.00    +0.046 A 
ATOM     31  C   UNL     1      -4.270   0.684  -3.832  0.00  0.00    +0.007 A 
ATOM     32  C   UNL     1      -4.878   0.382  -2.627  0.00  0.00    -0.046 A 
ATOM     33  C   UNL     1      -4.265   0.722  -1.436  0.00  0.00    +0.007 A 
ATOM     34  C   UNL     1      -3.040   1.360  -1.446  0.00  0.00    +0.046 A 
BRANCH  29  36
ATOM     35  C   UNL     1      -0.659   2.590  -3.944  0.00  0.00    +0.277 C 
ATOM     36  O   UNL     1      -1.228   2.302  -2.665  0.00  0.00    -0.495 OA
ENDBRANCH  29  36
ENDBRANCH  28  32
ENDBRANCH  27  28
ENDBRANCH  23  27
ENDBRANCH   1  24
TORSDOF 6
