REMARK  Name = ZINC13031619
REMARK  9 active torsions:
REMARK  status: ('A' for Active; 'I' for Inactive)
REMARK    1  A    between atoms: C_1  and  C_2
REMARK    2  A    between atoms: C_2  and  O_3
REMARK    3  A    between atoms: O_3  and  C_4
REMARK    4  A    between atoms: C_4  and  C_6
REMARK    5  A    between atoms: C_7  and  C_36
REMARK    6  A    between atoms: C_13  and  C_17
REMARK    7  A    between atoms: C_17  and  C_19
REMARK    8  A    between atoms: C_17  and  N_20
REMARK    9  A    between atoms: C_24  and  C_26
REMARK                            x       y       z     vdW  Elec       q    Type
REMARK                         _______ _______ _______ _____ _____    ______ ____
ROOT
ATOM      1  C   UNL     1       1.449  -2.344  -2.516  0.00  0.00    +0.102 A 
ATOM      2  C   UNL     1       1.649  -3.651  -2.857  0.00  0.00    -0.015 A 
ATOM      3  C   UNL     1       2.321  -3.966  -4.039  0.00  0.00    +0.076 A 
ATOM      4  C   UNL     1       2.648  -5.295  -4.604  0.00  0.00    +0.260 A 
ATOM      5  O   UNL     1       2.325  -6.317  -4.025  0.00  0.00    -0.267 OA
ATOM      6  N   UNL     1       3.313  -5.345  -5.775  0.00  0.00    -0.309 N 
ATOM      7  H   UNL     1       3.536  -6.207  -6.159  0.00  0.00    +0.170 HD
ATOM      8  C   UNL     1       3.678  -4.214  -6.428  0.00  0.00    +0.128 A 
ATOM      9  N   UNL     1       3.405  -3.027  -5.958  0.00  0.00    -0.225 NA
ATOM     10  C   UNL     1       2.755  -2.865  -4.813  0.00  0.00    +0.116 A 
ATOM     11  S   UNL     1       2.205  -1.464  -3.872  0.00  0.00    -0.062 S 
ATOM     12  C   UNL     1       1.145  -4.751  -1.958  0.00  0.00    +0.046 C 
ENDROOT
BRANCH   1  13
ATOM     13  C   UNL     1       0.776  -1.800  -1.335  0.00  0.00    +0.346 C 
ATOM     14  O   UNL     1       0.312  -2.552  -0.499  0.00  0.00    -0.244 OA
BRANCH  13  15
ATOM     15  O   UNL     1       0.671  -0.465  -1.174  0.00  0.00    -0.461 OA
BRANCH  15  17
ATOM     16  C   UNL     1      -0.019   1.526   0.010  0.00  0.00    +0.048 C 
ATOM     17  C   UNL     1       0.002  -0.004   0.002  0.00  0.00    +0.229 C 
ENDBRANCH  15  17
ENDBRANCH  13  15
ENDBRANCH   1  13
BRANCH   8  18
ATOM     18  C   UNL     1       4.420  -4.331  -7.734  0.00  0.00    +0.120 C 
ATOM     19  C   UNL     1       3.616  -5.201  -8.702  0.00  0.00    +0.032 C 
BRANCH  18  20
ATOM     20  N   UNL     1       4.603  -2.994  -8.314  0.00  0.00    -0.286 NA
ATOM     21  C   UNL     1       5.361  -2.117  -7.396  0.00  0.00    +0.086 C 
ATOM     22  C   UNL     1       6.820  -2.168  -7.915  0.00  0.00    +0.017 C 
ATOM     23  C   UNL     1       6.605  -2.216  -9.450  0.00  0.00    +0.025 C 
ATOM     24  C   UNL     1       5.328  -3.069  -9.596  0.00  0.00    +0.088 C 
BRANCH  24  25
ATOM     25  C   UNL     1       4.468  -2.518 -10.704  0.00  0.00    -0.027 A 
ATOM     26  C   UNL     1       3.700  -1.390 -10.486  0.00  0.00    +0.009 A 
ATOM     27  C   UNL     1       2.908  -0.882 -11.499  0.00  0.00    +0.050 A 
ATOM     28  C   UNL     1       2.883  -1.505 -12.738  0.00  0.00    +0.162 A 
ATOM     29  C   UNL     1       3.657  -2.638 -12.959  0.00  0.00    +0.162 A 
ATOM     30  C   UNL     1       4.452  -3.139 -11.939  0.00  0.00    +0.054 A 
ATOM     31  O   UNL     1       3.652  -3.260 -14.170  0.00  0.00    -0.485 OA
ATOM     32  C   UNL     1       2.568  -2.946 -15.050  0.00  0.00    +0.270 C 
ATOM     33  C   UNL     1       2.383  -1.423 -15.062  0.00  0.00    +0.270 C 
ATOM     34  O   UNL     1       2.095  -0.996 -13.725  0.00  0.00    -0.485 OA
ENDBRANCH  24  25
ENDBRANCH  18  20
ENDBRANCH   8  18
TORSDOF 6
