REMARK  Name = ZINC39686577
REMARK  9 active torsions:
REMARK  status: ('A' for Active; 'I' for Inactive)
REMARK    1  A    between atoms: C_1  and  C_2
REMARK    2  A    between atoms: C_6  and  C_9
REMARK    3  A    between atoms: C_13  and  C_22
REMARK    4  A    between atoms: N_24  and  C_25
REMARK    5  A    between atoms: C_25  and  C_27
REMARK    6  A    between atoms: C_25  and  C_28
REMARK    7  A    between atoms: C_28  and  C_29
REMARK    8  A    between atoms: C_34  and  O_35
REMARK    9  A    between atoms: O_35  and  C_36
REMARK                            x       y       z     vdW  Elec       q    Type
REMARK                         _______ _______ _______ _____ _____    ______ ____
ROOT
ATOM      1  C   UNL     1      -1.081  -2.203   0.840  0.00  0.00    +0.251 C 
ATOM      2  O   UNL     1       0.117  -2.211   1.044  0.00  0.00    -0.270 OA
ATOM      3  N   UNL     1      -1.923  -2.742   1.744  0.00  0.00    -0.296 N 
ATOM      4  C   UNL     1      -3.400  -2.833   1.669  0.00  0.00    +0.121 C 
ATOM      5  C   UNL     1      -3.735  -4.226   2.246  0.00  0.00    +0.100 C 
ATOM      6  C   UNL     1      -2.538  -4.578   3.145  0.00  0.00    -0.004 C 
ATOM      7  C   UNL     1      -1.579  -3.384   3.036  0.00  0.00    +0.115 C 
ATOM      8  C   UNL     1      -1.853  -5.845   2.641  0.00  0.00    -0.010 C 
ATOM      9  C   UNL     1      -0.701  -6.205   3.583  0.00  0.00    -0.082 C 
ATOM     10  N   UNL     1      -1.223  -6.414   4.939  0.00  0.00    +0.379 N 
ATOM     11  C   UNL     1      -1.798  -5.164   5.452  0.00  0.00    -0.082 C 
ATOM     12  C   UNL     1      -2.996  -4.759   4.588  0.00  0.00    -0.010 C 
ATOM     13  H   UNL     1      -1.936  -7.127   4.918  0.00  0.00    -0.086 HD
ATOM     14  H   UNL     1      -0.473  -6.711   5.545  0.00  0.00    -0.086 HD
ENDROOT
BRANCH   1  20
ATOM     15  C   UNL     1      -2.828   1.764  -1.639  0.00  0.00    +0.047 C 
ATOM     16  C   UNL     1      -2.457   0.304  -1.599  0.00  0.00    -0.014 A 
ATOM     17  C   UNL     1      -2.617  -0.480  -2.727  0.00  0.00    +0.007 A 
ATOM     18  C   UNL     1      -2.280  -1.821  -2.700  0.00  0.00    +0.021 A 
ATOM     19  C   UNL     1      -1.780  -2.389  -1.544  0.00  0.00    +0.056 A 
ATOM     20  C   UNL     1      -1.615  -1.604  -0.400  0.00  0.00    +0.091 A 
ATOM     21  C   UNL     1      -1.953  -0.247  -0.436  0.00  0.00    +0.140 A 
ATOM     22  F   UNL     1      -1.792   0.521   0.664  0.00  0.00    -0.204 F 
ATOM     23 CL   UNL     1      -1.359  -4.073  -1.514  0.00  0.00    -0.083 Cl
ENDBRANCH   1  20
BRANCH   5  24
ATOM     24  C   UNL     1      -3.873  -5.234   1.134  0.00  0.00    +0.218 C 
ATOM     25  O   UNL     1      -3.161  -5.159   0.155  0.00  0.00    -0.275 OA
ATOM     26  N   UNL     1      -4.788  -6.220   1.228  0.00  0.00    -0.312 N 
ATOM     27  H   UNL     1      -5.407  -6.238   1.974  0.00  0.00    +0.149 HD
BRANCH  26  28
ATOM     28  C   UNL     1      -4.848  -7.264   0.201  0.00  0.00    +0.074 C 
ATOM     29  C   UNL     1      -5.672  -6.764  -0.987  0.00  0.00    +0.028 C 
BRANCH  28  30
ATOM     30  C   UNL     1      -5.503  -8.517   0.786  0.00  0.00    +0.060 C 
BRANCH  30  31
ATOM     31  C   UNL     1      -4.620  -9.089   1.865  0.00  0.00    -0.004 A 
ATOM     32  C   UNL     1      -3.674 -10.045   1.549  0.00  0.00    +0.007 A 
ATOM     33  C   UNL     1      -2.864 -10.570   2.538  0.00  0.00    +0.000 A 
ATOM     34  C   UNL     1      -2.998 -10.141   3.846  0.00  0.00    +0.004 A 
ATOM     35  C   UNL     1      -3.942  -9.185   4.167  0.00  0.00    +0.046 A 
ATOM     36  C   UNL     1      -4.753  -8.652   3.175  0.00  0.00    +0.123 A 
BRANCH  36  37
ATOM     37  O   UNL     1      -5.679  -7.707   3.486  0.00  0.00    -0.495 OA
ATOM     38  C   UNL     1      -5.849  -7.398   4.871  0.00  0.00    +0.277 C 
ENDBRANCH  36  37
ENDBRANCH  30  31
ENDBRANCH  28  30
ENDBRANCH  26  28
ENDBRANCH   5  24
TORSDOF 6
