REMARK  Name = ZINC38015925
REMARK  6 active torsions:
REMARK  status: ('A' for Active; 'I' for Inactive)
REMARK    1  A    between atoms: C_1  and  C_2
REMARK    2  A    between atoms: C_2  and  N_3
REMARK    3  A    between atoms: N_3  and  C_4
REMARK    4  A    between atoms: C_4  and  C_5
REMARK    5  A    between atoms: C_8  and  C_10
REMARK    6  A    between atoms: C_17  and  C_20
REMARK                            x       y       z     vdW  Elec       q    Type
REMARK                         _______ _______ _______ _____ _____    ______ ____
ROOT
ATOM      1  C   UNL     1      -1.808  -0.378   2.571  0.00  0.00    +0.075 A 
ATOM      2  C   UNL     1      -2.538  -0.405   3.745  0.00  0.00    +0.024 A 
ATOM      3  C   UNL     1      -1.869  -0.053   4.907  0.00  0.00    -0.036 A 
ATOM      4  C   UNL     1      -0.554   0.287   4.778  0.00  0.00    -0.006 A 
ATOM      5  S   UNL     1      -0.202   0.136   3.152  0.00  0.00    -0.088 S 
ATOM      6  C   UNL     1       0.378   0.703   5.878  0.00  0.00    +0.043 C 
ATOM      7  C   UNL     1      -0.458   1.055   7.115  0.00  0.00    +0.009 C 
ATOM      8  C   UNL     1      -1.472  -0.066   7.360  0.00  0.00    -0.009 C 
ATOM      9  C   UNL     1      -2.548  -0.039   6.274  0.00  0.00    +0.039 C 
ATOM     10  C   UNL     1      -2.128   0.132   8.728  0.00  0.00    +0.008 C 
ENDROOT
BRANCH   1  12
ATOM     11  N   UNL     1      -1.388  -0.529   0.175  0.00  0.00    -0.287 N 
ATOM     12  C   UNL     1      -2.239  -0.696   1.207  0.00  0.00    +0.254 C 
ATOM     13  O   UNL     1      -3.366  -1.110   1.006  0.00  0.00    -0.269 OA
BRANCH  11  15
ATOM     14  C   UNL     1      -1.542  -2.155  -1.645  0.00  0.00    +0.024 C 
ATOM     15  C   UNL     1      -1.855  -0.726  -1.199  0.00  0.00    +0.105 C 
ENDBRANCH  11  15
BRANCH  11  16
ATOM     16  C   UNL     1       0.005  -0.152   0.428  0.00  0.00    +0.233 C 
BRANCH  16  17
ATOM     17  C   UNL     1       0.098   1.342   0.597  0.00  0.00    +0.373 C 
ATOM     18  O   UNL     1      -0.906   2.029   0.514  0.00  0.00    -0.245 OA
ATOM     19  O   UNL     1       1.177   1.865   0.817  0.00  0.00    -0.245 OA
ENDBRANCH  16  17
ENDBRANCH  11  16
ENDBRANCH   1  12
TORSDOF 4
