REMARK  Name = ZINC12659579
REMARK  11 active torsions:
REMARK  status: ('A' for Active; 'I' for Inactive)
REMARK    1  A    between atoms: C_1  and  C_2
REMARK    2  A    between atoms: C_2  and  C_4
REMARK    3  A    between atoms: C_4  and  O_40
REMARK    4  A    between atoms: C_9  and  C_39
REMARK    5  A    between atoms: N_21  and  O_22
REMARK    6  A    between atoms: O_22  and  C_23
REMARK    7  A    between atoms: C_23  and  C_24
REMARK    8  A    between atoms: N_26  and  C_27
REMARK    9  A    between atoms: C_27  and  C_28
REMARK   10  A    between atoms: C_28  and  C_29
REMARK   11  A    between atoms: C_37  and  C_38
REMARK                            x       y       z     vdW  Elec       q    Type
REMARK                         _______ _______ _______ _____ _____    ______ ____
ROOT
ATOM      1  C   UNL     1      -5.841   4.829  -2.336  0.00  0.00    +0.129 C 
ATOM      2  C   UNL     1      -6.982   3.831  -2.066  0.00  0.00    +0.043 C 
ATOM      3  C   UNL     1      -6.755   2.635  -3.009  0.00  0.00    +0.008 C 
ATOM      4  C   UNL     1      -5.235   2.647  -3.322  0.00  0.00    +0.002 C 
ATOM      5  C   UNL     1      -4.861   4.128  -3.282  0.00  0.00    +0.007 C 
ATOM      6  C   UNL     1      -3.416   4.421  -2.965  0.00  0.00    +0.010 C 
ATOM      7  C   UNL     1      -2.843   3.546  -1.854  0.00  0.00    +0.005 C 
ATOM      8  C   UNL     1      -3.034   2.079  -2.250  0.00  0.00    +0.002 C 
ATOM      9  C   UNL     1      -4.532   1.790  -2.273  0.00  0.00    -0.003 C 
ATOM     10  C   UNL     1      -5.138   2.005  -0.890  0.00  0.00    +0.008 C 
ATOM     11  C   UNL     1      -4.506   1.028   0.106  0.00  0.00    +0.031 C 
ATOM     12  C   UNL     1      -2.999   1.181   0.063  0.00  0.00    -0.062 C 
ATOM     13  C   UNL     1      -2.358   1.316   1.217  0.00  0.00    +0.026 C 
ATOM     14  C   UNL     1      -0.887   1.314   1.268  0.00  0.00    +0.080 C 
ATOM     15  N   UNL     1      -0.252   1.653   2.349  0.00  0.00    -0.089 NA
ATOM     16  C   UNL     1      -0.144   0.903   0.015  0.00  0.00    +0.059 C 
ATOM     17  C   UNL     1      -0.838   1.543  -1.186  0.00  0.00    +0.017 C 
ATOM     18  C   UNL     1      -2.307   1.162  -1.266  0.00  0.00    -0.007 C 
ATOM     19  C   UNL     1      -2.373  -0.268  -1.813  0.00  0.00    +0.016 C 
ATOM     20  C   UNL     1      -5.123   4.701  -4.694  0.00  0.00    +0.015 C 
ENDROOT
BRANCH   1  22
ATOM     21  C   UNL     1      -5.672   7.379  -2.891  0.00  0.00    +0.089 C 
ATOM     22  C   UNL     1      -6.399   6.064  -3.009  0.00  0.00    +0.162 C 
ATOM     23  O   UNL     1      -7.426   5.996  -3.640  0.00  0.00    -0.295 OA
ENDBRANCH   1  22
BRANCH   1  24
ATOM     24  O   UNL     1      -5.201   5.203  -1.117  0.00  0.00    -0.381 OA
ATOM     25  H   UNL     1      -5.785   5.646  -0.486  0.00  0.00    +0.211 HD
ENDBRANCH   1  24
BRANCH  15  26
ATOM     26  O   UNL     1      -0.974   2.033   3.506  0.00  0.00    -0.384 OA
BRANCH  26  27
ATOM     27  C   UNL     1      -0.148   2.381   4.619  0.00  0.00    +0.358 C 
BRANCH  27  28
ATOM     28  C   UNL     1      -1.017   2.766   5.788  0.00  0.00    +0.253 C 
ATOM     29  O   UNL     1      -2.224   2.745   5.679  0.00  0.00    -0.272 OA
ATOM     30  N   UNL     1      -0.452   3.134   6.955  0.00  0.00    -0.312 N 
ATOM     31  H   UNL     1       0.514   3.151   7.042  0.00  0.00    +0.149 HD
BRANCH  30  32
ATOM     32  C   UNL     1      -1.296   3.509   8.092  0.00  0.00    +0.110 C 
BRANCH  32  33
ATOM     33  C   UNL     1      -0.412   3.881   9.284  0.00  0.00    +0.075 C 
BRANCH  33  34
ATOM     34  C   UNL     1      -1.280   4.266  10.453  0.00  0.00    +0.060 A 
ATOM     35  C   UNL     1      -1.240   3.720  11.684  0.00  0.00    +0.107 A 
ATOM     36  N   UNL     1      -2.188   4.361  12.434  0.00  0.00    -0.351 N 
ATOM     37  H   UNL     1      -2.401   4.188  13.395  0.00  0.00    +0.166 HD
ATOM     38  C   UNL     1      -2.782   5.272  11.633  0.00  0.00    +0.196 A 
ATOM     39  N   UNL     1      -2.234   5.209  10.450  0.00  0.00    -0.241 NA
ENDBRANCH  33  34
ENDBRANCH  32  33
ENDBRANCH  30  32
ENDBRANCH  27  28
ENDBRANCH  26  27
ENDBRANCH  15  26
TORSDOF 8
