REMARK  Name = ZINC67488144
REMARK  5 active torsions:
REMARK  status: ('A' for Active; 'I' for Inactive)
REMARK    1  A    between atoms: C_6  and  C_7
REMARK    2  A    between atoms: C_7  and  C_8
REMARK    3  A    between atoms: C_8  and  C_10
REMARK    4  A    between atoms: C_8  and  N_16
REMARK    5  A    between atoms: C_23  and  C_26
REMARK                            x       y       z     vdW  Elec       q    Type
REMARK                         _______ _______ _______ _____ _____    ______ ____
ROOT
ATOM      1  C   UNL     1      -1.752  -1.030  -1.429  0.00  0.00    +0.082 C 
ENDROOT
BRANCH   1   2
ATOM      2  N   UNL     1      -2.059   0.249  -2.074  0.00  0.00    -0.296 N 
ATOM      3  C   UNL     1      -1.988   0.362  -3.415  0.00  0.00    +0.303 C 
ATOM      4  O   UNL     1      -1.576  -0.567  -4.082  0.00  0.00    -0.253 OA
ATOM      5  N   UNL     1      -2.373   1.506  -4.016  0.00  0.00    -0.281 N 
ATOM      6  C   UNL     1      -2.413   1.613  -5.483  0.00  0.00    +0.137 C 
ATOM      7  C   UNL     1      -3.784   2.165  -5.890  0.00  0.00    +0.180 C 
ATOM      8  O   UNL     1      -4.045   3.365  -5.157  0.00  0.00    -0.364 OA
ATOM      9  C   UNL     1      -4.119   3.183  -3.741  0.00  0.00    +0.221 C 
ATOM     10  C   UNL     1      -2.771   2.681  -3.225  0.00  0.00    +0.150 C 
ATOM     11  H   UNL     1      -2.313   1.015  -1.535  0.00  0.00    +0.151 HD
BRANCH   9  12
ATOM     12  C   UNL     1      -4.457   4.495  -3.082  0.00  0.00    +0.241 C 
ATOM     13  O   UNL     1      -4.530   5.507  -3.746  0.00  0.00    -0.273 OA
ATOM     14  N   UNL     1      -4.680   4.543  -1.753  0.00  0.00    -0.327 N 
ATOM     15  H   UNL     1      -4.622   3.734  -1.222  0.00  0.00    +0.145 HD
ATOM     16  H   UNL     1      -4.898   5.388  -1.329  0.00  0.00    +0.145 HD
ENDBRANCH   9  12
ENDBRANCH   1   2
BRANCH   1  17
ATOM     17  C   UNL     1      -3.003  -1.911  -1.423  0.00  0.00    +0.010 C 
ATOM     18  C   UNL     1      -2.683  -3.247  -0.750  0.00  0.00    +0.005 C 
ATOM     19  C   UNL     1      -3.933  -4.128  -0.744  0.00  0.00    +0.000 C 
ATOM     20  C   UNL     1      -4.388  -4.378  -2.183  0.00  0.00    +0.000 C 
ATOM     21  C   UNL     1      -4.709  -3.042  -2.856  0.00  0.00    +0.000 C 
ATOM     22  C   UNL     1      -3.458  -2.161  -2.862  0.00  0.00    +0.005 C 
ENDBRANCH   1  17
BRANCH   1  23
ATOM     23  C   UNL     1      -1.297  -0.780   0.010  0.00  0.00    +0.057 C 
BRANCH  23  29
ATOM     24  C   UNL     1      -0.009   1.366   0.009  0.00  0.00    +0.005 A 
ATOM     25  C   UNL     1       1.183   2.067   0.001  0.00  0.00    +0.020 A 
ATOM     26  C   UNL     1       2.386   1.385  -0.015  0.00  0.00    +0.041 A 
ATOM     27  C   UNL     1       2.396   0.001  -0.023  0.00  0.00    +0.020 A 
ATOM     28  C   UNL     1       1.204  -0.699  -0.015  0.00  0.00    +0.005 A 
ATOM     29  C   UNL     1       0.002  -0.016   0.001  0.00  0.00    -0.046 A 
ATOM     30 CL   UNL     1       3.883   2.264  -0.026  0.00  0.00    -0.084 Cl
ENDBRANCH  23  29
ENDBRANCH   1  23
TORSDOF 5
