REMARK  Name = ZINC39880133
REMARK  14 active torsions:
REMARK  status: ('A' for Active; 'I' for Inactive)
REMARK    1  A    between atoms: C_1  and  C_2
REMARK    2  A    between atoms: C_2  and  C_3
REMARK    3  A    between atoms: C_6  and  N_9
REMARK    4  A    between atoms: C_10  and  C_26
REMARK    5  A    between atoms: C_17  and  C_25
REMARK    6  A    between atoms: C_29  and  O_35
REMARK    7  A    between atoms: C_30  and  O_32
REMARK    8  A    between atoms: O_32  and  C_33
REMARK    9  A    between atoms: C_33  and  C_34
REMARK   10  A    between atoms: O_35  and  C_36
REMARK   11  A    between atoms: C_36  and  C_37
REMARK   12  A    between atoms: C_37  and  C_38
REMARK   13  A    between atoms: C_38  and  C_39
REMARK   14  A    between atoms: C_38  and  C_40
REMARK                            x       y       z     vdW  Elec       q    Type
REMARK                         _______ _______ _______ _____ _____    ______ ____
ROOT
ATOM      1  N   UNL     1      -5.319  -1.967   0.042  0.00  0.00    -0.253 N 
ATOM      2  C   UNL     1      -6.138  -2.271  -1.143  0.00  0.00    +0.150 C 
ATOM      3  C   UNL     1      -7.450  -2.753  -0.618  0.00  0.00    +0.072 A 
ATOM      4  C   UNL     1      -8.666  -3.192  -1.311  0.00  0.00    +0.199 A 
ATOM      5  O   UNL     1      -8.714  -3.389  -2.512  0.00  0.00    -0.287 OA
ATOM      6  C   UNL     1      -9.832  -3.373  -0.409  0.00  0.00    +0.065 A 
ATOM      7  C   UNL     1     -11.104  -3.592  -0.936  0.00  0.00    +0.018 A 
ATOM      8  C   UNL     1     -12.168  -3.752  -0.093  0.00  0.00    -0.050 A 
ATOM      9  C   UNL     1     -11.985  -3.696   1.282  0.00  0.00    +0.007 A 
ATOM     10  C   UNL     1     -10.735  -3.482   1.819  0.00  0.00    +0.047 A 
ATOM     11  C   UNL     1      -9.633  -3.318   0.980  0.00  0.00    +0.139 A 
ATOM     12  O   UNL     1      -8.413  -3.118   1.529  0.00  0.00    -0.450 OA
ATOM     13  C   UNL     1      -7.386  -2.733   0.747  0.00  0.00    +0.199 A 
ATOM     14  C   UNL     1      -6.053  -2.244   1.139  0.00  0.00    +0.287 C 
ATOM     15  O   UNL     1      -5.672  -2.107   2.285  0.00  0.00    -0.266 OA
ATOM     16  C   UNL     1     -13.545  -3.991  -0.657  0.00  0.00    +0.044 C 
ENDROOT
BRANCH   1  20
ATOM     17  C   UNL     1      -1.412  -0.526   0.013  0.00  0.00    -0.048 A 
ATOM     18  C   UNL     1      -2.050  -0.765   1.216  0.00  0.00    +0.005 A 
ATOM     19  C   UNL     1      -3.345  -1.244   1.230  0.00  0.00    +0.024 A 
ATOM     20  C   UNL     1      -4.008  -1.483   0.032  0.00  0.00    +0.038 A 
ATOM     21  C   UNL     1      -3.364  -1.241  -1.175  0.00  0.00    +0.024 A 
ATOM     22  C   UNL     1      -2.070  -0.758  -1.181  0.00  0.00    +0.005 A 
BRANCH  17  24
ATOM     23  C   UNL     1      -0.019   1.526   0.010  0.00  0.00    +0.009 C 
ATOM     24  C   UNL     1       0.002  -0.004   0.002  0.00  0.00    +0.032 C 
ENDBRANCH  17  24
ENDBRANCH   1  20
BRANCH   2  25
ATOM     25  C   UNL     1      -6.333  -1.028  -1.972  0.00  0.00    -0.018 A 
ATOM     26  C   UNL     1      -6.554   0.188  -1.352  0.00  0.00    +0.009 A 
ATOM     27  C   UNL     1      -6.734   1.331  -2.108  0.00  0.00    +0.050 A 
ATOM     28  C   UNL     1      -6.691   1.260  -3.491  0.00  0.00    +0.162 A 
ATOM     29  C   UNL     1      -6.468   0.037  -4.116  0.00  0.00    +0.162 A 
ATOM     30  C   UNL     1      -6.285  -1.105  -3.352  0.00  0.00    +0.055 A 
BRANCH  29  31
ATOM     31  O   UNL     1      -6.426  -0.038  -5.473  0.00  0.00    -0.489 OA
BRANCH  31  32
ATOM     32  C   UNL     1      -6.193  -1.327  -6.045  0.00  0.00    +0.226 C 
ATOM     33  C   UNL     1      -6.180  -1.213  -7.571  0.00  0.00    +0.048 C 
ENDBRANCH  31  32
ENDBRANCH  29  31
BRANCH  28  34
ATOM     34  O   UNL     1      -6.868   2.383  -4.237  0.00  0.00    -0.488 OA
BRANCH  34  35
ATOM     35  C   UNL     1      -7.093   3.604  -3.528  0.00  0.00    +0.229 C 
BRANCH  35  36
ATOM     36  C   UNL     1      -7.268   4.749  -4.527  0.00  0.00    +0.044 C 
BRANCH  36  37
ATOM     37  C   UNL     1      -7.509   6.056  -3.769  0.00  0.00    -0.014 C 
ATOM     38  C   UNL     1      -6.261   6.412  -2.959  0.00  0.00    +0.007 C 
ATOM     39  C   UNL     1      -7.808   7.177  -4.766  0.00  0.00    +0.007 C 
ENDBRANCH  36  37
ENDBRANCH  35  36
ENDBRANCH  34  35
ENDBRANCH  28  34
ENDBRANCH   2  25
TORSDOF 9
