REMARK  Name = ZINC39710331
REMARK  13 active torsions:
REMARK  status: ('A' for Active; 'I' for Inactive)
REMARK    1  A    between atoms: C_1  and  C_2
REMARK    2  A    between atoms: C_9  and  C_14
REMARK    3  A    between atoms: C_14  and  C_16
REMARK    4  A    between atoms: C_14  and  N_26
REMARK    5  A    between atoms: N_21  and  C_22
REMARK    6  A    between atoms: C_22  and  C_23
REMARK    7  A    between atoms: C_22  and  C_24
REMARK    8  A    between atoms: C_22  and  C_25
REMARK    9  A    between atoms: N_26  and  C_27
REMARK   10  A    between atoms: N_26  and  C_35
REMARK   11  A    between atoms: C_27  and  C_28
REMARK   12  A    between atoms: C_28  and  C_29
REMARK   13  A    between atoms: C_35  and  C_36
REMARK                            x       y       z     vdW  Elec       q    Type
REMARK                         _______ _______ _______ _____ _____    ______ ____
ROOT
ATOM      1  C   UNL     1       1.343  -4.870   2.963  0.00  0.00    +0.115 C 
ENDROOT
BRANCH   1  10
ATOM      2  C   UNL     1       0.794   2.033   1.215  0.00  0.00    +0.044 C 
ATOM      3  C   UNL     1       0.512   0.567   1.012  0.00  0.00    -0.050 A 
ATOM      4  C   UNL     1       0.159   0.108  -0.258  0.00  0.00    +0.005 A 
ATOM      5  C   UNL     1      -0.109  -1.198  -0.517  0.00  0.00    +0.024 A 
ATOM      6  C   UNL     1      -0.039  -2.159   0.508  0.00  0.00    +0.040 A 
ATOM      7  N   UNL     1      -0.304  -3.438   0.242  0.00  0.00    -0.284 N 
ATOM      8  C   UNL     1      -0.257  -4.391   1.157  0.00  0.00    +0.226 C 
ATOM      9  O   UNL     1      -0.508  -5.542   0.855  0.00  0.00    -0.275 OA
ATOM     10  C   UNL     1       0.112  -4.044   2.582  0.00  0.00    +0.119 C 
ATOM     11  C   UNL     1       0.415  -2.591   2.890  0.00  0.00    -0.003 C 
ATOM     12  C   UNL     1       0.332  -1.703   1.859  0.00  0.00    -0.007 A 
ATOM     13  C   UNL     1       0.613  -0.282   2.067  0.00  0.00    +0.012 A 
ATOM     14  H   UNL     1      -0.542  -3.681  -0.666  0.00  0.00    +0.155 HD
ENDBRANCH   1  10
BRANCH   1  15
ATOM     15  C   UNL     1       1.084  -6.345   2.651  0.00  0.00    +0.236 C 
ATOM     16  N   UNL     1      -0.117  -6.815   3.354  0.00  0.00    -0.148 NA
ATOM     17  N   UNL     1       0.202  -7.724   4.124  0.00  0.00    -0.069 NA
ATOM     18  N   UNL     1       1.565  -8.013   4.087  0.00  0.00    -0.179 N 
ATOM     19  N   UNL     1       2.179  -7.185   3.180  0.00  0.00    -0.179 NA
ATOM     20  H   UNL     1       2.010  -8.693   4.617  0.00  0.00    +0.191 HD
BRANCH  19  21
ATOM     21  C   UNL     1       2.817  -7.957   2.106  0.00  0.00    +0.035 C 
ATOM     22  C   UNL     1       3.318  -7.003   1.020  0.00  0.00    +0.029 C 
ATOM     23  C   UNL     1       3.998  -8.745   2.676  0.00  0.00    +0.029 C 
ATOM     24  C   UNL     1       1.800  -8.928   1.502  0.00  0.00    +0.029 C 
ENDBRANCH  19  21
ENDBRANCH   1  15
BRANCH   1  25
ATOM     25  N   UNL     1       2.503  -4.403   2.192  0.00  0.00    -0.290 NA
BRANCH  25  26
ATOM     26  C   UNL     1       3.092  -3.203   2.802  0.00  0.00    +0.090 C 
BRANCH  26  27
ATOM     27  C   UNL     1       3.885  -3.601   4.048  0.00  0.00    +0.050 C 
BRANCH  27  28
ATOM     28  C   UNL     1       4.387  -2.361   4.741  0.00  0.00    -0.046 A 
ATOM     29  C   UNL     1       5.619  -1.831   4.404  0.00  0.00    +0.003 A 
ATOM     30  C   UNL     1       6.080  -0.694   5.039  0.00  0.00    +0.000 A 
ATOM     31  C   UNL     1       5.309  -0.085   6.012  0.00  0.00    +0.000 A 
ATOM     32  C   UNL     1       4.077  -0.614   6.349  0.00  0.00    +0.000 A 
ATOM     33  C   UNL     1       3.614  -1.749   5.711  0.00  0.00    +0.003 A 
ENDBRANCH  27  28
ENDBRANCH  26  27
ENDBRANCH  25  26
BRANCH  25  34
ATOM     34  C   UNL     1       2.140  -4.157   0.790  0.00  0.00    +0.127 C 
BRANCH  34  35
ATOM     35  C   UNL     1       3.390  -3.937  -0.022  0.00  0.00    +0.004 A 
ATOM     36  C   UNL     1       4.096  -4.829  -0.760  0.00  0.00    +0.012 A 
ATOM     37  C   UNL     1       5.225  -4.398  -1.431  0.00  0.00    +0.008 A 
ATOM     38  C   UNL     1       5.593  -3.097  -1.331  0.00  0.00    +0.045 A 
ATOM     39  S   UNL     1       4.321  -2.434  -0.269  0.00  0.00    -0.100 S 
ENDBRANCH  34  35
ENDBRANCH  25  34
ENDBRANCH   1  25
TORSDOF 9
