REMARK  Name = ZINC47163351
REMARK  5 active torsions:
REMARK  status: ('A' for Active; 'I' for Inactive)
REMARK    1  A    between atoms: C_4  and  C_7
REMARK    2  A    between atoms: C_7  and  C_8
REMARK    3  A    between atoms: C_8  and  N_10
REMARK    4  A    between atoms: C_8  and  N_28
REMARK    5  A    between atoms: N_13  and  C_14
REMARK                            x       y       z     vdW  Elec       q    Type
REMARK                         _______ _______ _______ _____ _____    ______ ____
ROOT
ATOM      1  N   UNL     1       5.384  -1.788   1.278  0.00  0.00    -0.280 N 
ATOM      2  C   UNL     1       5.590  -2.846   2.086  0.00  0.00    +0.305 C 
ATOM      3  O   UNL     1       4.667  -3.311   2.727  0.00  0.00    -0.252 OA
ATOM      4  N   UNL     1       6.820  -3.390   2.184  0.00  0.00    -0.269 N 
ATOM      5  H   UNL     1       6.120  -1.417   0.767  0.00  0.00    +0.152 HD
ATOM      6  H   UNL     1       7.538  -3.070   1.617  0.00  0.00    +0.156 HD
ENDROOT
BRANCH   4   7
ATOM      7  C   UNL     1       7.060  -4.415   3.104  0.00  0.00    +0.035 A 
ATOM      8  C   UNL     1       7.979  -5.411   2.808  0.00  0.00    +0.024 A 
ATOM      9  C   UNL     1       8.223  -6.430   3.712  0.00  0.00    +0.011 A 
ATOM     10  C   UNL     1       7.547  -6.462   4.926  0.00  0.00    -0.006 A 
ATOM     11  C   UNL     1       6.616  -5.455   5.228  0.00  0.00    +0.032 A 
ATOM     12  C   UNL     1       6.380  -4.432   4.319  0.00  0.00    +0.035 A 
ATOM     13  C   UNL     1       6.056  -5.743   6.571  0.00  0.00    +0.194 C 
ATOM     14  O   UNL     1       5.221  -5.088   7.161  0.00  0.00    -0.287 OA
ATOM     15  C   UNL     1       6.706  -6.983   7.056  0.00  0.00    +0.030 A 
ATOM     16  C   UNL     1       7.604  -7.414   6.065  0.00  0.00    -0.006 A 
ATOM     17  C   UNL     1       8.349  -8.566   6.272  0.00  0.00    +0.009 A 
ATOM     18  C   UNL     1       8.206  -9.283   7.450  0.00  0.00    +0.001 A 
ATOM     19  C   UNL     1       7.323  -8.858   8.424  0.00  0.00    +0.001 A 
ATOM     20  C   UNL     1       6.572  -7.710   8.233  0.00  0.00    +0.012 A 
ENDBRANCH   4   7
BRANCH   1  21
ATOM     21  C   UNL     1       4.048  -1.197   1.171  0.00  0.00    +0.177 C 
BRANCH  21  22
ATOM     22  N   UNL     1       4.012   0.067   1.912  0.00  0.00    -0.214 N 
ATOM     23  C   UNL     1       4.964   1.014   1.847  0.00  0.00    +0.255 C 
ATOM     24  O   UNL     1       5.975   0.959   1.175  0.00  0.00    -0.269 OA
ATOM     25  C   UNL     1       4.575   2.135   2.729  0.00  0.00    +0.049 A 
ATOM     26  C   UNL     1       5.148   3.353   3.057  0.00  0.00    +0.014 A 
ATOM     27  C   UNL     1       4.504   4.199   3.945  0.00  0.00    +0.001 A 
ATOM     28  C   UNL     1       3.293   3.836   4.505  0.00  0.00    +0.001 A 
ATOM     29  C   UNL     1       2.708   2.621   4.187  0.00  0.00    +0.014 A 
ATOM     30  C   UNL     1       3.341   1.765   3.300  0.00  0.00    +0.049 A 
ATOM     31  C   UNL     1       3.019   0.434   2.742  0.00  0.00    +0.255 C 
ATOM     32  O   UNL     1       2.026  -0.219   2.993  0.00  0.00    -0.269 OA
ENDBRANCH  21  22
BRANCH  21  33
ATOM     33  C   UNL     1       3.722  -0.935  -0.300  0.00  0.00    +0.078 C 
BRANCH  33  37
ATOM     34  C   UNL     1      -0.175   0.787  -0.613  0.00  0.00    +0.000 A 
ATOM     35  C   UNL     1       0.932   1.603  -0.472  0.00  0.00    +0.000 A 
ATOM     36  C   UNL     1       2.193   1.046  -0.371  0.00  0.00    +0.004 A 
ATOM     37  C   UNL     1       2.347  -0.328  -0.410  0.00  0.00    -0.044 A 
ATOM     38  C   UNL     1       1.240  -1.143  -0.550  0.00  0.00    +0.004 A 
ATOM     39  C   UNL     1      -0.021  -0.586  -0.653  0.00  0.00    +0.000 A 
ENDBRANCH  33  37
ENDBRANCH  21  33
ENDBRANCH   1  21
TORSDOF 5
