REMARK  Name = ZINC02270647
REMARK  5 active torsions:
REMARK  status: ('A' for Active; 'I' for Inactive)
REMARK    1  A    between atoms: C_1  and  C_2
REMARK    2  A    between atoms: C_5  and  N_8
REMARK    3  A    between atoms: C_17  and  S_18
REMARK    4  A    between atoms: S_18  and  C_19
REMARK    5  A    between atoms: C_19  and  C_20
REMARK                            x       y       z     vdW  Elec       q    Type
REMARK                         _______ _______ _______ _____ _____    ______ ____
ROOT
ATOM      1  N   UNL     1       1.891   1.745   4.013  0.00  0.00    -0.255 N 
ATOM      2  C   UNL     1       1.247   0.944   3.144  0.00  0.00    +0.268 A 
ATOM      3  O   UNL     1       1.840   0.041   2.579  0.00  0.00    -0.267 OA
ATOM      4  C   UNL     1      -0.143   1.168   2.892  0.00  0.00    +0.076 A 
ATOM      5  C   UNL     1      -1.034   0.421   1.992  0.00  0.00    -0.023 A 
ATOM      6  C   UNL     1      -2.310   0.841   1.919  0.00  0.00    -0.004 A 
ATOM      7  S   UNL     1      -2.415   2.212   3.039  0.00  0.00    -0.073 S 
ATOM      8  C   UNL     1      -0.729   2.233   3.594  0.00  0.00    +0.117 A 
ATOM      9  N   UNL     1      -0.039   2.987   4.441  0.00  0.00    -0.215 NA
ATOM     10  C   UNL     1       1.242   2.761   4.656  0.00  0.00    +0.178 A 
ATOM     11  C   UNL     1      -3.412   0.280   1.074  0.00  0.00    +0.043 C 
ATOM     12  C   UNL     1      -3.458  -1.244   1.245  0.00  0.00    +0.005 C 
ATOM     13  C   UNL     1      -2.541  -1.871   0.200  0.00  0.00    +0.001 C 
ATOM     14  C   UNL     1      -1.351  -0.951  -0.071  0.00  0.00    +0.005 C 
ATOM     15  C   UNL     1      -0.518  -0.772   1.192  0.00  0.00    +0.037 C 
ENDROOT
BRANCH   1  20
ATOM     16  C   UNL     1       7.410   0.887   5.023  0.00  0.00    +0.044 C 
ATOM     17  C   UNL     1       5.944   1.115   4.755  0.00  0.00    -0.050 A 
ATOM     18  C   UNL     1       4.993   0.472   5.526  0.00  0.00    +0.005 A 
ATOM     19  C   UNL     1       3.650   0.678   5.282  0.00  0.00    +0.026 A 
ATOM     20  C   UNL     1       3.254   1.533   4.262  0.00  0.00    +0.052 A 
ATOM     21  C   UNL     1       4.211   2.174   3.487  0.00  0.00    +0.026 A 
ATOM     22  C   UNL     1       5.553   1.968   3.739  0.00  0.00    +0.005 A 
ENDBRANCH   1  20
BRANCH  10  23
ATOM     23  S   UNL     1       2.128   3.782   5.785  0.00  0.00    -0.078 S 
BRANCH  23  24
ATOM     24  C   UNL     1       0.803   4.902   6.303  0.00  0.00    +0.172 C 
BRANCH  24  25
ATOM     25  C   UNL     1       1.344   5.894   7.300  0.00  0.00    +0.221 C 
ATOM     26  O   UNL     1       2.511   5.848   7.628  0.00  0.00    -0.275 OA
ATOM     27  N   UNL     1       0.532   6.832   7.826  0.00  0.00    -0.329 N 
ATOM     28  H   UNL     1      -0.401   6.868   7.564  0.00  0.00    +0.145 HD
ATOM     29  H   UNL     1       0.881   7.470   8.468  0.00  0.00    +0.145 HD
ENDBRANCH  24  25
ENDBRANCH  23  24
ENDBRANCH  10  23
TORSDOF 4
