REMARK  Name = ZINC09790429
REMARK  10 active torsions:
REMARK  status: ('A' for Active; 'I' for Inactive)
REMARK    1  A    between atoms: C_1  and  N_64
REMARK    2  A    between atoms: C_2  and  N_64
REMARK    3  A    between atoms: C_3  and  C_5
REMARK    4  A    between atoms: C_3  and  C_30
REMARK    5  A    between atoms: C_3  and  N_64
REMARK    6  A    between atoms: C_5  and  N_6
REMARK    7  A    between atoms: C_7  and  C_9
REMARK    8  A    between atoms: C_12  and  N_15
REMARK    9  A    between atoms: N_15  and  S_16
REMARK   10  A    between atoms: S_16  and  C_19
REMARK                            x       y       z     vdW  Elec       q    Type
REMARK                         _______ _______ _______ _____ _____    ______ ____
ROOT
ATOM      1  C   UNL     1      -0.067  -2.689   3.051  0.00  0.00    +0.037 A 
ATOM      2  C   UNL     1       0.508  -3.797   2.421  0.00  0.00    +0.015 A 
ATOM      3  C   UNL     1       0.197  -5.067   2.849  0.00  0.00    +0.025 A 
ATOM      4  C   UNL     1      -0.696  -5.250   3.901  0.00  0.00    +0.048 A 
ATOM      5  C   UNL     1      -1.274  -4.149   4.527  0.00  0.00    +0.025 A 
ATOM      6  C   UNL     1      -0.964  -2.876   4.107  0.00  0.00    +0.015 A 
ENDROOT
BRANCH   1   8
ATOM      7  N   UNL     1       1.133  -1.147   1.581  0.00  0.00    -0.313 N 
ATOM      8  C   UNL     1       0.268  -1.325   2.599  0.00  0.00    +0.244 C 
ATOM      9  O   UNL     1      -0.236  -0.363   3.144  0.00  0.00    -0.270 OA
ATOM     10  H   UNL     1       1.535  -1.915   1.146  0.00  0.00    +0.149 HD
BRANCH   7  11
ATOM     11  C   UNL     1       1.466   0.208   1.132  0.00  0.00    +0.094 C 
BRANCH  11  12
ATOM     12  C   UNL     1       2.535   0.135   0.040  0.00  0.00    -0.021 C 
BRANCH  12  13
ATOM     13  C   UNL     1       2.787   1.515  -0.510  0.00  0.00    -0.059 A 
ATOM     14  C   UNL     1       1.792   2.173  -1.208  0.00  0.00    +0.002 A 
ATOM     15  C   UNL     1       2.021   3.441  -1.708  0.00  0.00    +0.000 A 
ATOM     16  C   UNL     1       3.249   4.047  -1.519  0.00  0.00    +0.000 A 
ATOM     17  C   UNL     1       4.246   3.387  -0.826  0.00  0.00    +0.000 A 
ATOM     18  C   UNL     1       4.015   2.120  -0.321  0.00  0.00    +0.002 A 
ENDBRANCH  12  13
BRANCH  12  21
ATOM     19  C   UNL     1       0.608  -0.724  -1.147  0.00  0.00    -0.096 C 
ATOM     20  C   UNL     1       2.699  -0.385  -2.319  0.00  0.00    -0.096 C 
ATOM     21  N   UNL     1       2.081  -0.773  -1.034  0.00  0.00    +0.382 N 
ATOM     22  H   UNL     1       2.366  -1.732  -0.803  0.00  0.00    -0.082 HD
ENDBRANCH  12  21
ENDBRANCH  11  12
ENDBRANCH   7  11
ENDBRANCH   1   8
BRANCH   4  23
ATOM     23  N   UNL     1      -1.012  -6.536   4.327  0.00  0.00    -0.216 N 
ATOM     24  H   UNL     1      -0.629  -6.882   5.148  0.00  0.00    +0.174 HD
BRANCH  23  25
ATOM     25  S   UNL     1      -2.042  -7.475   3.433  0.00  0.00    +0.072 S 
ATOM     26  O   UNL     1      -1.608  -7.382   2.083  0.00  0.00    -0.150 OA
ATOM     27  O   UNL     1      -2.153  -8.718   4.114  0.00  0.00    -0.150 OA
BRANCH  25  28
ATOM     28  C   UNL     1      -3.632  -6.719   3.504  0.00  0.00    +0.112 A 
ATOM     29  C   UNL     1      -4.475  -6.987   4.566  0.00  0.00    +0.032 A 
ATOM     30  C   UNL     1      -5.723  -6.392   4.631  0.00  0.00    +0.051 A 
ATOM     31  C   UNL     1      -6.128  -5.535   3.622  0.00  0.00    +0.162 A 
ATOM     32  C   UNL     1      -5.284  -5.270   2.554  0.00  0.00    +0.164 A 
ATOM     33  C   UNL     1      -4.034  -5.863   2.494  0.00  0.00    +0.078 A 
ATOM     34  O   UNL     1      -5.692  -4.423   1.565  0.00  0.00    -0.488 OA
ATOM     35  C   UNL     1      -6.760  -4.894   0.740  0.00  0.00    +0.232 C 
ATOM     36  C   UNL     1      -8.107  -4.611   1.387  0.00  0.00    +0.082 C 
ATOM     37  C   UNL     1      -8.298  -5.377   2.686  0.00  0.00    +0.232 C 
ATOM     38  O   UNL     1      -7.358  -4.946   3.672  0.00  0.00    -0.488 OA
ENDBRANCH  25  28
ENDBRANCH  23  25
ENDBRANCH   4  23
TORSDOF 8
