REMARK  Name = ZINC63625817
REMARK  10 active torsions:
REMARK  status: ('A' for Active; 'I' for Inactive)
REMARK    1  A    between atoms: C_1  and  C_2
REMARK    2  A    between atoms: C_2  and  C_3
REMARK    3  A    between atoms: C_3  and  S_4
REMARK    4  A    between atoms: S_4  and  C_5
REMARK    5  A    between atoms: C_10  and  N_15
REMARK    6  A    between atoms: C_16  and  C_18
REMARK    7  A    between atoms: C_18  and  S_19
REMARK    8  A    between atoms: S_19  and  C_20
REMARK    9  A    between atoms: C_22  and  C_32
REMARK   10  A    between atoms: C_24  and  C_26
REMARK                            x       y       z     vdW  Elec       q    Type
REMARK                         _______ _______ _______ _____ _____    ______ ____
ROOT
ATOM      1  N   UNL     1       2.724  -5.870  -7.172  0.00  0.00    -0.278 N 
ATOM      2  C   UNL     1       3.315  -5.996  -8.376  0.00  0.00    +0.226 C 
ATOM      3  O   UNL     1       4.461  -5.628  -8.531  0.00  0.00    -0.275 OA
ATOM      4  H   UNL     1       1.808  -6.164  -7.048  0.00  0.00    +0.152 HD
ENDROOT
BRANCH   1  10
ATOM      5  C   UNL     1       1.589  -2.718  -2.758  0.00  0.00    +0.010 A 
ATOM      6  C   UNL     1       2.071  -1.640  -3.618  0.00  0.00    +0.017 A 
ATOM      7  C   UNL     1       2.722  -1.903  -4.767  0.00  0.00    +0.028 A 
ATOM      8  C   UNL     1       2.952  -3.302  -5.161  0.00  0.00    +0.061 A 
ATOM      9  N   UNL     1       3.540  -3.832  -6.195  0.00  0.00    -0.348 N 
ATOM     10  C   UNL     1       3.465  -5.290  -6.049  0.00  0.00    +0.269 C 
ATOM     11  N   UNL     1       2.754  -5.545  -4.790  0.00  0.00    -0.348 N 
ATOM     12  C   UNL     1       2.453  -4.383  -4.269  0.00  0.00    +0.062 A 
ATOM     13  C   UNL     1       1.781  -4.026  -3.073  0.00  0.00    +0.042 A 
ATOM     14  H   UNL     1       3.952  -3.350  -6.929  0.00  0.00    +0.163 HD
ATOM     15  H   UNL     1       2.546  -6.414  -4.414  0.00  0.00    +0.163 HD
BRANCH   5  16
ATOM     16  S   UNL     1       0.743  -2.311  -1.267  0.00  0.00    -0.125 S 
BRANCH  16  17
ATOM     17  C   UNL     1       0.718  -0.497  -1.257  0.00  0.00    +0.074 C 
BRANCH  17  19
ATOM     18  C   UNL     1      -0.019   1.526   0.010  0.00  0.00    +0.004 C 
ATOM     19  C   UNL     1       0.002  -0.004   0.002  0.00  0.00    +0.008 C 
ENDBRANCH  17  19
ENDBRANCH  16  17
ENDBRANCH   5  16
ENDBRANCH   1  10
BRANCH   2  20
ATOM     20  C   UNL     1       2.553  -6.593  -9.531  0.00  0.00    +0.173 C 
BRANCH  20  21
ATOM     21  S   UNL     1       3.613  -6.625 -11.003  0.00  0.00    -0.077 S 
BRANCH  21  22
ATOM     22  C   UNL     1       2.592  -7.340 -12.248  0.00  0.00    +0.189 A 
ATOM     23  N   UNL     1       1.351  -7.693 -11.942  0.00  0.00    -0.227 NA
ATOM     24  C   UNL     1       0.553  -8.232 -12.849  0.00  0.00    +0.043 A 
ATOM     25  C   UNL     1       1.025  -8.429 -14.135  0.00  0.00    +0.051 A 
ATOM     26  C   UNL     1       2.337  -8.047 -14.429  0.00  0.00    +0.076 A 
ATOM     27  N   UNL     1       3.082  -7.506 -13.467  0.00  0.00    -0.222 NA
ATOM     28  C   UNL     1      -0.855  -8.629 -12.486  0.00  0.00    +0.066 C 
BRANCH  26  29
ATOM     29  C   UNL     1       2.890  -8.238 -15.792  0.00  0.00    +0.000 A 
ATOM     30  C   UNL     1       2.100  -8.796 -16.795  0.00  0.00    +0.010 A 
ATOM     31  C   UNL     1       2.619  -8.970 -18.062  0.00  0.00    +0.001 A 
ATOM     32  C   UNL     1       3.921  -8.593 -18.336  0.00  0.00    +0.000 A 
ATOM     33  C   UNL     1       4.710  -8.039 -17.344  0.00  0.00    +0.001 A 
ATOM     34  C   UNL     1       4.199  -7.854 -16.075  0.00  0.00    +0.010 A 
ENDBRANCH  26  29
ENDBRANCH  21  22
ENDBRANCH  20  21
ENDBRANCH   2  20
TORSDOF 8
