REMARK  Name = ZINC00867385
REMARK  11 active torsions:
REMARK  status: ('A' for Active; 'I' for Inactive)
REMARK    1  A    between atoms: C_1  and  C_2
REMARK    2  A    between atoms: C_2  and  O_3
REMARK    3  A    between atoms: O_3  and  C_4
REMARK    4  A    between atoms: C_4  and  C_6
REMARK    5  A    between atoms: C_7  and  N_29
REMARK    6  A    between atoms: C_11  and  C_13
REMARK    7  A    between atoms: C_16  and  O_21
REMARK    8  A    between atoms: C_17  and  O_19
REMARK    9  A    between atoms: O_19  and  C_20
REMARK   10  A    between atoms: C_25  and  C_27
REMARK   11  A    between atoms: C_25  and  C_28
REMARK                            x       y       z     vdW  Elec       q    Type
REMARK                         _______ _______ _______ _____ _____    ______ ____
ROOT
ATOM      1  C   UNL     1       5.027   4.644   0.682  0.00  0.00    +0.105 C 
ATOM      2  C   UNL     1       5.649   4.807   1.879  0.00  0.00    +0.195 C 
ATOM      3  O   UNL     1       6.176   3.765   2.539  0.00  0.00    -0.446 OA
ATOM      4  C   UNL     1       6.494   2.641   1.871  0.00  0.00    +0.115 C 
ATOM      5  C   UNL     1       5.926   2.344   0.688  0.00  0.00    +0.045 C 
ATOM      6  C   UNL     1       4.918   3.279   0.063  0.00  0.00    +0.098 C 
ATOM      7  C   UNL     1       6.246   1.158  -0.001  0.00  0.00    +0.164 C 
ATOM      8  O   UNL     1       5.724   0.932  -1.074  0.00  0.00    -0.292 OA
ATOM      9  C   UNL     1       7.224   0.166   0.568  0.00  0.00    +0.086 C 
ATOM     10  C   UNL     1       7.201   0.269   2.097  0.00  0.00    -0.021 C 
ATOM     11  C   UNL     1       7.514   1.714   2.490  0.00  0.00    +0.081 C 
ATOM     12  C   UNL     1       5.816  -0.118   2.617  0.00  0.00    +0.012 C 
ATOM     13  C   UNL     1       8.254  -0.669   2.691  0.00  0.00    +0.012 C 
ENDROOT
BRANCH   6  14
ATOM     14  C   UNL     1       3.529   2.738   0.286  0.00  0.00    -0.031 A 
ATOM     15  C   UNL     1       3.061   2.550   1.573  0.00  0.00    +0.008 A 
ATOM     16  C   UNL     1       1.785   2.060   1.783  0.00  0.00    +0.049 A 
ATOM     17  C   UNL     1       0.978   1.745   0.702  0.00  0.00    +0.158 A 
ATOM     18  C   UNL     1       1.449   1.934  -0.593  0.00  0.00    +0.162 A 
ATOM     19  C   UNL     1       2.727   2.431  -0.796  0.00  0.00    +0.054 A 
BRANCH  18  20
ATOM     20  O   UNL     1       0.658   1.631  -1.657  0.00  0.00    -0.491 OA
ATOM     21  C   UNL     1       1.209   1.851  -2.958  0.00  0.00    +0.277 C 
ENDBRANCH  18  20
BRANCH  17  22
ATOM     22  O   UNL     1      -0.275   1.258   0.907  0.00  0.00    -0.503 OA
ATOM     23  H   UNL     1      -0.318   0.293   0.963  0.00  0.00    +0.292 HD
ENDBRANCH  17  22
ENDBRANCH   6  14
BRANCH   2  24
ATOM     24  N   UNL     1       5.740   6.061   2.423  0.00  0.00    -0.329 N 
ATOM     25  H   UNL     1       6.105   6.178   3.314  0.00  0.00    +0.145 HD
ATOM     26  H   UNL     1       5.439   6.832   1.917  0.00  0.00    +0.145 HD
ENDBRANCH   2  24
BRANCH   1  27
ATOM     27  C   UNL     1       4.484   5.756   0.021  0.00  0.00    +0.341 C 
ATOM     28  O   UNL     1       5.083   6.263  -0.910  0.00  0.00    -0.245 OA
BRANCH  27  29
ATOM     29  O   UNL     1       3.297   6.263   0.416  0.00  0.00    -0.462 OA
BRANCH  29  31
ATOM     30  C   UNL     1       1.458   7.826   0.284  0.00  0.00    +0.048 C 
ATOM     31  C   UNL     1       2.803   7.396  -0.303  0.00  0.00    +0.229 C 
ENDBRANCH  29  31
ENDBRANCH  27  29
ENDBRANCH   1  27
TORSDOF 7
