REMARK  Name = ZINC37404892
REMARK  2 active torsions:
REMARK  status: ('A' for Active; 'I' for Inactive)
REMARK    1  A    between atoms: C_1  and  C_2
REMARK    2  A    between atoms: C_5  and  C_7
REMARK                            x       y       z     vdW  Elec       q    Type
REMARK                         _______ _______ _______ _____ _____    ______ ____
ROOT
ATOM      1  C   UNL     1       1.314   0.159   2.237  0.00  0.00    +0.135 A 
ATOM      2  N   UNL     1       0.669   0.688   3.321  0.00  0.00    -0.319 N 
ATOM      3  C   UNL     1       1.615   1.396   4.005  0.00  0.00    +0.200 A 
ATOM      4  N   UNL     1       2.741   1.274   3.341  0.00  0.00    -0.122 NA
ATOM      5  N   UNL     1       2.558   0.539   2.302  0.00  0.00    -0.133 NA
ATOM      6  S   UNL     1       1.371   2.302   5.496  0.00  0.00    -0.009 SA
ATOM      7  H   UNL     1      -0.266   0.583   3.555  0.00  0.00    +0.169 HD
ENDROOT
BRANCH   1  11
ATOM      8  C   UNL     1      -0.019   1.526   0.010  0.00  0.00    +0.008 C 
ATOM      9  C   UNL     1       0.002  -0.004   0.002  0.00  0.00    -0.003 C 
ATOM     10  C   UNL     1      -0.828  -0.728   1.065  0.00  0.00    +0.015 C 
ATOM     11  C   UNL     1       0.700  -0.708   1.168  0.00  0.00    +0.060 C 
ENDBRANCH   1  11
TORSDOF 1
