REMARK  Name = ZINC13898542
REMARK  7 active torsions:
REMARK  status: ('A' for Active; 'I' for Inactive)
REMARK    1  A    between atoms: C_1  and  C_2
REMARK    2  A    between atoms: C_15  and  C_17
REMARK    3  A    between atoms: C_20  and  O_23
REMARK    4  A    between atoms: O_23  and  C_24
REMARK    5  A    between atoms: C_24  and  C_25
REMARK    6  A    between atoms: C_25  and  S_26
REMARK    7  A    between atoms: S_26  and  C_27
REMARK                            x       y       z     vdW  Elec       q    Type
REMARK                         _______ _______ _______ _____ _____    ______ ____
ROOT
ATOM      1  C   UNL     1       0.845   0.491  -4.825  0.00  0.00    +0.018 A 
ATOM      2  C   UNL     1      -0.305   1.282  -4.752  0.00  0.00    +0.015 A 
ATOM      3  C   UNL     1      -0.819   1.635  -3.524  0.00  0.00    +0.046 A 
ATOM      4  C   UNL     1      -0.195   1.208  -2.358  0.00  0.00    +0.121 A 
ATOM      5  C   UNL     1       0.953   0.427  -2.426  0.00  0.00    +0.046 A 
ATOM      6  C   UNL     1       1.469   0.063  -3.650  0.00  0.00    +0.015 A 
ENDROOT
BRANCH   1  20
ATOM      7  C   UNL     1       3.821  -1.459 -14.135  0.00  0.00    +0.008 C 
ATOM      8  C   UNL     1       3.685  -1.014 -12.677  0.00  0.00    -0.009 C 
ATOM      9  C   UNL     1       3.942  -2.205 -11.750  0.00  0.00    +0.008 C 
ATOM     10  C   UNL     1       4.057  -1.722 -10.304  0.00  0.00    +0.037 C 
ATOM     11  C   UNL     1       2.831  -0.878  -9.967  0.00  0.00    -0.023 A 
ATOM     12  C   UNL     1       2.065  -0.353 -10.947  0.00  0.00    -0.004 A 
ATOM     13  S   UNL     1       0.780   0.530 -10.103  0.00  0.00    -0.073 S 
ATOM     14  C   UNL     1       1.277   0.191  -8.433  0.00  0.00    +0.116 A 
ATOM     15  C   UNL     1       2.428  -0.600  -8.589  0.00  0.00    +0.075 A 
ATOM     16  C   UNL     1       3.059  -1.031  -7.377  0.00  0.00    +0.260 A 
ATOM     17  O   UNL     1       4.064  -1.720  -7.413  0.00  0.00    -0.267 OA
ATOM     18  N   UNL     1       2.529  -0.660  -6.197  0.00  0.00    -0.306 N 
ATOM     19  H   UNL     1       2.953  -0.945  -5.373  0.00  0.00    +0.170 HD
ATOM     20  C   UNL     1       1.399   0.109  -6.138  0.00  0.00    +0.142 A 
ATOM     21  N   UNL     1       0.802   0.518  -7.239  0.00  0.00    -0.222 NA
ATOM     22  C   UNL     1       2.263  -0.491 -12.426  0.00  0.00    +0.046 C 
ENDBRANCH   1  20
BRANCH   4  23
ATOM     23  O   UNL     1      -0.704   1.559  -1.150  0.00  0.00    -0.491 OA
BRANCH  23  24
ATOM     24  C   UNL     1      -0.013   1.086   0.008  0.00  0.00    +0.240 C 
BRANCH  24  25
ATOM     25  C   UNL     1      -0.729   1.579   1.267  0.00  0.00    +0.115 C 
BRANCH  25  26
ATOM     26  S   UNL     1       0.148   0.978   2.736  0.00  0.00    -0.122 S 
BRANCH  26  27
ATOM     27  C   UNL     1      -0.786   1.622   4.084  0.00  0.00    +0.008 A 
ATOM     28  C   UNL     1      -1.911   2.401   3.842  0.00  0.00    +0.016 A 
ATOM     29  C   UNL     1      -2.645   2.900   4.900  0.00  0.00    +0.021 A 
ATOM     30  C   UNL     1      -2.255   2.634   6.201  0.00  0.00    +0.041 A 
ATOM     31  C   UNL     1      -1.132   1.863   6.445  0.00  0.00    +0.021 A 
ATOM     32  C   UNL     1      -0.397   1.356   5.391  0.00  0.00    +0.016 A 
ATOM     33 CL   UNL     1      -3.176   3.268   7.528  0.00  0.00    -0.084 Cl
ENDBRANCH  26  27
ENDBRANCH  25  26
ENDBRANCH  24  25
ENDBRANCH  23  24
ENDBRANCH   4  23
TORSDOF 6
