REMARK  Name = ZINC63515227
REMARK  11 active torsions:
REMARK  status: ('A' for Active; 'I' for Inactive)
REMARK    1  A    between atoms: C_1  and  C_2
REMARK    2  A    between atoms: C_4  and  S_12
REMARK    3  A    between atoms: C_5  and  C_11
REMARK    4  A    between atoms: C_6  and  C_10
REMARK    5  A    between atoms: C_7  and  O_8
REMARK    6  A    between atoms: O_8  and  C_9
REMARK    7  A    between atoms: S_12  and  N_15
REMARK    8  A    between atoms: N_15  and  C_16
REMARK    9  A    between atoms: C_16  and  C_17
REMARK   10  A    between atoms: C_17  and  C_18
REMARK   11  A    between atoms: C_26  and  C_28
REMARK                            x       y       z     vdW  Elec       q    Type
REMARK                         _______ _______ _______ _____ _____    ______ ____
ROOT
ATOM      1  N   UNL     1       1.338  -3.795  -2.751  0.00  0.00    -0.190 NA
ATOM      2  H   UNL     1       2.111  -3.576  -3.295  0.00  0.00    +0.148 HD
ENDROOT
BRANCH   1   3
ATOM      3  S   UNL     1      -0.041  -2.886  -2.870  0.00  0.00    +0.059 S 
ATOM      4  O   UNL     1       0.195  -1.920  -3.885  0.00  0.00    -0.153 OA
ATOM      5  O   UNL     1      -0.405  -2.525  -1.544  0.00  0.00    -0.153 OA
BRANCH   3   9
ATOM      6  C   UNL     1      -4.624  -5.330  -2.294  0.00  0.00    +0.047 C 
ATOM      7  C   UNL     1      -3.419  -5.042  -3.152  0.00  0.00    -0.007 A 
ATOM      8  C   UNL     1      -2.419  -4.211  -2.683  0.00  0.00    +0.035 A 
ATOM      9  C   UNL     1      -1.314  -3.946  -3.470  0.00  0.00    +0.109 A 
ATOM     10  C   UNL     1      -1.206  -4.511  -4.728  0.00  0.00    -0.018 A 
ATOM     11  C   UNL     1      -2.203  -5.342  -5.201  0.00  0.00    -0.004 A 
ATOM     12  C   UNL     1      -3.310  -5.614  -4.411  0.00  0.00    +0.126 A 
ATOM     13  C   UNL     1      -2.084  -5.957  -6.571  0.00  0.00    +0.048 C 
ATOM     14  C   UNL     1       0.000  -4.219  -5.583  0.00  0.00    +0.046 C 
BRANCH  12  15
ATOM     15  O   UNL     1      -4.290  -6.436  -4.872  0.00  0.00    -0.495 OA
ATOM     16  C   UNL     1      -5.359  -5.827  -5.599  0.00  0.00    +0.277 C 
ENDBRANCH  12  15
ENDBRANCH   3   9
ENDBRANCH   1   3
BRANCH   1  17
ATOM     17  C   UNL     1       1.391  -4.929  -1.825  0.00  0.00    +0.110 C 
BRANCH  17  18
ATOM     18  C   UNL     1       2.584  -5.819  -2.177  0.00  0.00    +0.050 C 
BRANCH  18  19
ATOM     19  C   UNL     1       2.631  -6.992  -1.232  0.00  0.00    -0.037 C 
ATOM     20  C   UNL     1       1.769  -7.261  -0.226  0.00  0.00    +0.000 A 
ATOM     21  C   UNL     1       0.575  -6.567   0.272  0.00  0.00    +0.025 A 
ATOM     22  C   UNL     1      -0.098  -7.091   1.323  0.00  0.00    +0.019 A 
ATOM     23  C   UNL     1       0.316  -8.277   1.946  0.00  0.00    +0.017 A 
ATOM     24  C   UNL     1       1.403  -8.970   1.546  0.00  0.00    +0.027 A 
ATOM     25  C   UNL     1       2.184  -8.511   0.450  0.00  0.00    +0.043 A 
ATOM     26  N   UNL     1       3.262  -8.996  -0.117  0.00  0.00    -0.378 N 
ATOM     27  C   UNL     1       3.649  -8.111  -1.222  0.00  0.00    +0.103 C 
ATOM     28  C   UNL     1       5.050  -7.548  -0.976  0.00  0.00    +0.035 C 
ATOM     29 BR   UNL     1      -1.637  -6.200   1.967  0.00  0.00    -0.050 Br
ATOM     30  H   UNL     1       3.724  -9.807   0.146  0.00  0.00    +0.160 HD
ENDBRANCH  18  19
ENDBRANCH  17  18
ENDBRANCH   1  17
TORSDOF 6
