REMARK  Name = ZINC39711080
REMARK  14 active torsions:
REMARK  status: ('A' for Active; 'I' for Inactive)
REMARK    1  A    between atoms: C_1  and  C_2
REMARK    2  A    between atoms: C_2  and  C_3
REMARK    3  A    between atoms: C_3  and  C_4
REMARK    4  A    between atoms: C_3  and  C_5
REMARK    5  A    between atoms: C_3  and  N_6
REMARK    6  A    between atoms: C_7  and  C_12
REMARK    7  A    between atoms: C_12  and  C_14
REMARK    8  A    between atoms: C_12  and  N_28
REMARK    9  A    between atoms: C_19  and  C_27
REMARK   10  A    between atoms: C_21  and  C_26
REMARK   11  A    between atoms: N_28  and  C_29
REMARK   12  A    between atoms: N_28  and  C_36
REMARK   13  A    between atoms: C_29  and  C_30
REMARK   14  A    between atoms: C_36  and  C_37
REMARK                            x       y       z     vdW  Elec       q    Type
REMARK                         _______ _______ _______ _____ _____    ______ ____
ROOT
ATOM      1  C   UNL     1       3.521  -3.015  -1.412  0.00  0.00    -0.010 C 
ENDROOT
BRANCH   1   2
ATOM      2  C   UNL     1       4.128  -3.600  -0.136  0.00  0.00    +0.088 C 
ATOM      3  C   UNL     1       3.563  -2.831   1.043  0.00  0.00    -0.006 C 
ATOM      4  C   UNL     1       4.454  -2.209   1.867  0.00  0.00    -0.007 A 
ATOM      5  C   UNL     1       3.994  -1.444   3.027  0.00  0.00    +0.012 A 
ATOM      6  C   UNL     1       4.917  -0.841   3.820  0.00  0.00    -0.050 A 
ATOM      7  C   UNL     1       6.282  -0.936   3.549  0.00  0.00    +0.008 A 
ATOM      8  C   UNL     1       6.772  -1.630   2.488  0.00  0.00    -0.028 A 
ATOM      9  C   UNL     1       5.901  -2.293   1.605  0.00  0.00    +0.043 A 
ATOM     10  N   UNL     1       6.393  -2.971   0.568  0.00  0.00    -0.284 N 
ATOM     11  C   UNL     1       5.631  -3.613  -0.301  0.00  0.00    +0.223 C 
ATOM     12  O   UNL     1       6.138  -4.215  -1.229  0.00  0.00    -0.275 OA
ATOM     13  C   UNL     1       8.260  -1.690   2.257  0.00  0.00    +0.046 C 
ATOM     14  C   UNL     1       4.457  -0.051   5.018  0.00  0.00    +0.044 C 
ATOM     15  H   UNL     1       7.354  -2.992   0.444  0.00  0.00    +0.155 HD
ENDBRANCH   1   2
BRANCH   1  17
ATOM     16  N   UNL     1       1.442  -2.160  -0.381  0.00  0.00    -0.211 N 
ATOM     17  C   UNL     1       1.996  -3.126  -1.349  0.00  0.00    +0.183 C 
ATOM     18  N   UNL     1       1.586  -4.427  -0.788  0.00  0.00    -0.229 N 
ATOM     19  N   UNL     1       0.875  -4.133   0.381  0.00  0.00    -0.064 NA
ATOM     20  N   UNL     1       0.803  -2.927   0.601  0.00  0.00    -0.061 NA
ATOM     21  H   UNL     1       1.771  -5.306  -1.155  0.00  0.00    +0.172 HD
BRANCH  16  22
ATOM     22  C   UNL     1       1.544  -0.700  -0.433  0.00  0.00    +0.050 C 
ATOM     23  C   UNL     1       0.982  -0.196  -1.764  0.00  0.00    +0.033 C 
ATOM     24  C   UNL     1       3.013  -0.287  -0.311  0.00  0.00    +0.033 C 
BRANCH  22  26
ATOM     25  C   UNL     1       0.853   1.434   0.667  0.00  0.00    +0.006 C 
ATOM     26  C   UNL     1       0.746  -0.091   0.721  0.00  0.00    +0.023 C 
ENDBRANCH  22  26
ENDBRANCH  16  22
ENDBRANCH   1  17
BRANCH   1  27
ATOM     27  N   UNL     1       4.018  -3.759  -2.577  0.00  0.00    +0.390 N 
ATOM     28  H   UNL     1       5.027  -3.766  -2.566  0.00  0.00    -0.080 HD
BRANCH  27  29
ATOM     29  C   UNL     1       3.518  -5.139  -2.526  0.00  0.00    -0.042 C 
BRANCH  29  30
ATOM     30  C   UNL     1       4.164  -5.948  -3.622  0.00  0.00    -0.064 A 
ATOM     31  C   UNL     1       3.571  -6.019  -4.868  0.00  0.00    +0.002 A 
ATOM     32  C   UNL     1       4.163  -6.761  -5.874  0.00  0.00    +0.000 A 
ATOM     33  C   UNL     1       5.348  -7.431  -5.632  0.00  0.00    +0.000 A 
ATOM     34  C   UNL     1       5.941  -7.359  -4.386  0.00  0.00    +0.000 A 
ATOM     35  C   UNL     1       5.351  -6.614  -3.382  0.00  0.00    +0.002 A 
ENDBRANCH  29  30
ENDBRANCH  27  29
BRANCH  27  36
ATOM     36  C   UNL     1       3.546  -3.113  -3.809  0.00  0.00    -0.035 C 
BRANCH  36  37
ATOM     37  C   UNL     1       4.218  -1.773  -3.963  0.00  0.00    -0.027 A 
ATOM     38  C   UNL     1       5.447  -1.486  -4.458  0.00  0.00    +0.009 A 
ATOM     39  C   UNL     1       5.860  -0.168  -4.505  0.00  0.00    +0.008 A 
ATOM     40  C   UNL     1       5.024   0.799  -4.053  0.00  0.00    +0.045 A 
ATOM     41  S   UNL     1       3.600  -0.151  -3.547  0.00  0.00    -0.103 S 
ENDBRANCH  36  37
ENDBRANCH  27  36
ENDBRANCH   1  27
TORSDOF 9
