REMARK  Name = ZINC16855152
REMARK  9 active torsions:
REMARK  status: ('A' for Active; 'I' for Inactive)
REMARK    1  A    between atoms: C_10  and  C_11
REMARK    2  A    between atoms: C_11  and  S_12
REMARK    3  A    between atoms: S_12  and  C_13
REMARK    4  A    between atoms: C_13  and  C_14
REMARK    5  A    between atoms: C_14  and  C_15
REMARK    6  A    between atoms: C_20  and  S_24
REMARK    7  A    between atoms: C_22  and  O_23
REMARK    8  A    between atoms: S_24  and  C_25
REMARK    9  A    between atoms: C_25  and  C_26
REMARK                            x       y       z     vdW  Elec       q    Type
REMARK                         _______ _______ _______ _____ _____    ______ ____
ROOT
ATOM      1  C   UNL     1       0.872   6.525   0.029  0.00  0.00    +0.079 A 
ATOM      2  C   UNL     1       2.193   6.062   0.014  0.00  0.00    +0.259 A 
ATOM      3  O   UNL     1       3.126   6.848   0.009  0.00  0.00    -0.267 OA
ATOM      4  N   UNL     1       2.416   4.731   0.010  0.00  0.00    -0.302 N 
ATOM      5  H   UNL     1       3.325   4.392   0.004  0.00  0.00    +0.171 HD
ATOM      6  C   UNL     1       1.366   3.863   0.010  0.00  0.00    +0.173 A 
ATOM      7  N   UNL     1       0.121   4.294   0.024  0.00  0.00    -0.189 NA
ATOM      8  C   UNL     1      -0.159   5.600   0.034  0.00  0.00    +0.223 A 
ENDROOT
BRANCH   8   9
ATOM      9  O   UNL     1      -1.446   6.018   0.049  0.00  0.00    -0.492 OA
ATOM     10  H   UNL     1      -2.093   5.300   0.051  0.00  0.00    +0.294 HD
ENDBRANCH   8   9
BRANCH   1  11
ATOM     11  C   UNL     1       0.577   8.003   0.039  0.00  0.00    +0.056 C 
BRANCH  11  12
ATOM     12  C   UNL     1       0.613   8.521   1.478  0.00  0.00    +0.074 C 
BRANCH  12  13
ATOM     13  S   UNL     1       0.258  10.299   1.491  0.00  0.00    -0.156 S 
BRANCH  13  14
ATOM     14  C   UNL     1       0.339  10.751   3.246  0.00  0.00    +0.104 C 
BRANCH  14  24
ATOM     15  C   UNL     1       3.160  15.022   3.277  0.00  0.00    +0.001 A 
ATOM     16  C   UNL     1       3.439  13.664   3.134  0.00  0.00    +0.001 A 
ATOM     17  C   UNL     1       2.443  12.736   3.171  0.00  0.00    +0.009 A 
ATOM     18  C   UNL     1       1.114  13.151   3.361  0.00  0.00    -0.014 A 
ATOM     19  C   UNL     1       0.830  14.533   3.502  0.00  0.00    -0.018 A 
ATOM     20  C   UNL     1       1.885  15.460   3.458  0.00  0.00    +0.008 A 
ATOM     21  C   UNL     1      -0.499  14.947   3.688  0.00  0.00    +0.008 A 
ATOM     22  C   UNL     1      -1.495  14.020   3.724  0.00  0.00    +0.001 A 
ATOM     23  C   UNL     1      -1.217  12.662   3.581  0.00  0.00    +0.005 A 
ATOM     24  C   UNL     1       0.059  12.224   3.399  0.00  0.00    -0.030 A 
ENDBRANCH  14  24
ENDBRANCH  13  14
ENDBRANCH  12  13
ENDBRANCH  11  12
ENDBRANCH   1  11
BRANCH   6  25
ATOM     25  S   UNL     1       1.680   2.129  -0.003  0.00  0.00    -0.083 S 
BRANCH  25  26
ATOM     26  C   UNL     1      -0.018   1.503   0.010  0.00  0.00    +0.112 C 
BRANCH  26  27
ATOM     27  C   UNL     1       0.002  -0.004   0.002  0.00  0.00    -0.037 A 
ATOM     28  C   UNL     1      -0.006  -0.689  -1.199  0.00  0.00    +0.006 A 
ATOM     29  C   UNL     1       0.019  -2.071  -1.207  0.00  0.00    +0.020 A 
ATOM     30  C   UNL     1       0.040  -2.769  -0.013  0.00  0.00    +0.041 A 
ATOM     31  C   UNL     1       0.042  -2.083   1.188  0.00  0.00    +0.020 A 
ATOM     32  C   UNL     1       0.023  -0.701   1.196  0.00  0.00    +0.006 A 
ATOM     33 CL   UNL     1       0.064  -4.505  -0.023  0.00  0.00    -0.084 Cl
ENDBRANCH  26  27
ENDBRANCH  25  26
ENDBRANCH   6  25
TORSDOF 9
