REMARK  Name = ZINC21740255
REMARK  8 active torsions:
REMARK  status: ('A' for Active; 'I' for Inactive)
REMARK    1  A    between atoms: C_2  and  C_3
REMARK    2  A    between atoms: C_3  and  N_4
REMARK    3  A    between atoms: C_5  and  C_26
REMARK    4  A    between atoms: C_8  and  S_9
REMARK    5  A    between atoms: S_9  and  C_10
REMARK    6  A    between atoms: C_10  and  C_11
REMARK    7  A    between atoms: N_13  and  C_14
REMARK    8  A    between atoms: C_15  and  C_23
REMARK                            x       y       z     vdW  Elec       q    Type
REMARK                         _______ _______ _______ _____ _____    ______ ____
ROOT
ATOM      1  C   UNL     1      -1.735   7.617  -2.453  0.00  0.00    +0.228 C 
ATOM      2  O   UNL     1      -1.575   7.870  -1.278  0.00  0.00    -0.275 OA
ATOM      3  N   UNL     1      -1.642   6.345  -2.888  0.00  0.00    -0.279 N 
ATOM      4  H   UNL     1      -1.788   6.116  -3.954  0.00  0.00    +0.155 HD
ENDROOT
BRANCH   3   5
ATOM      5  C   UNL     1      -1.362   5.324  -1.992  0.00  0.00    +0.084 A 
ATOM      6  C   UNL     1      -1.226   3.967  -2.245  0.00  0.00    +0.068 A 
ATOM      7  C   UNL     1      -0.928   3.100  -1.118  0.00  0.00    -0.023 A 
ATOM      8  C   UNL     1      -0.814   3.724   0.074  0.00  0.00    -0.004 A 
ATOM      9  S   UNL     1      -1.095   5.435  -0.283  0.00  0.00    -0.077 S 
ATOM     10  C   UNL     1      -0.515   3.094   1.399  0.00  0.00    +0.043 C 
ATOM     11  C   UNL     1      -0.726   1.578   1.271  0.00  0.00    +0.005 C 
ATOM     12  C   UNL     1      -0.013   1.086   0.008  0.00  0.00    +0.005 C 
ATOM     13  C   UNL     1      -0.749   1.591  -1.234  0.00  0.00    +0.037 C 
BRANCH   6  14
ATOM     14  C   UNL     1      -1.378   3.428  -3.600  0.00  0.00    +0.244 C 
ATOM     15  O   UNL     1      -2.473   3.069  -3.993  0.00  0.00    -0.270 OA
ATOM     16  N   UNL     1      -0.306   3.329  -4.411  0.00  0.00    -0.325 N 
ATOM     17  H   UNL     1      -0.420   2.925  -5.427  0.00  0.00    +0.145 HD
ATOM     18  H   UNL     1       0.683   3.654  -4.055  0.00  0.00    +0.145 HD
ENDBRANCH   6  14
ENDBRANCH   3   5
BRANCH   1  19
ATOM     19  C   UNL     1      -2.040   8.726  -3.427  0.00  0.00    +0.173 C 
BRANCH  19  20
ATOM     20  S   UNL     1      -2.099  10.305  -2.545  0.00  0.00    -0.077 S 
BRANCH  20  25
ATOM     21  N   UNL     1      -2.630  12.744  -3.810  0.00  0.00    -0.302 N 
ATOM     22  C   UNL     1      -2.888  13.155  -5.088  0.00  0.00    +0.139 A 
ATOM     23  N   UNL     1      -2.876  12.096  -5.847  0.00  0.00    -0.133 NA
ATOM     24  N   UNL     1      -2.624  11.051  -5.142  0.00  0.00    -0.122 NA
ATOM     25  C   UNL     1      -2.461  11.391  -3.884  0.00  0.00    +0.192 A 
BRANCH  22  26
ATOM     26  C   UNL     1      -3.145  14.572  -5.535  0.00  0.00    +0.079 C 
ATOM     27  C   UNL     1      -2.079  14.983  -6.564  0.00  0.00    +0.035 C 
ATOM     28  C   UNL     1      -2.540  16.309  -7.235  0.00  0.00    +0.166 C 
ATOM     29  S   UNL     1      -4.340  15.973  -7.442  0.00  0.00    -0.030 S 
ATOM     30  O   UNL     1      -4.560  15.410  -8.728  0.00  0.00    -0.174 OA
ATOM     31  O   UNL     1      -5.074  17.124  -7.047  0.00  0.00    -0.174 OA
ATOM     32  C   UNL     1      -4.553  14.662  -6.170  0.00  0.00    +0.177 C 
ENDBRANCH  22  26
BRANCH  21  33
ATOM     33  C   UNL     1      -2.548  13.581  -2.610  0.00  0.00    +0.152 C 
BRANCH  33  35
ATOM     34  C   UNL     1      -0.875  15.335  -2.319  0.00  0.00    +0.005 C 
ATOM     35  C   UNL     1      -1.130  14.054  -2.424  0.00  0.00    -0.013 C 
ENDBRANCH  33  35
ENDBRANCH  21  33
ENDBRANCH  20  25
ENDBRANCH  19  20
ENDBRANCH   1  19
TORSDOF 8
