REMARK  Name = ZINC05423360
REMARK  7 active torsions:
REMARK  status: ('A' for Active; 'I' for Inactive)
REMARK    1  A    between atoms: C_1  and  O_2
REMARK    2  A    between atoms: O_2  and  C_3
REMARK    3  A    between atoms: C_8  and  N_9
REMARK    4  A    between atoms: N_9  and  C_10
REMARK    5  A    between atoms: C_10  and  C_12
REMARK    6  A    between atoms: C_10  and  C_18
REMARK    7  A    between atoms: C_27  and  O_28
REMARK                            x       y       z     vdW  Elec       q    Type
REMARK                         _______ _______ _______ _____ _____    ______ ____
ROOT
ATOM      1  C   UNL     1       0.002  -0.004   0.002  0.00  0.00    +0.135 C 
ENDROOT
BRANCH   1   2
ATOM      2  C   UNL     1      -0.372  -0.443  -1.390  0.00  0.00    +0.021 A 
ATOM      3  C   UNL     1      -1.716  -0.594  -1.723  0.00  0.00    +0.010 A 
ATOM      4  C   UNL     1      -2.087  -0.989  -2.973  0.00  0.00    +0.010 A 
ATOM      5  C   UNL     1      -1.104  -1.249  -3.942  0.00  0.00    +0.004 A 
ATOM      6  C   UNL     1      -1.450  -1.660  -5.243  0.00  0.00    +0.011 A 
ATOM      7  C   UNL     1      -0.441  -1.894  -6.134  0.00  0.00    +0.020 A 
ATOM      8  C   UNL     1       0.885  -1.726  -5.741  0.00  0.00    +0.111 A 
ATOM      9  N   UNL     1       1.203  -1.344  -4.528  0.00  0.00    -0.251 NA
ATOM     10  C   UNL     1       0.264  -1.098  -3.610  0.00  0.00    +0.113 A 
ATOM     11  C   UNL     1       0.611  -0.682  -2.307  0.00  0.00    +0.148 A 
BRANCH  11  12
ATOM     12  O   UNL     1       1.916  -0.524  -1.966  0.00  0.00    -0.504 OA
ATOM     13  H   UNL     1       2.329  -1.322  -1.610  0.00  0.00    +0.292 HD
ENDBRANCH  11  12
ENDBRANCH   1   2
BRANCH   1  14
ATOM     14  C   UNL     1       0.139   1.496   0.035  0.00  0.00    -0.023 A 
ATOM     15  C   UNL     1      -0.988   2.292   0.119  0.00  0.00    +0.006 A 
ATOM     16  C   UNL     1      -0.862   3.668   0.154  0.00  0.00    +0.000 A 
ATOM     17  C   UNL     1       0.391   4.249   0.096  0.00  0.00    +0.000 A 
ATOM     18  C   UNL     1       1.518   3.454   0.008  0.00  0.00    +0.000 A 
ATOM     19  C   UNL     1       1.392   2.077  -0.023  0.00  0.00    +0.006 A 
ENDBRANCH   1  14
BRANCH   1  20
ATOM     20  N   UNL     1      -1.041  -0.420   0.943  0.00  0.00    -0.330 N 
ATOM     21  H   UNL     1      -1.949  -0.559   0.630  0.00  0.00    +0.147 HD
BRANCH  20  27
ATOM     22  C   UNL     1      -1.720  -1.007   3.190  0.00  0.00    +0.141 A 
ATOM     23  C   UNL     1      -1.404  -1.206   4.523  0.00  0.00    +0.047 A 
ATOM     24  C   UNL     1      -0.108  -1.007   4.964  0.00  0.00    +0.004 A 
ATOM     25  C   UNL     1       0.875  -0.614   4.076  0.00  0.00    +0.002 A 
ATOM     26  C   UNL     1       0.569  -0.419   2.742  0.00  0.00    +0.026 A 
ATOM     27  C   UNL     1      -0.729  -0.617   2.292  0.00  0.00    +0.070 A 
BRANCH  22  29
ATOM     28  C   UNL     1      -3.960  -1.597   3.732  0.00  0.00    +0.277 C 
ATOM     29  O   UNL     1      -2.995  -1.198   2.756  0.00  0.00    -0.493 OA
ENDBRANCH  22  29
ENDBRANCH  20  27
ENDBRANCH   1  20
TORSDOF 6
