REMARK  Name = ZINC62977215
REMARK  11 active torsions:
REMARK  status: ('A' for Active; 'I' for Inactive)
REMARK    1  A    between atoms: C_1  and  C_2
REMARK    2  A    between atoms: C_2  and  N_3
REMARK    3  A    between atoms: N_3  and  C_4
REMARK    4  A    between atoms: N_3  and  C_6
REMARK    5  A    between atoms: C_4  and  C_5
REMARK    6  A    between atoms: C_9  and  C_12
REMARK    7  A    between atoms: C_19  and  O_37
REMARK    8  A    between atoms: C_20  and  C_23
REMARK    9  A    between atoms: C_23  and  N_24
REMARK   10  A    between atoms: N_27  and  C_30
REMARK   11  A    between atoms: C_30  and  C_31
REMARK                            x       y       z     vdW  Elec       q    Type
REMARK                         _______ _______ _______ _____ _____    ______ ____
ROOT
ATOM      1  C   UNL     1       1.191  -6.103   0.932  0.00  0.00    +0.058 C 
ATOM      2  C   UNL     1       2.416  -6.675   0.829  0.00  0.00    +0.176 C 
ATOM      3  C   UNL     1       2.694  -8.108   0.643  0.00  0.00    +0.231 C 
ATOM      4  O   UNL     1       1.889  -9.018   0.551  0.00  0.00    -0.283 OA
ATOM      5  C   UNL     1       4.165  -8.195   0.594  0.00  0.00    +0.068 A 
ATOM      6  C   UNL     1       5.053  -9.261   0.438  0.00  0.00    +0.019 A 
ATOM      7  C   UNL     1       6.399  -9.029   0.431  0.00  0.00    +0.046 A 
ATOM      8  C   UNL     1       6.887  -7.734   0.580  0.00  0.00    +0.122 A 
ATOM      9  C   UNL     1       6.017  -6.667   0.736  0.00  0.00    +0.020 A 
ATOM     10  C   UNL     1       4.645  -6.885   0.744  0.00  0.00    +0.144 A 
ATOM     11  O   UNL     1       3.606  -6.030   0.873  0.00  0.00    -0.451 OA
ENDROOT
BRANCH   1  15
ATOM     12  C   UNL     1       0.830  -1.881   1.112  0.00  0.00    +0.013 A 
ATOM     13  C   UNL     1       2.085  -2.467   1.136  0.00  0.00    +0.022 A 
ATOM     14  C   UNL     1       2.211  -3.838   1.077  0.00  0.00    +0.010 A 
ATOM     15  C   UNL     1       1.066  -4.639   0.995  0.00  0.00    -0.021 A 
ATOM     16  C   UNL     1      -0.198  -4.040   0.972  0.00  0.00    +0.010 A 
ATOM     17  C   UNL     1      -0.307  -2.667   1.036  0.00  0.00    +0.022 A 
BRANCH  12  18
ATOM     18  N   UNL     1       0.712  -0.490   1.171  0.00  0.00    -0.394 NA
ATOM     19  H   UNL     1      -0.264  -0.234   1.149  0.00  0.00    +0.126 HD
BRANCH  18  21
ATOM     20  C   UNL     1       1.078   1.507   2.541  0.00  0.00    +0.022 C 
ATOM     21  C   UNL     1       1.317   0.001   2.417  0.00  0.00    +0.081 C 
ENDBRANCH  18  21
BRANCH  18  22
ATOM     22  C   UNL     1       1.402   0.110   0.022  0.00  0.00    +0.081 C 
ATOM     23  C   UNL     1       0.693  -0.302  -1.270  0.00  0.00    +0.022 C 
ENDBRANCH  18  22
ENDBRANCH  12  18
ENDBRANCH   1  15
BRANCH   8  24
ATOM     24  O   UNL     1       8.226  -7.514   0.573  0.00  0.00    -0.506 OA
ATOM     25  H   UNL     1       8.592  -7.341  -0.305  0.00  0.00    +0.292 HD
ENDBRANCH   8  24
BRANCH   9  26
ATOM     26  C   UNL     1       6.559  -5.270   0.896  0.00  0.00    -0.035 C 
BRANCH  26  27
ATOM     27  N   UNL     1       6.700  -4.644  -0.426  0.00  0.00    +0.384 N 
ATOM     28  C   UNL     1       7.713  -5.369  -1.205  0.00  0.00    -0.063 C 
ATOM     29  C   UNL     1       7.846  -4.730  -2.589  0.00  0.00    +0.066 C 
ATOM     30  N   UNL     1       8.235  -3.320  -2.438  0.00  0.00    -0.302 NA
ATOM     31  C   UNL     1       7.242  -2.587  -1.639  0.00  0.00    +0.066 C 
ATOM     32  C   UNL     1       7.114  -3.244  -0.264  0.00  0.00    -0.063 C 
ATOM     33  H   UNL     1       5.815  -4.679  -0.910  0.00  0.00    -0.081 HD
BRANCH  30  34
ATOM     34  C   UNL     1       8.429  -2.685  -3.749  0.00  0.00    +0.119 C 
BRANCH  34  35
ATOM     35  C   UNL     1       9.058  -1.329  -3.561  0.00  0.00    -0.033 A 
ATOM     36  C   UNL     1       8.259  -0.213  -3.391  0.00  0.00    +0.005 A 
ATOM     37  C   UNL     1       8.836   1.031  -3.219  0.00  0.00    +0.000 A 
ATOM     38  C   UNL     1      10.213   1.160  -3.217  0.00  0.00    +0.000 A 
ATOM     39  C   UNL     1      11.011   0.044  -3.386  0.00  0.00    +0.000 A 
ATOM     40  C   UNL     1      10.434  -1.200  -3.554  0.00  0.00    +0.005 A 
ENDBRANCH  34  35
ENDBRANCH  30  34
ENDBRANCH  26  27
ENDBRANCH   9  26
TORSDOF 9
