REMARK  Name = ZINC09663312
REMARK  7 active torsions:
REMARK  status: ('A' for Active; 'I' for Inactive)
REMARK    1  A    between atoms: C_4  and  C_7
REMARK    2  A    between atoms: C_7  and  N_8
REMARK    3  A    between atoms: C_9  and  C_28
REMARK    4  A    between atoms: C_12  and  S_13
REMARK    5  A    between atoms: S_13  and  C_14
REMARK    6  A    between atoms: C_14  and  C_16
REMARK    7  A    between atoms: C_14  and  C_22
REMARK                            x       y       z     vdW  Elec       q    Type
REMARK                         _______ _______ _______ _____ _____    ______ ____
ROOT
ATOM      1  N   UNL     1       1.078   2.301   0.004  0.00  0.00    -0.295 N 
ATOM      2  C   UNL     1      -0.018   1.467   0.010  0.00  0.00    +0.201 A 
ATOM      3  N   UNL     1      -1.086   2.235   0.019  0.00  0.00    -0.125 NA
ATOM      4  N   UNL     1      -0.736   3.471   0.027  0.00  0.00    -0.122 NA
ATOM      5  C   UNL     1       0.574   3.572   0.015  0.00  0.00    +0.193 A 
ENDROOT
BRANCH   2   6
ATOM      6  C   UNL     1       0.002  -0.004   0.002  0.00  0.00    +0.172 A 
ATOM      7  C   UNL     1      -1.048  -0.820   0.298  0.00  0.00    +0.053 A 
ATOM      8  C   UNL     1      -0.584  -2.143   0.163  0.00  0.00    +0.042 A 
ATOM      9  C   UNL     1       0.713  -2.073  -0.198  0.00  0.00    +0.196 A 
ATOM     10  O   UNL     1       1.064  -0.780  -0.294  0.00  0.00    -0.460 OA
ENDBRANCH   2   6
BRANCH   1  11
ATOM     11  C   UNL     1       2.490   1.909  -0.011  0.00  0.00    +0.161 C 
BRANCH  11  15
ATOM     12  C   UNL     1       3.826   1.547  -4.052  0.00  0.00    +0.000 A 
ATOM     13  C   UNL     1       3.930   2.759  -3.395  0.00  0.00    +0.000 A 
ATOM     14  C   UNL     1       3.497   2.876  -2.088  0.00  0.00    +0.005 A 
ATOM     15  C   UNL     1       2.961   1.781  -1.436  0.00  0.00    -0.028 A 
ATOM     16  C   UNL     1       2.861   0.568  -2.091  0.00  0.00    +0.005 A 
ATOM     17  C   UNL     1       3.289   0.452  -3.401  0.00  0.00    +0.000 A 
ENDBRANCH  11  15
ENDBRANCH   1  11
BRANCH   5  18
ATOM     18  S   UNL     1       1.507   5.066   0.015  0.00  0.00    -0.068 S 
BRANCH  18  19
ATOM     19  C   UNL     1       0.162   6.277   0.033  0.00  0.00    +0.170 C 
BRANCH  19  20
ATOM     20  C   UNL     1       0.734   7.666  -0.088  0.00  0.00    +0.238 C 
ATOM     21  O   UNL     1       1.899   7.867   0.182  0.00  0.00    -0.274 OA
ATOM     22  N   UNL     1      -0.049   8.684  -0.497  0.00  0.00    -0.239 N 
ATOM     23  C   UNL     1       0.463   9.926  -0.606  0.00  0.00    +0.303 C 
ATOM     24  O   UNL     1       1.631  10.128  -0.335  0.00  0.00    -0.253 OA
ATOM     25  N   UNL     1      -0.320  10.944  -1.015  0.00  0.00    -0.313 N 
ATOM     26  H   UNL     1      -0.981   8.523  -0.713  0.00  0.00    +0.159 HD
ATOM     27  H   UNL     1      -1.251  10.783  -1.231  0.00  0.00    +0.146 HD
ATOM     28  H   UNL     1       0.049  11.838  -1.093  0.00  0.00    +0.146 HD
ENDBRANCH  19  20
BRANCH  19  29
ATOM     29  C   UNL     1      -0.602   6.160   1.327  0.00  0.00    -0.025 A 
ATOM     30  C   UNL     1       0.046   6.356   2.532  0.00  0.00    +0.005 A 
ATOM     31  C   UNL     1      -0.656   6.252   3.719  0.00  0.00    +0.000 A 
ATOM     32  C   UNL     1      -2.003   5.944   3.701  0.00  0.00    +0.000 A 
ATOM     33  C   UNL     1      -2.650   5.744   2.495  0.00  0.00    +0.000 A 
ATOM     34  C   UNL     1      -1.949   5.851   1.309  0.00  0.00    +0.005 A 
ENDBRANCH  19  29
ENDBRANCH  18  19
ENDBRANCH   5  18
TORSDOF 7
