REMARK  Name = ZINC63296123
REMARK  10 active torsions:
REMARK  status: ('A' for Active; 'I' for Inactive)
REMARK    1  A    between atoms: C_1  and  O_2
REMARK    2  A    between atoms: O_2  and  C_3
REMARK    3  A    between atoms: C_6  and  C_9
REMARK    4  A    between atoms: C_13  and  C_35
REMARK    5  A    between atoms: N_15  and  C_22
REMARK    6  A    between atoms: C_22  and  C_23
REMARK    7  A    between atoms: C_23  and  C_24
REMARK    8  A    between atoms: C_27  and  O_33
REMARK    9  A    between atoms: O_33  and  C_34
REMARK   10  A    between atoms: C_39  and  O_41
REMARK                            x       y       z     vdW  Elec       q    Type
REMARK                         _______ _______ _______ _____ _____    ______ ____
ROOT
ATOM      1  C   UNL     1      -4.981  -2.629   0.035  0.00  0.00    +0.136 C 
ATOM      2  C   UNL     1      -5.367  -3.078  -1.327  0.00  0.00    +0.077 C 
ATOM      3  C   UNL     1      -5.175  -2.580  -2.709  0.00  0.00    +0.114 C 
ATOM      4  N   UNL     1      -5.202  -3.861  -3.487  0.00  0.00    -0.292 N 
ATOM      5  C   UNL     1      -4.841  -4.902  -2.668  0.00  0.00    +0.243 C 
ATOM      6  O   UNL     1      -4.921  -6.085  -2.920  0.00  0.00    -0.273 OA
ATOM      7  C   UNL     1      -4.311  -4.272  -1.409  0.00  0.00    +0.218 C 
ATOM      8  N   UNL     1      -4.576  -4.867  -0.106  0.00  0.00    -0.203 NA
ATOM      9  N   UNL     1      -4.894  -3.962   0.716  0.00  0.00    -0.305 N 
ATOM     10  H   UNL     1      -5.059  -4.109   1.660  0.00  0.00    +0.183 HD
ENDROOT
BRANCH   1  14
ATOM     11  C   UNL     1      -1.200  -0.637   0.009  0.00  0.00    +0.120 A 
ATOM     12  C   UNL     1      -1.257  -2.020   0.112  0.00  0.00    +0.046 A 
ATOM     13  C   UNL     1      -2.480  -2.661   0.121  0.00  0.00    +0.009 A 
ATOM     14  C   UNL     1      -3.648  -1.927   0.026  0.00  0.00    -0.023 A 
ATOM     15  C   UNL     1      -3.594  -0.549  -0.077  0.00  0.00    +0.009 A 
ATOM     16  C   UNL     1      -2.373   0.098  -0.080  0.00  0.00    +0.046 A 
BRANCH  11  18
ATOM     17  C   UNL     1       1.168  -0.825   0.096  0.00  0.00    +0.277 C 
ATOM     18  O   UNL     1       0.002  -0.004   0.001  0.00  0.00    -0.495 OA
ENDBRANCH  11  18
ENDBRANCH   1  14
BRANCH   3  19
ATOM     19  C   UNL     1      -6.305  -1.672  -3.120  0.00  0.00    -0.023 A 
ATOM     20  C   UNL     1      -7.509  -2.211  -3.534  0.00  0.00    +0.006 A 
ATOM     21  C   UNL     1      -8.548  -1.381  -3.911  0.00  0.00    +0.004 A 
ATOM     22  C   UNL     1      -8.385  -0.009  -3.876  0.00  0.00    +0.045 A 
ATOM     23  C   UNL     1      -7.178   0.534  -3.461  0.00  0.00    +0.117 A 
ATOM     24  C   UNL     1      -6.139  -0.301  -3.077  0.00  0.00    +0.051 A 
BRANCH  23  25
ATOM     25  O   UNL     1      -7.015   1.883  -3.425  0.00  0.00    -0.507 OA
ATOM     26  H   UNL     1      -7.261   2.287  -2.581  0.00  0.00    +0.292 HD
ENDBRANCH  23  25
ENDBRANCH   3  19
BRANCH   4  27
ATOM     27  C   UNL     1      -5.560  -3.984  -4.902  0.00  0.00    +0.113 C 
BRANCH  27  28
ATOM     28  C   UNL     1      -4.302  -3.834  -5.761  0.00  0.00    +0.052 C 
BRANCH  28  29
ATOM     29  C   UNL     1      -4.670  -3.960  -7.217  0.00  0.00    -0.040 C 
ATOM     30  C   UNL     1      -4.934  -2.952  -8.079  0.00  0.00    +0.002 A 
ATOM     31  C   UNL     1      -4.960  -1.493  -7.926  0.00  0.00    +0.055 A 
ATOM     32  C   UNL     1      -5.267  -0.716  -8.993  0.00  0.00    +0.121 A 
ATOM     33  C   UNL     1      -5.567  -1.258 -10.255  0.00  0.00    +0.047 A 
ATOM     34  C   UNL     1      -5.570  -2.587 -10.493  0.00  0.00    +0.029 A 
ATOM     35  C   UNL     1      -5.251  -3.522  -9.409  0.00  0.00    +0.043 A 
ATOM     36  N   UNL     1      -5.184  -4.829  -9.370  0.00  0.00    -0.380 N 
ATOM     37  C   UNL     1      -4.811  -5.239  -8.011  0.00  0.00    +0.144 C 
ATOM     38  H   UNL     1      -5.350  -5.427 -10.116  0.00  0.00    +0.160 HD
BRANCH  32  39
ATOM     39  O   UNL     1      -5.287   0.634  -8.837  0.00  0.00    -0.495 OA
ATOM     40  C   UNL     1      -5.617   1.415  -9.988  0.00  0.00    +0.277 C 
ENDBRANCH  32  39
ENDBRANCH  28  29
ENDBRANCH  27  28
ENDBRANCH   4  27
TORSDOF 8
