REMARK  Name = ZINC06410028
REMARK  12 active torsions:
REMARK  status: ('A' for Active; 'I' for Inactive)
REMARK    1  A    between atoms: C_1  and  C_2
REMARK    2  A    between atoms: C_7  and  C_14
REMARK    3  A    between atoms: C_14  and  C_16
REMARK    4  A    between atoms: C_14  and  N_64
REMARK    5  A    between atoms: N_20  and  C_21
REMARK    6  A    between atoms: C_21  and  C_22
REMARK    7  A    between atoms: C_22  and  O_23
REMARK    8  A    between atoms: O_23  and  C_24
REMARK    9  A    between atoms: C_25  and  C_26
REMARK   10  A    between atoms: C_25  and  N_64
REMARK   11  A    between atoms: C_32  and  C_33
REMARK   12  A    between atoms: C_32  and  N_64
REMARK                            x       y       z     vdW  Elec       q    Type
REMARK                         _______ _______ _______ _____ _____    ______ ____
ROOT
ATOM      1  C   UNL     1       4.978   1.317   0.178  0.00  0.00    +0.040 C 
ENDROOT
BRANCH   1   8
ATOM      2  C   UNL     1      -1.070   6.282   1.724  0.00  0.00    +0.044 C 
ATOM      3  C   UNL     1      -0.088   5.175   1.436  0.00  0.00    -0.048 A 
ATOM      4  C   UNL     1      -0.540   3.866   1.334  0.00  0.00    +0.004 A 
ATOM      5  C   UNL     1       0.334   2.847   1.080  0.00  0.00    +0.010 A 
ATOM      6  C   UNL     1       1.693   3.127   0.908  0.00  0.00    -0.001 A 
ATOM      7  C   UNL     1       2.656   2.060   0.627  0.00  0.00    +0.017 A 
ATOM      8  C   UNL     1       3.961   2.391   0.468  0.00  0.00    +0.011 A 
ATOM      9  C   UNL     1       4.372   3.737   0.575  0.00  0.00    +0.251 A 
ATOM     10  O   UNL     1       5.550   4.012   0.429  0.00  0.00    -0.268 OA
ATOM     11  N   UNL     1       3.495   4.723   0.833  0.00  0.00    -0.322 N 
ATOM     12  H   UNL     1       3.811   5.638   0.899  0.00  0.00    +0.169 HD
ATOM     13  C   UNL     1       2.154   4.453   1.004  0.00  0.00    +0.049 A 
ATOM     14  C   UNL     1       1.246   5.474   1.270  0.00  0.00    +0.029 A 
ENDBRANCH   1   8
BRANCH   1  15
ATOM     15  C   UNL     1       5.912   1.179   1.352  0.00  0.00    +0.143 A 
ATOM     16  N   UNL     1       6.883   1.996   1.680  0.00  0.00    -0.115 NA
ATOM     17  N   UNL     1       7.448   1.536   2.743  0.00  0.00    -0.023 NA
ATOM     18  N   UNL     1       6.867   0.443   3.097  0.00  0.00    -0.044 NA
ATOM     19  N   UNL     1       5.915   0.189   2.265  0.00  0.00    -0.228 N 
BRANCH  19  20
ATOM     20  C   UNL     1       5.008  -0.960   2.305  0.00  0.00    +0.175 C 
BRANCH  20  21
ATOM     21  C   UNL     1       5.609  -2.114   1.499  0.00  0.00    +0.183 C 
BRANCH  21  22
ATOM     22  O   UNL     1       4.724  -3.235   1.538  0.00  0.00    -0.381 OA
ATOM     23  C   UNL     1       5.194  -4.372   0.812  0.00  0.00    +0.194 C 
ENDBRANCH  21  22
ENDBRANCH  20  21
ENDBRANCH  19  20
ENDBRANCH   1  15
BRANCH   1  24
ATOM     24  N   UNL     1       5.758   1.708  -1.015  0.00  0.00    +0.395 N 
ATOM     25  H   UNL     1       6.143   2.648  -0.868  0.00  0.00    -0.079 HD
BRANCH  24  26
ATOM     26  C   UNL     1       4.883   1.729  -2.206  0.00  0.00    -0.041 C 
BRANCH  26  27
ATOM     27  C   UNL     1       4.326   0.355  -2.477  0.00  0.00    -0.064 A 
ATOM     28  C   UNL     1       5.023  -0.527  -3.281  0.00  0.00    +0.002 A 
ATOM     29  C   UNL     1       4.514  -1.789  -3.526  0.00  0.00    +0.000 A 
ATOM     30  C   UNL     1       3.304  -2.166  -2.974  0.00  0.00    +0.000 A 
ATOM     31  C   UNL     1       2.604  -1.281  -2.174  0.00  0.00    +0.000 A 
ATOM     32  C   UNL     1       3.115  -0.021  -1.925  0.00  0.00    +0.002 A 
ENDBRANCH  26  27
ENDBRANCH  24  26
BRANCH  24  33
ATOM     33  C   UNL     1       6.872   0.759  -1.224  0.00  0.00    -0.034 C 
BRANCH  33  34
ATOM     34  C   UNL     1       7.850   1.368  -2.195  0.00  0.00    -0.027 A 
ATOM     35  C   UNL     1       8.859   2.241  -1.956  0.00  0.00    +0.009 A 
ATOM     36  C   UNL     1       9.639   2.670  -3.014  0.00  0.00    +0.008 A 
ATOM     37  C   UNL     1       9.373   2.203  -4.258  0.00  0.00    +0.045 A 
ATOM     38  S   UNL     1       7.987   1.119  -3.958  0.00  0.00    -0.103 S 
ENDBRANCH  33  34
ENDBRANCH  24  33
ENDBRANCH   1  24
TORSDOF 10
