REMARK  Name = ZINC00207367
REMARK  5 active torsions:
REMARK  status: ('A' for Active; 'I' for Inactive)
REMARK    1  A    between atoms: C_1  and  C_2
REMARK    2  A    between atoms: C_2  and  C_3
REMARK    3  A    between atoms: C_2  and  O_4
REMARK    4  A    between atoms: O_4  and  C_5
REMARK    5  A    between atoms: C_8  and  C_11
REMARK                            x       y       z     vdW  Elec       q    Type
REMARK                         _______ _______ _______ _____ _____    ______ ____
ROOT
ATOM      1  C   UNL     1       1.063   2.217  -0.219  0.00  0.00    +0.121 A 
ATOM      2  C   UNL     1       2.290   1.646  -0.525  0.00  0.00    +0.046 A 
ATOM      3  C   UNL     1       3.386   2.454  -0.763  0.00  0.00    +0.009 A 
ATOM      4  C   UNL     1       3.263   3.829  -0.684  0.00  0.00    -0.018 A 
ATOM      5  C   UNL     1       2.042   4.399  -0.373  0.00  0.00    +0.009 A 
ATOM      6  C   UNL     1       0.943   3.596  -0.140  0.00  0.00    +0.046 A 
ENDROOT
BRANCH   4   7
ATOM      7  C   UNL     1       4.461   4.707  -0.938  0.00  0.00    +0.191 C 
ATOM      8  C   UNL     1       5.418   4.656   0.237  0.00  0.00    +0.245 C 
ATOM      9  O   UNL     1       5.194   4.993   1.379  0.00  0.00    -0.273 OA
ATOM     10  N   UNL     1       6.570   4.157  -0.254  0.00  0.00    -0.238 N 
ATOM     11  C   UNL     1       6.475   3.889  -1.561  0.00  0.00    +0.307 C 
ATOM     12  O   UNL     1       7.385   3.433  -2.225  0.00  0.00    -0.252 OA
ATOM     13  N   UNL     1       5.260   4.182  -2.059  0.00  0.00    -0.284 N 
ATOM     14  H   UNL     1       7.370   4.011   0.276  0.00  0.00    +0.159 HD
ATOM     15  H   UNL     1       4.967   4.070  -2.977  0.00  0.00    +0.151 HD
ENDBRANCH   4   7
BRANCH   1  16
ATOM     16  O   UNL     1      -0.017   1.425   0.010  0.00  0.00    -0.489 OA
BRANCH  16  18
ATOM     17  C   UNL     1      -0.882  -0.663   0.866  0.00  0.00    +0.051 C 
ATOM     18  C   UNL     1       0.205   0.013   0.028  0.00  0.00    +0.167 C 
ATOM     19  C   UNL     1       0.159  -0.529  -1.402  0.00  0.00    +0.051 C 
ENDBRANCH  16  18
ENDBRANCH   1  16
TORSDOF 3
