REMARK  Name = ZINC13568665
REMARK  4 active torsions:
REMARK  status: ('A' for Active; 'I' for Inactive)
REMARK    1  A    between atoms: C_1  and  O_2
REMARK    2  A    between atoms: O_2  and  C_3
REMARK    3  A    between atoms: C_8  and  C_9
REMARK    4  A    between atoms: C_14  and  C_24
REMARK                            x       y       z     vdW  Elec       q    Type
REMARK                         _______ _______ _______ _____ _____    ______ ____
ROOT
ATOM      1  C   UNL     1       0.052  -2.796  -0.126  0.00  0.00    +0.035 C 
ATOM      2  C   UNL     1       0.104  -3.700  -1.357  0.00  0.00    +0.060 C 
ATOM      3  C   UNL     1       1.370  -4.540  -1.331  0.00  0.00    +0.017 C 
ATOM      4  C   UNL     1       1.900  -4.935  -0.161  0.00  0.00    +0.036 C 
ATOM      5  C   UNL     1       3.149  -5.766   0.010  0.00  0.00    +0.136 C 
ATOM      6  N   UNL     1       3.643  -6.362  -1.213  0.00  0.00    -0.331 N 
ATOM      7  C   UNL     1       4.106  -5.569  -2.260  0.00  0.00    +0.049 A 
ATOM      8  C   UNL     1       5.439  -5.585  -2.642  0.00  0.00    +0.025 A 
ATOM      9  C   UNL     1       5.867  -4.745  -3.655  0.00  0.00    +0.002 A 
ATOM     10  C   UNL     1       4.977  -3.891  -4.280  0.00  0.00    +0.002 A 
ATOM     11  C   UNL     1       3.642  -3.884  -3.914  0.00  0.00    +0.025 A 
ATOM     12  C   UNL     1       3.208  -4.741  -2.918  0.00  0.00    +0.052 A 
ATOM     13  N   UNL     1       1.870  -4.846  -2.556  0.00  0.00    -0.316 N 
ATOM     14  C   UNL     1       1.291  -4.562   1.060  0.00  0.00    +0.163 C 
ATOM     15  O   UNL     1       1.777  -4.956   2.102  0.00  0.00    -0.292 OA
ATOM     16  C   UNL     1       0.067  -3.697   1.115  0.00  0.00    +0.088 C 
ATOM     17  H   UNL     1       3.651  -7.327  -1.305  0.00  0.00    +0.147 HD
ATOM     18  H   UNL     1       1.247  -5.162  -3.228  0.00  0.00    +0.152 HD
ENDROOT
BRANCH   5  19
ATOM     19  C   UNL     1       4.232  -4.891   0.587  0.00  0.00    -0.019 A 
ATOM     20  C   UNL     1       4.704  -3.811  -0.137  0.00  0.00    +0.009 A 
ATOM     21  C   UNL     1       5.694  -3.002   0.389  0.00  0.00    +0.050 A 
ATOM     22  C   UNL     1       6.222  -3.277   1.640  0.00  0.00    +0.166 A 
ATOM     23  C   UNL     1       5.750  -4.367   2.367  0.00  0.00    +0.167 A 
ATOM     24  C   UNL     1       4.754  -5.171   1.835  0.00  0.00    +0.055 A 
ATOM     25  O   UNL     1       6.422  -4.425   3.554  0.00  0.00    -0.453 OA
ATOM     26  C   UNL     1       7.019  -3.125   3.720  0.00  0.00    +0.466 C 
ATOM     27  O   UNL     1       7.190  -2.652   2.372  0.00  0.00    -0.453 OA
ENDBRANCH   5  19
BRANCH   1  33
ATOM     28  C   UNL     1      -1.143  -0.592  -0.167  0.00  0.00    +0.124 A 
ATOM     29  C   UNL     1      -2.309   0.159  -0.181  0.00  0.00    +0.046 A 
ATOM     30  C   UNL     1      -3.537  -0.473  -0.185  0.00  0.00    +0.004 A 
ATOM     31  C   UNL     1      -3.604  -1.854  -0.166  0.00  0.00    +0.001 A 
ATOM     32  C   UNL     1      -2.444  -2.605  -0.146  0.00  0.00    +0.007 A 
ATOM     33  C   UNL     1      -1.213  -1.977  -0.147  0.00  0.00    -0.002 A 
BRANCH  28  35
ATOM     34  C   UNL     1       0.063   1.457  -0.190  0.00  0.00    +0.277 C 
ATOM     35  O   UNL     1       0.067   0.028  -0.168  0.00  0.00    -0.495 OA
ENDBRANCH  28  35
ENDBRANCH   1  33
TORSDOF 3
