REMARK  Name = ZINC39609554
REMARK  13 active torsions:
REMARK  status: ('A' for Active; 'I' for Inactive)
REMARK    1  A    between atoms: C_1  and  C_2
REMARK    2  A    between atoms: C_2  and  O_3
REMARK    3  A    between atoms: O_3  and  C_4
REMARK    4  A    between atoms: C_8  and  C_10
REMARK    5  A    between atoms: C_10  and  C_11
REMARK    6  A    between atoms: C_11  and  N_12
REMARK    7  A    between atoms: C_13  and  C_15
REMARK    8  A    between atoms: C_26  and  C_28
REMARK    9  A    between atoms: C_30  and  C_37
REMARK   10  A    between atoms: N_32  and  C_33
REMARK   11  A    between atoms: C_33  and  C_34
REMARK   12  A    between atoms: C_33  and  C_35
REMARK   13  A    between atoms: C_33  and  C_36
REMARK                            x       y       z     vdW  Elec       q    Type
REMARK                         _______ _______ _______ _____ _____    ______ ____
ROOT
ATOM      1  C   UNL     1       1.930  -6.196  -8.628  0.00  0.00    +0.100 C 
ATOM      2  C   UNL     1       3.061  -5.172  -8.872  0.00  0.00    +0.121 C 
ATOM      3  N   UNL     1       3.118  -5.021 -10.345  0.00  0.00    -0.295 N 
ATOM      4  C   UNL     1       1.699  -5.037 -10.772  0.00  0.00    +0.115 C 
ATOM      5  C   UNL     1       1.038  -6.103  -9.877  0.00  0.00    -0.004 C 
ATOM      6  C   UNL     1       0.998  -7.447 -10.598  0.00  0.00    -0.010 C 
ATOM      7  C   UNL     1       0.060  -7.346 -11.805  0.00  0.00    -0.082 C 
ATOM      8  N   UNL     1      -1.285  -6.972 -11.351  0.00  0.00    +0.379 N 
ATOM      9  C   UNL     1      -1.254  -5.637 -10.740  0.00  0.00    -0.082 C 
ATOM     10  C   UNL     1      -0.372  -5.666  -9.489  0.00  0.00    -0.010 C 
ATOM     11  C   UNL     1       4.213  -4.897 -11.121  0.00  0.00    +0.265 C 
ATOM     12  O   UNL     1       4.095  -4.790 -12.326  0.00  0.00    -0.268 OA
ATOM     13  H   UNL     1      -1.915  -6.965 -12.139  0.00  0.00    -0.086 HD
ATOM     14  H   UNL     1      -1.608  -7.644 -10.671  0.00  0.00    -0.086 HD
ENDROOT
BRANCH  11  15
ATOM     15  C   UNL     1       5.552  -4.892 -10.509  0.00  0.00    +0.124 A 
ATOM     16  C   UNL     1       5.848  -4.792  -9.161  0.00  0.00    +0.057 A 
ATOM     17  C   UNL     1       7.242  -4.832  -9.085  0.00  0.00    +0.061 A 
ATOM     18  N   UNL     1       7.708  -4.946 -10.303  0.00  0.00    -0.175 NA
ATOM     19  N   UNL     1       6.750  -4.990 -11.158  0.00  0.00    -0.254 N 
ATOM     20  C   UNL     1       8.065  -4.756  -7.824  0.00  0.00    +0.067 C 
BRANCH  19  21
ATOM     21  C   UNL     1       6.917  -5.121 -12.607  0.00  0.00    +0.056 C 
ATOM     22  C   UNL     1       6.393  -3.860 -13.297  0.00  0.00    +0.036 C 
ATOM     23  C   UNL     1       8.400  -5.303 -12.935  0.00  0.00    +0.036 C 
ATOM     24  C   UNL     1       6.133  -6.338 -13.103  0.00  0.00    +0.036 C 
ENDBRANCH  19  21
ENDBRANCH  11  15
BRANCH   1  26
ATOM     25  N   UNL     1       0.570  -6.791  -6.649  0.00  0.00    -0.315 N 
ATOM     26  C   UNL     1       1.146  -5.827  -7.394  0.00  0.00    +0.218 C 
ATOM     27  O   UNL     1       1.033  -4.663  -7.073  0.00  0.00    -0.275 OA
ATOM     28  H   UNL     1       0.598  -7.715  -6.945  0.00  0.00    +0.149 HD
BRANCH  25  29
ATOM     29  C   UNL     1      -0.099  -6.444  -5.393  0.00  0.00    +0.109 C 
BRANCH  29  30
ATOM     30  C   UNL     1      -0.663  -7.712  -4.749  0.00  0.00    +0.054 C 
BRANCH  30  35
ATOM     31  C   UNL     1      -1.270  -7.022  -1.083  0.00  0.00    +0.121 A 
ATOM     32  C   UNL     1      -2.620  -6.700  -1.085  0.00  0.00    +0.045 A 
ATOM     33  C   UNL     1      -3.329  -6.707  -2.270  0.00  0.00    +0.004 A 
ATOM     34  C   UNL     1      -2.695  -7.034  -3.454  0.00  0.00    +0.004 A 
ATOM     35  C   UNL     1      -1.351  -7.356  -3.456  0.00  0.00    -0.042 A 
ATOM     36  C   UNL     1      -0.636  -7.345  -2.274  0.00  0.00    +0.049 A 
BRANCH  31  37
ATOM     37  O   UNL     1      -0.570  -7.016   0.081  0.00  0.00    -0.492 OA
BRANCH  37  39
ATOM     38  C   UNL     1      -0.341  -6.720   2.469  0.00  0.00    +0.048 C 
ATOM     39  C   UNL     1      -1.289  -6.674   1.268  0.00  0.00    +0.225 C 
ENDBRANCH  37  39
ENDBRANCH  31  37
ENDBRANCH  30  35
ENDBRANCH  29  30
ENDBRANCH  25  29
ENDBRANCH   1  26
TORSDOF 8
