REMARK  Name = ZINC17040422
REMARK  9 active torsions:
REMARK  status: ('A' for Active; 'I' for Inactive)
REMARK    1  A    between atoms: C_1  and  C_2
REMARK    2  A    between atoms: C_5  and  S_8
REMARK    3  A    between atoms: S_8  and  N_11
REMARK    4  A    between atoms: N_11  and  C_12
REMARK    5  A    between atoms: N_11  and  C_30
REMARK    6  A    between atoms: C_12  and  C_13
REMARK    7  A    between atoms: C_13  and  C_14
REMARK    8  A    between atoms: C_14  and  C_15
REMARK    9  A    between atoms: C_16  and  C_24
REMARK                            x       y       z     vdW  Elec       q    Type
REMARK                         _______ _______ _______ _____ _____    ______ ____
ROOT
ATOM      1  C   UNL     1       2.784  -2.051   2.995  0.00  0.00    +0.026 C 
ENDROOT
BRANCH   1   2
ATOM      2  C   UNL     1       3.725  -1.200   3.850  0.00  0.00    +0.132 C 
BRANCH   2   3
ATOM      3  N   UNL     1       3.197  -1.107   5.213  0.00  0.00    -0.203 N 
BRANCH   3   4
ATOM      4  C   UNL     1       2.246  -0.134   5.529  0.00  0.00    +0.051 A 
ATOM      5  C   UNL     1       2.576   1.213   5.452  0.00  0.00    +0.025 A 
ATOM      6  C   UNL     1       1.632   2.173   5.761  0.00  0.00    +0.002 A 
ATOM      7  C   UNL     1       0.362   1.794   6.157  0.00  0.00    +0.000 A 
ATOM      8  C   UNL     1       0.032   0.454   6.240  0.00  0.00    +0.002 A 
ATOM      9  C   UNL     1       0.970  -0.511   5.927  0.00  0.00    +0.025 A 
ENDBRANCH   3   4
BRANCH   3  10
ATOM     10  S   UNL     1       3.728  -2.156   6.380  0.00  0.00    +0.075 S 
ATOM     11  O   UNL     1       2.714  -2.204   7.374  0.00  0.00    -0.150 OA
ATOM     12  O   UNL     1       4.187  -3.317   5.703  0.00  0.00    -0.150 OA
BRANCH  10  17
ATOM     13  C   UNL     1       8.564   0.355   8.971  0.00  0.00    +0.044 C 
ATOM     14  C   UNL     1       7.356  -0.272   8.324  0.00  0.00    -0.050 A 
ATOM     15  C   UNL     1       6.094  -0.024   8.830  0.00  0.00    +0.005 A 
ATOM     16  C   UNL     1       4.986  -0.600   8.236  0.00  0.00    +0.029 A 
ATOM     17  C   UNL     1       5.140  -1.422   7.136  0.00  0.00    +0.109 A 
ATOM     18  C   UNL     1       6.402  -1.674   6.633  0.00  0.00    +0.029 A 
ATOM     19  C   UNL     1       7.510  -1.095   7.224  0.00  0.00    +0.005 A 
ENDBRANCH  10  17
ENDBRANCH   3  10
ENDBRANCH   2   3
ENDBRANCH   1   2
BRANCH   1  20
ATOM     20  C   UNL     1       3.335  -2.148   1.571  0.00  0.00    +0.044 C 
BRANCH  20  21
ATOM     21  C   UNL     1       2.408  -2.987   0.730  0.00  0.00    +0.043 A 
ATOM     22  C   UNL     1       1.318  -2.428   0.129  0.00  0.00    +0.057 A 
ATOM     23  N   UNL     1       0.498  -3.222  -0.636  0.00  0.00    -0.327 N 
ATOM     24  H   UNL     1      -0.382  -2.787  -1.131  0.00  0.00    +0.169 HD
ATOM     25  C   UNL     1       0.770  -4.546  -0.784  0.00  0.00    +0.194 A 
ATOM     26  N   UNL     1       1.816  -5.098  -0.205  0.00  0.00    -0.177 NA
ATOM     27  C   UNL     1       2.650  -4.370   0.553  0.00  0.00    +0.278 A 
ATOM     28  O   UNL     1       3.616  -4.897   1.083  0.00  0.00    -0.265 OA
ATOM     29  N   UNL     1      -0.059  -5.320  -1.550  0.00  0.00    -0.329 N 
ATOM     30  H   UNL     1       0.151  -6.392  -1.677  0.00  0.00    +0.145 HD
ATOM     31  H   UNL     1      -0.936  -4.870  -2.038  0.00  0.00    +0.145 HD
BRANCH  22  32
ATOM     32  C   UNL     1       1.027  -0.988   0.294  0.00  0.00    -0.001 A 
ATOM     33  C   UNL     1      -0.223  -0.574   0.755  0.00  0.00    +0.010 A 
ATOM     34  C   UNL     1      -0.488   0.771   0.908  0.00  0.00    +0.001 A 
ATOM     35  C   UNL     1       0.482   1.710   0.604  0.00  0.00    +0.000 A 
ATOM     36  C   UNL     1       1.724   1.306   0.147  0.00  0.00    +0.001 A 
ATOM     37  C   UNL     1       2.002  -0.036  -0.010  0.00  0.00    +0.010 A 
ENDBRANCH  22  32
ENDBRANCH  20  21
ENDBRANCH   1  20
TORSDOF 8
