REMARK  Name = ZINC32741672
REMARK  4 active torsions:
REMARK  status: ('A' for Active; 'I' for Inactive)
REMARK    1  A    between atoms: C_6  and  C_7
REMARK    2  A    between atoms: C_12  and  S_16
REMARK    3  A    between atoms: S_16  and  C_17
REMARK    4  A    between atoms: C_17  and  C_18
REMARK                            x       y       z     vdW  Elec       q    Type
REMARK                         _______ _______ _______ _____ _____    ______ ____
ROOT
ATOM      1  C   UNL     1       3.733  -0.515  -0.036  0.00  0.00    +0.001 A 
ATOM      2  C   UNL     1       4.751   0.360  -0.213  0.00  0.00    +0.056 A 
ATOM      3  S   UNL     1       3.953   1.951  -0.119  0.00  0.00    -0.076 S 
ATOM      4  C   UNL     1       2.285   1.413   0.153  0.00  0.00    +0.113 A 
ATOM      5  C   UNL     1       2.386   0.007   0.165  0.00  0.00    +0.047 A 
ATOM      6  C   UNL     1       1.165  -0.690   0.371  0.00  0.00    +0.109 A 
ATOM      7  N   UNL     1       0.046  -0.000   0.533  0.00  0.00    -0.229 NA
ATOM      8  C   UNL     1       0.025   1.320   0.509  0.00  0.00    +0.223 A 
ATOM      9  N   UNL     1       1.127   2.021   0.323  0.00  0.00    -0.228 NA
ENDROOT
BRANCH   1  15
ATOM     10  C   UNL     1       4.879  -2.539   0.862  0.00  0.00    +0.011 A 
ATOM     11  C   UNL     1       5.104  -3.900   0.852  0.00  0.00    +0.039 A 
ATOM     12  C   UNL     1       4.452  -4.705  -0.067  0.00  0.00    +0.123 A 
ATOM     13  C   UNL     1       3.565  -4.150  -0.975  0.00  0.00    +0.039 A 
ATOM     14  C   UNL     1       3.329  -2.791  -0.969  0.00  0.00    +0.011 A 
ATOM     15  C   UNL     1       3.983  -1.976  -0.046  0.00  0.00    -0.016 A 
ATOM     16  F   UNL     1       4.680  -6.037  -0.077  0.00  0.00    -0.205 F 
ENDBRANCH   1  15
BRANCH   6  17
ATOM     17  S   UNL     1       1.140  -2.452   0.410  0.00  0.00    -0.097 S 
BRANCH  17  18
ATOM     18  C   UNL     1      -0.625  -2.735   0.693  0.00  0.00    +0.152 C 
BRANCH  18  19
ATOM     19  C   UNL     1      -0.891  -4.216   0.765  0.00  0.00    +0.146 A 
ATOM     20  N   UNL     1      -1.191  -4.886  -0.334  0.00  0.00    -0.199 NA
ATOM     21  C   UNL     1      -1.422  -6.196  -0.275  0.00  0.00    +0.217 A 
ATOM     22  N   UNL     1      -1.361  -6.828   0.892  0.00  0.00    -0.181 NA
ATOM     23  C   UNL     1      -1.064  -6.150   1.995  0.00  0.00    +0.217 A 
ATOM     24  N   UNL     1      -0.830  -4.841   1.928  0.00  0.00    -0.199 NA
ATOM     25  N   UNL     1      -1.000  -6.802   3.210  0.00  0.00    -0.327 N 
ATOM     26  N   UNL     1      -1.729  -6.895  -1.424  0.00  0.00    -0.327 N 
ATOM     27  H   UNL     1      -0.755  -6.240   4.123  0.00  0.00    +0.145 HD
ATOM     28  H   UNL     1      -1.195  -7.883   3.265  0.00  0.00    +0.145 HD
ATOM     29  H   UNL     1      -1.920  -7.977  -1.375  0.00  0.00    +0.145 HD
ATOM     30  H   UNL     1      -1.784  -6.371  -2.390  0.00  0.00    +0.145 HD
ENDBRANCH  18  19
ENDBRANCH  17  18
ENDBRANCH   6  17
TORSDOF 4
