REMARK  Name = ZINC28290733
REMARK  3 active torsions:
REMARK  status: ('A' for Active; 'I' for Inactive)
REMARK    1  A    between atoms: C_1  and  C_2
REMARK    2  A    between atoms: C_9  and  N_14
REMARK    3  A    between atoms: C_15  and  C_17
REMARK                            x       y       z     vdW  Elec       q    Type
REMARK                         _______ _______ _______ _____ _____    ______ ____
ROOT
ATOM      1  N   UNL     1       2.339   5.492   0.009  0.00  0.00    -0.279 N 
ATOM      2  C   UNL     1       1.294   5.915   0.748  0.00  0.00    +0.284 C 
ATOM      3  O   UNL     1       1.387   6.934   1.404  0.00  0.00    -0.266 OA
ATOM      4  H   UNL     1       2.287   4.527  -0.516  0.00  0.00    +0.155 HD
ENDROOT
BRANCH   1  12
ATOM      5  C   UNL     1       7.971  10.736  -0.798  0.00  0.00    +0.062 C 
ATOM      6  C   UNL     1       6.744   9.863  -1.069  0.00  0.00    +0.256 C 
ATOM      7  C   UNL     1       5.508  10.567  -0.570  0.00  0.00    +0.258 C 
ATOM      8  O   UNL     1       5.468  11.779  -0.538  0.00  0.00    -0.271 OA
ATOM      9  N   UNL     1       4.444   9.843  -0.160  0.00  0.00    -0.279 N 
ATOM     10  C   UNL     1       4.527   8.444  -0.175  0.00  0.00    +0.077 A 
ATOM     11  C   UNL     1       3.385   7.667  -0.080  0.00  0.00    +0.050 A 
ATOM     12  C   UNL     1       3.490   6.282  -0.091  0.00  0.00    +0.036 A 
ATOM     13  C   UNL     1       4.737   5.680  -0.206  0.00  0.00    +0.027 A 
ATOM     14  C   UNL     1       5.877   6.456  -0.306  0.00  0.00    +0.049 A 
ATOM     15  C   UNL     1       5.777   7.836  -0.291  0.00  0.00    +0.143 A 
ATOM     16  O   UNL     1       6.890   8.612  -0.391  0.00  0.00    -0.478 OA
ATOM     17  H   UNL     1       3.529  10.353   0.179  0.00  0.00    +0.155 HD
ENDBRANCH   1  12
BRANCH   2  18
ATOM     18  C   UNL     1       0.034   5.138   0.760  0.00  0.00    +0.194 A 
ATOM     19  C   UNL     1      -1.001   5.586   1.512  0.00  0.00    +0.103 A 
ATOM     20  C   UNL     1      -2.252   4.815   1.526  0.00  0.00    +0.193 A 
ATOM     21  O   UNL     1      -3.214   5.171   2.183  0.00  0.00    -0.287 OA
ATOM     22  C   UNL     1      -2.286   3.586   0.709  0.00  0.00    +0.065 A 
ATOM     23  C   UNL     1      -3.424   2.781   0.659  0.00  0.00    +0.030 A 
ATOM     24  C   UNL     1      -3.416   1.641  -0.115  0.00  0.00    +0.019 A 
ATOM     25  C   UNL     1      -2.282   1.295  -0.839  0.00  0.00    +0.019 A 
ATOM     26  C   UNL     1      -1.156   2.089  -0.807  0.00  0.00    +0.048 A 
ATOM     27  C   UNL     1      -1.140   3.242  -0.028  0.00  0.00    +0.140 A 
ATOM     28  O   UNL     1      -0.040   4.017   0.027  0.00  0.00    -0.450 OA
ATOM     29 BR   UNL     1      -4.953   0.542  -0.190  0.00  0.00    -0.050 Br
ENDBRANCH   2  18
TORSDOF 2
