REMARK  Name = ZINC03023262
REMARK  6 active torsions:
REMARK  status: ('A' for Active; 'I' for Inactive)
REMARK    1  A    between atoms: C_6  and  C_7
REMARK    2  A    between atoms: C_7  and  N_8
REMARK    3  A    between atoms: N_8  and  S_9
REMARK    4  A    between atoms: S_9  and  C_12
REMARK    5  A    between atoms: C_16  and  C_18
REMARK    6  A    between atoms: N_20  and  C_21
REMARK                            x       y       z     vdW  Elec       q    Type
REMARK                         _______ _______ _______ _____ _____    ______ ____
ROOT
ATOM      1  C   UNL     1      -4.375  -1.536  -0.926  0.00  0.00    +0.106 A 
ATOM      2  C   UNL     1      -4.670  -1.877   0.383  0.00  0.00    +0.031 A 
ATOM      3  C   UNL     1      -5.837  -1.431   0.974  0.00  0.00    +0.041 A 
ATOM      4  C   UNL     1      -6.720  -0.641   0.259  0.00  0.00    +0.136 A 
ATOM      5  C   UNL     1      -6.426  -0.294  -1.063  0.00  0.00    +0.074 A 
ATOM      6  C   UNL     1      -5.241  -0.744  -1.650  0.00  0.00    +0.044 A 
ATOM      7  F   UNL     1      -7.861  -0.207   0.836  0.00  0.00    -0.205 F 
ENDROOT
BRANCH   5   8
ATOM      8  C   UNL     1      -7.362   0.549  -1.835  0.00  0.00    +0.251 C 
ATOM      9  O   UNL     1      -8.391   0.943  -1.320  0.00  0.00    -0.270 OA
ATOM     10  N   UNL     1      -7.076   0.881  -3.109  0.00  0.00    -0.280 N 
ATOM     11  H   UNL     1      -6.226   0.623  -3.498  0.00  0.00    +0.155 HD
BRANCH  10  12
ATOM     12  C   UNL     1      -8.005   1.600  -3.870  0.00  0.00    +0.052 A 
ATOM     13  C   UNL     1      -8.810   2.556  -3.264  0.00  0.00    +0.026 A 
ATOM     14  C   UNL     1      -9.725   3.264  -4.017  0.00  0.00    +0.022 A 
ATOM     15  C   UNL     1      -9.841   3.023  -5.375  0.00  0.00    +0.042 A 
ATOM     16  C   UNL     1      -9.041   2.071  -5.982  0.00  0.00    +0.041 A 
ATOM     17  C   UNL     1      -8.119   1.363  -5.234  0.00  0.00    +0.064 A 
ATOM     18 CL   UNL     1      -7.110   0.174  -5.997  0.00  0.00    -0.082 Cl
ATOM     19 CL   UNL     1     -10.993   3.915  -6.319  0.00  0.00    -0.083 Cl
ENDBRANCH  10  12
ENDBRANCH   5   8
BRANCH   1  20
ATOM     20  S   UNL     1      -2.883  -2.111  -1.668  0.00  0.00    +0.059 S 
ATOM     21  O   UNL     1      -3.099  -2.102  -3.073  0.00  0.00    -0.153 OA
ATOM     22  O   UNL     1      -2.505  -3.285  -0.963  0.00  0.00    -0.153 OA
BRANCH  20  23
ATOM     23  N   UNL     1      -1.716  -0.977  -1.361  0.00  0.00    -0.186 NA
ATOM     24  H   UNL     1      -1.318  -0.480  -2.093  0.00  0.00    +0.148 HD
BRANCH  23  25
ATOM     25  C   UNL     1      -1.283  -0.726   0.016  0.00  0.00    +0.141 C 
BRANCH  25  31
ATOM     26  C   UNL     1      -0.018   1.433   0.003  0.00  0.00    +0.009 A 
ATOM     27  C   UNL     1       1.165   2.150  -0.009  0.00  0.00    +0.050 A 
ATOM     28  C   UNL     1       2.379   1.484  -0.022  0.00  0.00    +0.166 A 
ATOM     29  C   UNL     1       2.405   0.091  -0.022  0.00  0.00    +0.167 A 
ATOM     30  C   UNL     1       1.217  -0.621  -0.010  0.00  0.00    +0.054 A 
ATOM     31  C   UNL     1       0.008   0.051   0.003  0.00  0.00    -0.028 A 
ATOM     32  O   UNL     1       3.707  -0.321  -0.036  0.00  0.00    -0.453 OA
ATOM     33  C   UNL     1       4.468   0.826  -0.456  0.00  0.00    +0.466 C 
ATOM     34  O   UNL     1       3.664   1.944  -0.035  0.00  0.00    -0.453 OA
ENDBRANCH  25  31
ENDBRANCH  23  25
ENDBRANCH  20  23
ENDBRANCH   1  20
TORSDOF 6
