REMARK  Name = ZINC00664653
REMARK  12 active torsions:
REMARK  status: ('A' for Active; 'I' for Inactive)
REMARK    1  A    between atoms: C_1  and  C_2
REMARK    2  A    between atoms: C_2  and  C_3
REMARK    3  A    between atoms: C_2  and  C_4
REMARK    4  A    between atoms: C_2  and  C_5
REMARK    5  A    between atoms: C_12  and  N_36
REMARK    6  A    between atoms: C_13  and  C_34
REMARK    7  A    between atoms: C_14  and  C_16
REMARK    8  A    between atoms: C_19  and  O_24
REMARK    9  A    between atoms: C_20  and  O_22
REMARK   10  A    between atoms: O_22  and  C_23
REMARK   11  A    between atoms: O_24  and  C_25
REMARK   12  A    between atoms: C_25  and  C_26
REMARK                            x       y       z     vdW  Elec       q    Type
REMARK                         _______ _______ _______ _____ _____    ______ ____
ROOT
ATOM      1  C   UNL     1       1.132  -0.394  -1.437  0.00  0.00    +0.049 A 
ATOM      2  C   UNL     1       1.131  -1.696  -1.761  0.00  0.00    +0.050 A 
ATOM      3  C   UNL     1       1.845  -1.847  -2.970  0.00  0.00    +0.245 A 
ATOM      4  N   UNL     1       2.255  -0.671  -3.346  0.00  0.00    -0.135 NA
ATOM      5  N   UNL     1       1.814   0.268  -2.400  0.00  0.00    -0.277 N 
ATOM      6  H   UNL     1       1.973   1.225  -2.430  0.00  0.00    +0.189 HD
ATOM      7  O   UNL     1       2.016  -3.061  -3.560  0.00  0.00    -0.421 OA
ATOM      8  C   UNL     1       1.260  -4.082  -3.108  0.00  0.00    +0.201 C 
ATOM      9  C   UNL     1       0.546  -4.058  -1.964  0.00  0.00    +0.098 C 
ATOM     10  C   UNL     1       0.515  -2.867  -1.039  0.00  0.00    +0.101 C 
ENDROOT
BRANCH  10  11
ATOM     11  C   UNL     1       1.305  -3.169   0.208  0.00  0.00    -0.031 A 
ATOM     12  C   UNL     1       2.686  -3.198   0.159  0.00  0.00    +0.008 A 
ATOM     13  C   UNL     1       3.416  -3.476   1.300  0.00  0.00    +0.050 A 
ATOM     14  C   UNL     1       2.763  -3.725   2.496  0.00  0.00    +0.162 A 
ATOM     15  C   UNL     1       1.373  -3.695   2.546  0.00  0.00    +0.162 A 
ATOM     16  C   UNL     1       0.647  -3.412   1.399  0.00  0.00    +0.054 A 
BRANCH  15  17
ATOM     17  O   UNL     1       0.727  -3.939   3.717  0.00  0.00    -0.491 OA
ATOM     18  C   UNL     1      -0.701  -3.892   3.694  0.00  0.00    +0.277 C 
ENDBRANCH  15  17
BRANCH  14  19
ATOM     19  O   UNL     1       3.479  -3.998   3.619  0.00  0.00    -0.484 OA
BRANCH  19  20
ATOM     20  C   UNL     1       4.903  -4.012   3.494  0.00  0.00    +0.264 C 
BRANCH  20  21
ATOM     21  C   UNL     1       5.522  -4.330   4.830  0.00  0.00    -0.009 A 
ATOM     22  C   UNL     1       5.835  -3.308   5.707  0.00  0.00    +0.008 A 
ATOM     23  C   UNL     1       6.403  -3.599   6.933  0.00  0.00    +0.022 A 
ATOM     24  C   UNL     1       6.659  -4.913   7.284  0.00  0.00    +0.059 A 
ATOM     25  C   UNL     1       6.344  -5.936   6.405  0.00  0.00    +0.060 A 
ATOM     26  C   UNL     1       5.771  -5.644   5.181  0.00  0.00    +0.028 A 
ATOM     27 CL   UNL     1       6.665  -7.585   6.843  0.00  0.00    -0.082 Cl
ATOM     28 CL   UNL     1       7.373  -5.278   8.823  0.00  0.00    -0.082 Cl
ENDBRANCH  20  21
ENDBRANCH  19  20
ENDBRANCH  14  19
ENDBRANCH  10  11
BRANCH   1  30
ATOM     29  C   UNL     1       0.610   1.744  -0.294  0.00  0.00    +0.017 C 
ATOM     30  C   UNL     1       0.483   0.221  -0.223  0.00  0.00    +0.004 C 
ATOM     31  C   UNL     1       1.178  -0.291   1.040  0.00  0.00    +0.017 C 
ATOM     32  C   UNL     1      -0.996  -0.167  -0.184  0.00  0.00    +0.017 C 
ENDBRANCH   1  30
BRANCH   8  33
ATOM     33  N   UNL     1       1.213  -5.226  -3.866  0.00  0.00    -0.328 N 
ATOM     34  H   UNL     1       1.714  -5.279  -4.695  0.00  0.00    +0.145 HD
ATOM     35  H   UNL     1       0.680  -5.980  -3.572  0.00  0.00    +0.145 HD
ENDBRANCH   8  33
BRANCH   9  36
ATOM     36  C   UNL     1      -0.217  -5.216  -1.610  0.00  0.00    +0.101 C 
ATOM     37  N   UNL     1      -0.823  -6.136  -1.330  0.00  0.00    -0.191 NA
ENDBRANCH   9  36
TORSDOF 8
