REMARK  Name = ZINC09076884
REMARK  11 active torsions:
REMARK  status: ('A' for Active; 'I' for Inactive)
REMARK    1  A    between atoms: C_1  and  C_2
REMARK    2  A    between atoms: N_10  and  C_11
REMARK    3  A    between atoms: C_11  and  C_13
REMARK    4  A    between atoms: C_16  and  S_19
REMARK    5  A    between atoms: S_19  and  N_22
REMARK    6  A    between atoms: N_22  and  C_23
REMARK    7  A    between atoms: N_22  and  C_24
REMARK    8  A    between atoms: N_30  and  C_31
REMARK    9  A    between atoms: C_31  and  C_32
REMARK   10  A    between atoms: C_32  and  O_34
REMARK   11  A    between atoms: O_34  and  C_35
REMARK                            x       y       z     vdW  Elec       q    Type
REMARK                         _______ _______ _______ _____ _____    ______ ____
ROOT
ATOM      1  C   UNL     1      -0.867  -3.801  -0.481  0.00  0.00    +0.269 C 
ATOM      2  O   UNL     1      -0.662  -4.173   0.662  0.00  0.00    -0.268 OA
ENDROOT
BRANCH   1  12
ATOM      3  C   UNL     1       2.248 -11.606   0.065  0.00  0.00    +0.044 C 
ATOM      4  C   UNL     1       1.718 -10.345  -0.566  0.00  0.00    -0.049 A 
ATOM      5  C   UNL     1       1.609 -10.242  -1.943  0.00  0.00    +0.005 A 
ATOM      6  C   UNL     1       1.127  -9.100  -2.537  0.00  0.00    +0.027 A 
ATOM      7  C   UNL     1       0.730  -8.000  -1.761  0.00  0.00    +0.058 A 
ATOM      8  C   UNL     1       0.852  -8.132  -0.370  0.00  0.00    +0.039 A 
ATOM      9  C   UNL     1       1.333  -9.275   0.223  0.00  0.00    +0.020 A 
ATOM     10  S   UNL     1       0.265  -6.572   0.241  0.00  0.00    -0.052 S 
ATOM     11  C   UNL     1      -0.106  -5.828  -1.281  0.00  0.00    +0.167 A 
ATOM     12  N   UNL     1      -0.597  -4.614  -1.507  0.00  0.00    -0.152 NA
ATOM     13  N   UNL     1       0.222  -6.787  -2.188  0.00  0.00    -0.310 N 
BRANCH  13  14
ATOM     14  C   UNL     1       0.041  -6.533  -3.619  0.00  0.00    +0.244 C 
BRANCH  14  15
ATOM     15  C   UNL     1      -1.260  -5.806  -3.840  0.00  0.00    +0.327 C 
ATOM     16  O   UNL     1      -2.041  -5.674  -2.928  0.00  0.00    -0.249 OA
BRANCH  15  17
ATOM     17  O   UNL     1      -1.552  -5.305  -5.051  0.00  0.00    -0.467 OA
ATOM     18  C   UNL     1      -2.823  -4.617  -5.191  0.00  0.00    +0.280 C 
ENDBRANCH  15  17
ENDBRANCH  14  15
ENDBRANCH  13  14
ENDBRANCH   1  12
BRANCH   1  19
ATOM     19  C   UNL     1      -1.415  -2.448  -0.732  0.00  0.00    +0.039 A 
ATOM     20  C   UNL     1      -1.698  -1.597   0.336  0.00  0.00    +0.015 A 
ATOM     21  C   UNL     1      -2.208  -0.338   0.095  0.00  0.00    +0.029 A 
ATOM     22  C   UNL     1      -2.439   0.082  -1.203  0.00  0.00    +0.106 A 
ATOM     23  C   UNL     1      -2.165  -0.760  -2.266  0.00  0.00    +0.029 A 
ATOM     24  C   UNL     1      -1.650  -2.019  -2.039  0.00  0.00    +0.015 A 
BRANCH  22  25
ATOM     25  S   UNL     1      -3.090   1.691  -1.502  0.00  0.00    +0.061 S 
ATOM     26  O   UNL     1      -3.727   1.642  -2.771  0.00  0.00    -0.153 OA
ATOM     27  O   UNL     1      -3.777   2.077  -0.319  0.00  0.00    -0.153 OA
BRANCH  25  28
ATOM     28  N   UNL     1      -1.802   2.720  -1.659  0.00  0.00    -0.177 NA
ATOM     29  C   UNL     1      -1.258   3.397  -0.479  0.00  0.00    +0.132 C 
BRANCH  28  30
ATOM     30  C   UNL     1      -1.207   2.953  -2.977  0.00  0.00    +0.080 C 
ATOM     31  C   UNL     1       0.264   2.531  -2.954  0.00  0.00    +0.020 C 
ATOM     32  C   UNL     1       0.885   2.774  -4.331  0.00  0.00    +0.002 C 
ATOM     33  C   UNL     1       0.786   4.261  -4.680  0.00  0.00    +0.000 C 
ATOM     34  C   UNL     1      -0.684   4.683  -4.702  0.00  0.00    +0.002 C 
ATOM     35  C   UNL     1      -1.306   4.439  -3.325  0.00  0.00    +0.020 C 
ENDBRANCH  28  30
ENDBRANCH  25  28
ENDBRANCH  22  25
ENDBRANCH   1  19
TORSDOF 8
