REMARK  Name = ZINC38620906
REMARK  7 active torsions:
REMARK  status: ('A' for Active; 'I' for Inactive)
REMARK    1  A    between atoms: C_5  and  N_7
REMARK    2  A    between atoms: N_10  and  C_13
REMARK    3  A    between atoms: C_13  and  C_15
REMARK    4  A    between atoms: C_13  and  C_27
REMARK    5  A    between atoms: C_15  and  N_16
REMARK    6  A    between atoms: N_16  and  S_17
REMARK    7  A    between atoms: S_17  and  C_20
REMARK                            x       y       z     vdW  Elec       q    Type
REMARK                         _______ _______ _______ _____ _____    ______ ____
ROOT
ATOM      1  C   UNL     1       3.250  -5.761  -0.052  0.00  0.00    +0.102 C 
ENDROOT
BRANCH   1   2
ATOM      2  C   UNL     1       4.633  -5.196  -0.250  0.00  0.00    -0.025 A 
ATOM      3  C   UNL     1       5.435  -4.937   0.846  0.00  0.00    +0.009 A 
ATOM      4  C   UNL     1       6.704  -4.419   0.670  0.00  0.00    +0.050 A 
ATOM      5  C   UNL     1       7.176  -4.158  -0.606  0.00  0.00    +0.166 A 
ATOM      6  C   UNL     1       6.367  -4.418  -1.710  0.00  0.00    +0.167 A 
ATOM      7  C   UNL     1       5.098  -4.943  -1.526  0.00  0.00    +0.054 A 
ATOM      8  O   UNL     1       7.052  -4.080  -2.842  0.00  0.00    -0.453 OA
ATOM      9  C   UNL     1       8.127  -3.230  -2.401  0.00  0.00    +0.466 C 
ATOM     10  O   UNL     1       8.366  -3.656  -1.046  0.00  0.00    -0.453 OA
ENDBRANCH   1   2
BRANCH   1  14
ATOM     11  N   UNL     1       1.168  -2.313  -1.231  0.00  0.00    -0.325 N 
ATOM     12  C   UNL     1       1.174  -2.632   0.204  0.00  0.00    +0.120 C 
ATOM     13  C   UNL     1       2.341  -3.583   0.487  0.00  0.00    +0.104 C 
ATOM     14  N   UNL     1       2.250  -4.745  -0.406  0.00  0.00    -0.291 NA
ATOM     15  C   UNL     1       2.381  -4.346  -1.814  0.00  0.00    +0.104 C 
ATOM     16  C   UNL     1       1.209  -3.426  -2.192  0.00  0.00    +0.120 C 
BRANCH  11  21
ATOM     17  C   UNL     1      -0.149   0.940  -2.327  0.00  0.00    +0.002 A 
ATOM     18  C   UNL     1       1.024   1.639  -2.545  0.00  0.00    +0.003 A 
ATOM     19  C   UNL     1       2.246   1.029  -2.328  0.00  0.00    +0.040 A 
ATOM     20  C   UNL     1       2.299  -0.282  -1.892  0.00  0.00    +0.144 A 
ATOM     21  C   UNL     1       1.120  -0.987  -1.672  0.00  0.00    +0.065 A 
ATOM     22  C   UNL     1      -0.105  -0.371  -1.892  0.00  0.00    +0.026 A 
ATOM     23  F   UNL     1       3.493  -0.877  -1.680  0.00  0.00    -0.204 F 
ENDBRANCH  11  21
ENDBRANCH   1  14
BRANCH   1  24
ATOM     24  C   UNL     1       3.068  -6.989  -0.947  0.00  0.00    +0.129 C 
BRANCH  24  25
ATOM     25  N   UNL     1       1.687  -7.467  -0.845  0.00  0.00    -0.188 NA
ATOM     26  H   UNL     1       1.118  -7.158  -0.123  0.00  0.00    +0.148 HD
BRANCH  25  27
ATOM     27  S   UNL     1       1.096  -8.536  -1.963  0.00  0.00    +0.060 S 
ATOM     28  O   UNL     1      -0.242  -8.825  -1.582  0.00  0.00    -0.153 OA
ATOM     29  O   UNL     1       1.428  -8.012  -3.242  0.00  0.00    -0.153 OA
BRANCH  27  30
ATOM     30  C   UNL     1       2.006 -10.035  -1.783  0.00  0.00    +0.123 A 
ATOM     31  C   UNL     1       1.364 -11.187  -1.368  0.00  0.00    +0.030 A 
ATOM     32  C   UNL     1       2.078 -12.362  -1.227  0.00  0.00    +0.002 A 
ATOM     33  C   UNL     1       3.433 -12.386  -1.499  0.00  0.00    +0.002 A 
ATOM     34  C   UNL     1       4.075 -11.235  -1.914  0.00  0.00    +0.022 A 
ATOM     35  C   UNL     1       3.361 -10.059  -2.061  0.00  0.00    +0.067 A 
ATOM     36 CL   UNL     1       4.165  -8.614  -2.588  0.00  0.00    -0.082 Cl
ENDBRANCH  27  30
ENDBRANCH  25  27
ENDBRANCH  24  25
ENDBRANCH   1  24
TORSDOF 7
