REMARK  Name = ZINC08686198
REMARK  2 active torsions:
REMARK  status: ('A' for Active; 'I' for Inactive)
REMARK    1  A    between atoms: N_10  and  C_15
REMARK    2  A    between atoms: C_15  and  C_16
REMARK                            x       y       z     vdW  Elec       q    Type
REMARK                         _______ _______ _______ _____ _____    ______ ____
ROOT
ATOM      1  C   UNL     1      -0.017   1.362   0.009  0.00  0.00    +0.001 A 
ATOM      2  C   UNL     1       1.170   2.082   0.002  0.00  0.00    +0.002 A 
ATOM      3  C   UNL     1       2.384   1.433  -0.013  0.00  0.00    +0.026 A 
ATOM      4  C   UNL     1       2.427   0.040  -0.021  0.00  0.00    +0.049 A 
ATOM      5  C   UNL     1       1.221  -0.683  -0.013  0.00  0.00    +0.026 A 
ATOM      6  C   UNL     1       0.002  -0.004   0.002  0.00  0.00    +0.012 A 
ATOM      7  C   UNL     1       1.589  -2.105  -0.025  0.00  0.00    +0.103 A 
ATOM      8  N   UNL     1       0.882  -3.249  -0.025  0.00  0.00    -0.235 NA
ATOM      9  C   UNL     1       1.476  -4.409  -0.038  0.00  0.00    +0.203 A 
ATOM     10  N   UNL     1       2.828  -4.523  -0.051  0.00  0.00    -0.290 N 
ATOM     11  C   UNL     1       3.608  -3.421  -0.052  0.00  0.00    +0.278 A 
ATOM     12  C   UNL     1       2.981  -2.153  -0.039  0.00  0.00    +0.131 A 
ATOM     13  N   UNL     1       3.470  -0.860  -0.036  0.00  0.00    -0.349 N 
ATOM     14  O   UNL     1       4.824  -3.516  -0.064  0.00  0.00    -0.265 OA
ATOM     15  H   UNL     1       4.410  -0.622  -0.044  0.00  0.00    +0.166 HD
ENDROOT
BRANCH  10  16
ATOM     16  C   UNL     1       3.446  -5.852  -0.064  0.00  0.00    +0.200 C 
BRANCH  16  17
ATOM     17  C   UNL     1       3.644  -6.299  -1.489  0.00  0.00    +0.125 A 
ATOM     18  C   UNL     1       4.739  -6.077  -2.238  0.00  0.00    +0.046 A 
ATOM     19  C   UNL     1       4.498  -6.667  -3.501  0.00  0.00    +0.041 A 
ATOM     20  C   UNL     1       3.270  -7.213  -3.448  0.00  0.00    +0.195 A 
ATOM     21  O   UNL     1       2.760  -6.993  -2.225  0.00  0.00    -0.466 OA
ENDBRANCH  16  17
ENDBRANCH  10  16
TORSDOF 2
