REMARK  Name = ZINC22884465
REMARK  4 active torsions:
REMARK  status: ('A' for Active; 'I' for Inactive)
REMARK    1  A    between atoms: C_9  and  C_12
REMARK    2  A    between atoms: N_14  and  N_15
REMARK    3  A    between atoms: C_16  and  C_18
REMARK    4  A    between atoms: C_24  and  C_26
REMARK                            x       y       z     vdW  Elec       q    Type
REMARK                         _______ _______ _______ _____ _____    ______ ____
ROOT
ATOM      1  N   UNL     1       1.902   5.745  -0.546  0.00  0.00    -0.233 N 
ATOM      2  C   UNL     1       2.954   6.587  -0.532  0.00  0.00    +0.250 C 
ATOM      3  O   UNL     1       4.037   6.198  -0.148  0.00  0.00    -0.272 OA
ATOM      4  H   UNL     1       0.920   6.098  -0.895  0.00  0.00    +0.173 HD
ENDROOT
BRANCH   2   5
ATOM      5  C   UNL     1       2.786   8.012  -0.993  0.00  0.00    +0.163 C 
ATOM      6  C   UNL     1       1.766   8.738  -0.091  0.00  0.00    +0.033 C 
ATOM      7  C   UNL     1       2.676   9.489   0.922  0.00  0.00    +0.021 C 
ATOM      8  C   UNL     1       3.881   9.877   0.030  0.00  0.00    +0.108 C 
ATOM      9  N   UNL     1       4.064   8.730  -0.878  0.00  0.00    -0.289 N 
ATOM     10  C   UNL     1       5.212   8.395  -1.500  0.00  0.00    +0.222 C 
ATOM     11  O   UNL     1       5.266   7.385  -2.169  0.00  0.00    -0.275 OA
BRANCH  10  12
ATOM     12  C   UNL     1       6.427   9.275  -1.364  0.00  0.00    +0.048 C 
ATOM     13  C   UNL     1       6.043  10.725  -1.669  0.00  0.00    +0.019 C 
ATOM     14  C   UNL     1       7.277  11.619  -1.532  0.00  0.00    -0.009 C 
ATOM     15  C   UNL     1       8.353  11.158  -2.516  0.00  0.00    +0.007 C 
ATOM     16  C   UNL     1       8.737   9.709  -2.211  0.00  0.00    -0.009 C 
ATOM     17  C   UNL     1       7.503   8.815  -2.349  0.00  0.00    +0.019 C 
ATOM     18  C   UNL     1       9.278   9.615  -0.783  0.00  0.00    +0.007 C 
ATOM     19  C   UNL     1       8.202  10.076   0.202  0.00  0.00    -0.009 C 
ATOM     20  C   UNL     1       7.818  11.525  -0.104  0.00  0.00    +0.007 C 
ATOM     21  C   UNL     1       6.968   9.181   0.064  0.00  0.00    +0.019 C 
ENDBRANCH  10  12
ENDBRANCH   2   5
BRANCH   1  24
ATOM     22  C   UNL     1       1.007   3.579  -0.132  0.00  0.00    +0.273 C 
ATOM     23  O   UNL     1      -0.076   3.967  -0.516  0.00  0.00    -0.270 OA
ATOM     24  N   UNL     1       2.059   4.421  -0.117  0.00  0.00    -0.231 N 
ATOM     25  H   UNL     1       3.041   4.068   0.231  0.00  0.00    +0.173 HD
BRANCH  22  34
ATOM     26  C   UNL     1      -0.084  -2.625   0.652  0.00  0.00    +0.004 A 
ATOM     27  C   UNL     1      -1.238  -1.909   0.912  0.00  0.00    +0.004 A 
ATOM     28  C   UNL     1      -1.237  -0.531   0.805  0.00  0.00    +0.049 A 
ATOM     29  C   UNL     1      -0.079   0.137   0.437  0.00  0.00    +0.163 A 
ATOM     30  C   UNL     1       1.081  -0.583   0.178  0.00  0.00    +0.162 A 
ATOM     31  C   UNL     1       1.074  -1.965   0.286  0.00  0.00    +0.049 A 
ATOM     32  O   UNL     1       2.231   0.054  -0.177  0.00  0.00    -0.484 OA
ATOM     33  C   UNL     1       2.104   1.404  -0.635  0.00  0.00    +0.283 C 
ATOM     34  C   UNL     1       1.175   2.154   0.330  0.00  0.00    +0.297 C 
ATOM     35  O   UNL     1      -0.095   1.494   0.333  0.00  0.00    -0.472 OA
ENDBRANCH  22  34
ENDBRANCH   1  24
TORSDOF 4
