REMARK  Name = ZINC06695629
REMARK  5 active torsions:
REMARK  status: ('A' for Active; 'I' for Inactive)
REMARK    1  A    between atoms: C_1  and  C_2
REMARK    2  A    between atoms: C_2  and  C_4
REMARK    3  A    between atoms: C_2  and  N_11
REMARK    4  A    between atoms: C_12  and  C_14
REMARK    5  A    between atoms: C_17  and  C_20
REMARK                            x       y       z     vdW  Elec       q    Type
REMARK                         _______ _______ _______ _____ _____    ______ ____
ROOT
ATOM      1  N   UNL     1      -1.071   2.282   0.673  0.00  0.00    -0.301 N 
ATOM      2  C   UNL     1       0.151   1.776   0.931  0.00  0.00    +0.257 C 
ATOM      3  O   UNL     1       1.143   2.400   0.620  0.00  0.00    -0.272 OA
ATOM      4  H   UNL     1      -1.865   1.781   0.919  0.00  0.00    +0.150 HD
ENDROOT
BRANCH   2   5
ATOM      5  C   UNL     1       0.285   0.433   1.601  0.00  0.00    +0.295 C 
ATOM      6  C   UNL     1      -0.203  -0.702   0.668  0.00  0.00    +0.116 C 
ATOM      7  C   UNL     1       0.782  -1.817   0.962  0.00  0.00    +0.091 C 
ATOM      8  N   UNL     1       1.793  -1.310   1.585  0.00  0.00    -0.088 NA
ATOM      9  O   UNL     1       1.672   0.085   1.787  0.00  0.00    -0.380 OA
BRANCH   7  10
ATOM     10  C   UNL     1       0.614  -3.238   0.599  0.00  0.00    -0.000 A 
ATOM     11  C   UNL     1      -0.536  -3.658  -0.072  0.00  0.00    +0.011 A 
ATOM     12  C   UNL     1      -0.685  -4.986  -0.413  0.00  0.00    +0.020 A 
ATOM     13  C   UNL     1       0.298  -5.904  -0.082  0.00  0.00    +0.041 A 
ATOM     14  C   UNL     1       1.438  -5.494   0.589  0.00  0.00    +0.020 A 
ATOM     15  C   UNL     1       1.601  -4.168   0.930  0.00  0.00    +0.011 A 
ATOM     16 CL   UNL     1       0.100  -7.575  -0.509  0.00  0.00    -0.084 Cl
ENDBRANCH   7  10
ENDBRANCH   2   5
BRANCH   1  18
ATOM     17  C   UNL     1      -1.115   3.413  -1.495  0.00  0.00    +0.038 C 
ATOM     18  C   UNL     1      -1.201   3.588   0.023  0.00  0.00    +0.156 C 
BRANCH  18  19
ATOM     19  C   UNL     1      -2.531   4.198   0.383  0.00  0.00    +0.236 C 
ATOM     20  O   UNL     1      -3.469   3.484   0.667  0.00  0.00    -0.274 OA
ATOM     21  N   UNL     1      -2.678   5.538   0.389  0.00  0.00    -0.300 N 
ATOM     22  C   UNL     1      -1.660   6.514  -0.026  0.00  0.00    +0.108 C 
ATOM     23  C   UNL     1      -2.264   7.920   0.174  0.00  0.00    +0.020 C 
ATOM     24  C   UNL     1      -3.374   7.672   1.229  0.00  0.00    +0.020 C 
ATOM     25  C   UNL     1      -3.885   6.268   0.819  0.00  0.00    +0.108 C 
ENDBRANCH  18  19
ENDBRANCH   1  18
TORSDOF 4
