REMARK  Name = ZINC01169900
REMARK  8 active torsions:
REMARK  status: ('A' for Active; 'I' for Inactive)
REMARK    1  A    between atoms: C_4  and  O_7
REMARK    2  A    between atoms: O_7  and  C_8
REMARK    3  A    between atoms: C_8  and  C_9
REMARK    4  A    between atoms: N_11  and  C_12
REMARK    5  A    between atoms: C_12  and  C_14
REMARK    6  A    between atoms: C_12  and  C_23
REMARK    7  A    between atoms: C_17  and  N_20
REMARK    8  A    between atoms: C_32  and  O_33
REMARK                            x       y       z     vdW  Elec       q    Type
REMARK                         _______ _______ _______ _____ _____    ______ ____
ROOT
ATOM      1  C   UNL     1       2.492   1.021  -0.016  0.00  0.00    +0.137 C 
ENDROOT
BRANCH   1   2
ATOM      2  C   UNL     1       1.175   1.753  -0.064  0.00  0.00    +0.022 A 
ATOM      3  C   UNL     1      -0.009   1.027  -0.160  0.00  0.00    +0.030 A 
ATOM      4  C   UNL     1      -1.215   1.659  -0.211  0.00  0.00    +0.051 A 
ATOM      5  C   UNL     1      -1.269   3.063  -0.156  0.00  0.00    +0.022 A 
ATOM      6  C   UNL     1      -2.495   3.752  -0.200  0.00  0.00    +0.013 A 
ATOM      7  C   UNL     1      -2.471   5.116  -0.147  0.00  0.00    +0.020 A 
ATOM      8  C   UNL     1      -1.253   5.786  -0.051  0.00  0.00    +0.111 A 
ATOM      9  N   UNL     1      -0.113   5.141  -0.010  0.00  0.00    -0.251 NA
ATOM     10  C   UNL     1      -0.067   3.806  -0.058  0.00  0.00    +0.114 A 
ATOM     11  C   UNL     1       1.163   3.117  -0.013  0.00  0.00    +0.148 A 
ATOM     12 CL   UNL     1      -2.679   0.735  -0.337  0.00  0.00    -0.083 Cl
BRANCH  11  13
ATOM     13  O   UNL     1       2.329   3.808   0.081  0.00  0.00    -0.504 OA
ATOM     14  H   UNL     1       2.718   4.041  -0.773  0.00  0.00    +0.292 HD
ENDBRANCH  11  13
ENDBRANCH   1   2
BRANCH   1  15
ATOM     15  C   UNL     1       3.041   0.883  -1.412  0.00  0.00    -0.023 A 
ATOM     16  C   UNL     1       2.565  -0.110  -2.247  0.00  0.00    +0.008 A 
ATOM     17  C   UNL     1       3.066  -0.234  -3.530  0.00  0.00    +0.033 A 
ATOM     18  C   UNL     1       4.050   0.629  -3.974  0.00  0.00    +0.126 A 
ATOM     19  C   UNL     1       4.530   1.619  -3.137  0.00  0.00    +0.033 A 
ATOM     20  C   UNL     1       4.026   1.746  -1.856  0.00  0.00    +0.008 A 
BRANCH  18  21
ATOM     21  N   UNL     1       4.590   0.494  -5.346  0.00  0.00    +0.056 N 
ATOM     22  O   UNL     1       5.457   1.254  -5.737  0.00  0.00    -0.126 OA
ATOM     23  O   UNL     1       4.166  -0.378  -6.083  0.00  0.00    -0.126 OA
ENDBRANCH  18  21
ENDBRANCH   1  15
BRANCH   1  26
ATOM     24  C   UNL     1       3.302  -0.926   1.206  0.00  0.00    +0.251 C 
ATOM     25  O   UNL     1       4.380  -0.379   1.305  0.00  0.00    -0.272 OA
ATOM     26  N   UNL     1       2.290  -0.310   0.563  0.00  0.00    -0.302 N 
ATOM     27  H   UNL     1       1.428  -0.747   0.484  0.00  0.00    +0.150 HD
BRANCH  24  28
ATOM     28  C   UNL     1       3.094  -2.294   1.801  0.00  0.00    +0.324 C 
BRANCH  28  29
ATOM     29  O   UNL     1       4.304  -2.732   2.424  0.00  0.00    -0.483 OA
BRANCH  29  33
ATOM     30  C   UNL     1       4.251  -6.448   4.214  0.00  0.00    +0.000 A 
ATOM     31  C   UNL     1       5.406  -5.688   4.235  0.00  0.00    +0.004 A 
ATOM     32  C   UNL     1       5.426  -4.443   3.637  0.00  0.00    +0.045 A 
ATOM     33  C   UNL     1       4.286  -3.956   3.014  0.00  0.00    +0.121 A 
ATOM     34  C   UNL     1       3.127  -4.718   2.998  0.00  0.00    +0.045 A 
ATOM     35  C   UNL     1       3.114  -5.965   3.593  0.00  0.00    +0.004 A 
ENDBRANCH  29  33
ENDBRANCH  28  29
ENDBRANCH  24  28
ENDBRANCH   1  26
TORSDOF 8
