REMARK  Name = ZINC08715994
REMARK  10 active torsions:
REMARK  status: ('A' for Active; 'I' for Inactive)
REMARK    1  A    between atoms: C_1  and  C_2
REMARK    2  A    between atoms: C_9  and  C_14
REMARK    3  A    between atoms: C_14  and  O_16
REMARK    4  A    between atoms: O_16  and  C_17
REMARK    5  A    between atoms: C_17  and  C_18
REMARK    6  A    between atoms: C_18  and  C_20
REMARK    7  A    between atoms: C_21  and  N_36
REMARK    8  A    between atoms: N_22  and  C_29
REMARK    9  A    between atoms: N_25  and  C_28
REMARK   10  A    between atoms: C_29  and  C_30
REMARK                            x       y       z     vdW  Elec       q    Type
REMARK                         _______ _______ _______ _____ _____    ______ ____
ROOT
ATOM      1  C   UNL     1       5.650   9.060  -1.004  0.00  0.00    +0.209 C 
ATOM      2  O   UNL     1       4.614   9.649  -0.769  0.00  0.00    -0.288 OA
ENDROOT
BRANCH   1   3
ATOM      3  C   UNL     1       6.728   9.741  -1.609  0.00  0.00    +0.123 A 
ATOM      4  C   UNL     1       6.674  11.127  -1.837  0.00  0.00    +0.116 A 
ATOM      5  N   UNL     1       7.742  11.742  -2.426  0.00  0.00    -0.277 N 
ATOM      6  C   UNL     1       8.833  11.050  -2.788  0.00  0.00    +0.333 A 
ATOM      7  O   UNL     1       9.757  11.643  -3.309  0.00  0.00    -0.246 OA
ATOM      8  N   UNL     1       8.942   9.725  -2.596  0.00  0.00    -0.263 N 
ATOM      9  C   UNL     1       7.944   9.026  -2.016  0.00  0.00    +0.269 A 
ATOM     10  O   UNL     1       8.049   7.826  -1.838  0.00  0.00    -0.267 OA
ATOM     11  C   UNL     1      10.162   9.031  -3.015  0.00  0.00    +0.157 C 
BRANCH   4  12
ATOM     12  N   UNL     1       5.575  11.844  -1.478  0.00  0.00    -0.344 N 
ATOM     13  H   UNL     1       5.004  11.529  -0.760  0.00  0.00    +0.144 HD
ATOM     14  H   UNL     1       5.362  12.670  -1.940  0.00  0.00    +0.144 HD
ENDBRANCH   4  12
BRANCH   5  15
ATOM     15  C   UNL     1       7.695  13.186  -2.668  0.00  0.00    +0.163 C 
BRANCH  15  16
ATOM     16  C   UNL     1       8.250  13.914  -1.472  0.00  0.00    -0.028 A 
ATOM     17  C   UNL     1       7.409  14.298  -0.444  0.00  0.00    +0.005 A 
ATOM     18  C   UNL     1       7.919  14.962   0.656  0.00  0.00    +0.000 A 
ATOM     19  C   UNL     1       9.269  15.251   0.724  0.00  0.00    +0.000 A 
ATOM     20  C   UNL     1      10.110  14.871  -0.306  0.00  0.00    +0.000 A 
ATOM     21  C   UNL     1       9.600  14.203  -1.404  0.00  0.00    +0.005 A 
ENDBRANCH  15  16
ENDBRANCH   5  15
ENDBRANCH   1   3
BRANCH   1  22
ATOM     22  C   UNL     1       5.785   7.601  -0.649  0.00  0.00    +0.312 C 
BRANCH  22  23
ATOM     23  O   UNL     1       4.551   7.135  -0.043  0.00  0.00    -0.453 OA
BRANCH  23  24
ATOM     24  C   UNL     1       4.505   5.842   0.335  0.00  0.00    +0.340 C 
ATOM     25  O   UNL     1       5.471   5.124   0.163  0.00  0.00    -0.245 OA
BRANCH  24  33
ATOM     26  C   UNL     1      -0.832   1.767   0.867  0.00  0.00    +0.029 C 
ATOM     27  C   UNL     1      -0.423   1.877   2.337  0.00  0.00    +0.134 C 
ATOM     28  C   UNL     1       0.980   1.363   2.511  0.00  0.00    +0.230 C 
ATOM     29  O   UNL     1       1.128   0.205   2.840  0.00  0.00    -0.274 OA
ATOM     30  N   UNL     1       2.066   2.105   2.319  0.00  0.00    -0.284 N 
ATOM     31  C   UNL     1       2.093   3.443   1.932  0.00  0.00    +0.048 A 
ATOM     32  C   UNL     1       3.239   3.958   1.347  0.00  0.00    +0.039 A 
ATOM     33  C   UNL     1       3.285   5.299   0.957  0.00  0.00    +0.061 A 
ATOM     34  C   UNL     1       2.174   6.126   1.154  0.00  0.00    +0.016 A 
ATOM     35  C   UNL     1       1.035   5.614   1.734  0.00  0.00    +0.017 A 
ATOM     36  C   UNL     1       0.989   4.282   2.121  0.00  0.00    +0.030 A 
ATOM     37  S   UNL     1      -0.472   3.622   2.860  0.00  0.00    -0.111 S 
ATOM     38  H   UNL     1       2.923   1.673   2.461  0.00  0.00    +0.155 HD
ENDBRANCH  24  33
ENDBRANCH  23  24
ENDBRANCH  22  23
ENDBRANCH   1  22
TORSDOF 8
