REMARK  Name = ZINC21924322
REMARK  8 active torsions:
REMARK  status: ('A' for Active; 'I' for Inactive)
REMARK    1  A    between atoms: C_1  and  C_2
REMARK    2  A    between atoms: C_11  and  C_13
REMARK    3  A    between atoms: C_13  and  O_14
REMARK    4  A    between atoms: O_14  and  C_15
REMARK    5  A    between atoms: C_15  and  C_17
REMARK    6  A    between atoms: C_18  and  N_28
REMARK    7  A    between atoms: C_20  and  C_27
REMARK    8  A    between atoms: C_22  and  C_26
REMARK                            x       y       z     vdW  Elec       q    Type
REMARK                         _______ _______ _______ _____ _____    ______ ____
ROOT
ATOM      1  C   UNL     1      -0.326  -4.831   5.541  0.00  0.00    +0.348 C 
ATOM      2  O   UNL     1       0.661  -4.897   6.250  0.00  0.00    -0.244 OA
ENDROOT
BRANCH   1   3
ATOM      3  C   UNL     1      -1.400  -5.731   5.740  0.00  0.00    +0.119 A 
ATOM      4  C   UNL     1      -1.512  -6.734   6.678  0.00  0.00    +0.055 A 
ATOM      5  C   UNL     1      -2.725  -7.537   6.688  0.00  0.00    +0.030 A 
ATOM      6  C   UNL     1      -3.068  -8.612   7.546  0.00  0.00    -0.037 A 
ATOM      7  C   UNL     1      -4.280  -9.238   7.378  0.00  0.00    +0.025 A 
ATOM      8  C   UNL     1      -5.153  -8.823   6.383  0.00  0.00    +0.014 A 
ATOM      9  N   UNL     1      -4.831  -7.823   5.587  0.00  0.00    -0.353 N 
ATOM     10  C   UNL     1      -3.683  -7.191   5.708  0.00  0.00    +0.088 A 
ATOM     11  S   UNL     1      -2.936  -5.833   4.841  0.00  0.00    -0.062 S 
ATOM     12  C   UNL     1      -6.478  -9.519   6.211  0.00  0.00    +0.063 C 
ATOM     13  C   UNL     1      -2.118  -9.062   8.626  0.00  0.00    +0.044 C 
ATOM     14  H   UNL     1      -5.454  -7.546   4.896  0.00  0.00    +0.166 HD
BRANCH   4  15
ATOM     15  N   UNL     1      -0.494  -6.973   7.589  0.00  0.00    -0.356 N 
ATOM     16  H   UNL     1       0.427  -6.790   7.346  0.00  0.00    +0.142 HD
ATOM     17  H   UNL     1      -0.703  -7.322   8.470  0.00  0.00    +0.142 HD
ENDBRANCH   4  15
ENDBRANCH   1   3
BRANCH   1  18
ATOM     18  O   UNL     1      -0.396  -3.901   4.566  0.00  0.00    -0.454 OA
BRANCH  18  19
ATOM     19  C   UNL     1       0.724  -3.026   4.422  0.00  0.00    +0.288 C 
BRANCH  19  30
ATOM     20  C   UNL     1      -0.363   1.979   0.435  0.00  0.00    +0.064 C 
ATOM     21  C   UNL     1      -0.226   0.499   0.189  0.00  0.00    +0.025 A 
ATOM     22  C   UNL     1      -0.329   0.019  -1.071  0.00  0.00    +0.021 A 
ATOM     23  C   UNL     1      -0.203  -1.356  -1.313  0.00  0.00    +0.005 A 
ATOM     24  C   UNL     1       0.023  -2.205  -0.271  0.00  0.00    +0.047 A 
ATOM     25  C   UNL     1       0.127  -1.686   1.033  0.00  0.00    +0.141 A 
ATOM     26  N   UNL     1       0.005  -0.340   1.236  0.00  0.00    -0.265 N 
ATOM     27  C   UNL     1       0.109   0.164   2.485  0.00  0.00    +0.259 A 
ATOM     28  O   UNL     1      -0.003   1.364   2.681  0.00  0.00    -0.267 OA
ATOM     29  C   UNL     1       0.347  -0.711   3.551  0.00  0.00    +0.097 A 
ATOM     30  C   UNL     1       0.468  -2.063   3.292  0.00  0.00    +0.086 A 
ATOM     31  N   UNL     1       0.347  -2.514   2.053  0.00  0.00    -0.231 NA
ENDBRANCH  19  30
ENDBRANCH  18  19
ENDBRANCH   1  18
TORSDOF 5
