REMARK  Name = ZINC62494459
REMARK  5 active torsions:
REMARK  status: ('A' for Active; 'I' for Inactive)
REMARK    1  A    between atoms: C_1  and  O_2
REMARK    2  A    between atoms: O_2  and  C_3
REMARK    3  A    between atoms: C_6  and  C_10
REMARK    4  A    between atoms: C_8  and  N_9
REMARK    5  A    between atoms: N_14  and  C_15
REMARK                            x       y       z     vdW  Elec       q    Type
REMARK                         _______ _______ _______ _____ _____    ______ ____
ROOT
ATOM      1  C   UNL     1       2.561  -2.539   4.307  0.00  0.00    +0.187 A 
ATOM      2  N   UNL     1       2.872  -3.816   4.396  0.00  0.00    -0.108 NA
ATOM      3  N   UNL     1       3.483  -4.055   5.500  0.00  0.00    -0.022 NA
ATOM      4  N   UNL     1       3.610  -2.974   6.191  0.00  0.00    -0.039 NA
ATOM      5  N   UNL     1       3.021  -1.939   5.443  0.00  0.00    -0.193 N 
ENDROOT
BRANCH   5   6
ATOM      6  C   UNL     1       2.925  -0.585   5.791  0.00  0.00    +0.071 A 
ATOM      7  C   UNL     1       1.732   0.100   5.597  0.00  0.00    +0.031 A 
ATOM      8  C   UNL     1       1.639   1.434   5.940  0.00  0.00    +0.042 A 
ATOM      9  C   UNL     1       2.733   2.091   6.477  0.00  0.00    +0.142 A 
ATOM     10  C   UNL     1       3.924   1.410   6.672  0.00  0.00    +0.078 A 
ATOM     11  C   UNL     1       4.020   0.072   6.335  0.00  0.00    +0.050 A 
ATOM     12 CL   UNL     1       5.295   2.235   7.345  0.00  0.00    -0.081 Cl
ATOM     13  F   UNL     1       2.640   3.396   6.811  0.00  0.00    -0.204 F 
ENDBRANCH   5   6
BRANCH   1  17
ATOM     14  C   UNL     1       0.535  -0.638   1.086  0.00  0.00    +0.141 A 
ATOM     15  C   UNL     1       1.477   0.063   1.824  0.00  0.00    +0.048 A 
ATOM     16  C   UNL     1       2.135  -0.551   2.869  0.00  0.00    +0.015 A 
ATOM     17  C   UNL     1       1.855  -1.881   3.187  0.00  0.00    +0.023 A 
ATOM     18  C   UNL     1       0.906  -2.587   2.447  0.00  0.00    +0.038 A 
ATOM     19  C   UNL     1       0.245  -1.965   1.402  0.00  0.00    +0.067 A 
BRANCH  19  20
ATOM     20  N   UNL     1      -0.710  -2.669   0.660  0.00  0.00    -0.355 N 
ATOM     21  H   UNL     1      -1.171  -2.234  -0.075  0.00  0.00    +0.142 HD
ATOM     22  H   UNL     1      -0.912  -3.592   0.880  0.00  0.00    +0.142 HD
ENDBRANCH  19  20
BRANCH  14  24
ATOM     23  C   UNL     1       0.234   1.331  -0.212  0.00  0.00    +0.277 C 
ATOM     24  O   UNL     1      -0.111  -0.029   0.057  0.00  0.00    -0.493 OA
ENDBRANCH  14  24
ENDBRANCH   1  17
TORSDOF 4
