REMARK  Name = ZINC03327034
REMARK  3 active torsions:
REMARK  status: ('A' for Active; 'I' for Inactive)
REMARK    1  A    between atoms: C_1  and  C_2
REMARK    2  A    between atoms: C_9  and  C_11
REMARK    3  A    between atoms: C_11  and  N_12
REMARK                            x       y       z     vdW  Elec       q    Type
REMARK                         _______ _______ _______ _____ _____    ______ ____
ROOT
ATOM      1  N   UNL     1       2.929   1.198   2.589  0.00  0.00    -0.215 N 
ATOM      2  C   UNL     1       1.707   0.743   2.244  0.00  0.00    +0.247 C 
ATOM      3  O   UNL     1       0.863   0.276   2.978  0.00  0.00    -0.273 OA
ATOM      4  C   UNL     1       1.611   0.939   0.749  0.00  0.00    +0.117 C 
ATOM      5  C   UNL     1       1.424  -0.403   0.046  0.00  0.00    +0.040 C 
ATOM      6  C   UNL     1       0.221  -1.111   0.667  0.00  0.00    +0.038 C 
ATOM      7  C   UNL     1      -0.972  -0.192   0.711  0.00  0.00    -0.044 A 
ATOM      8  C   UNL     1      -2.225  -0.769   0.879  0.00  0.00    +0.004 A 
ATOM      9  C   UNL     1      -3.357   0.016   0.932  0.00  0.00    +0.000 A 
ATOM     10  C   UNL     1      -3.247   1.390   0.817  0.00  0.00    +0.000 A 
ATOM     11  C   UNL     1      -2.005   1.965   0.647  0.00  0.00    +0.004 A 
ATOM     12  C   UNL     1      -0.863   1.175   0.593  0.00  0.00    -0.042 A 
ATOM     13  C   UNL     1       0.461   1.869   0.398  0.00  0.00    +0.070 C 
ATOM     14  N   UNL     1       2.900   1.538   0.383  0.00  0.00    -0.285 N 
ATOM     15  C   UNL     1       3.606   1.650   1.526  0.00  0.00    +0.310 C 
ATOM     16  O   UNL     1       4.729   2.110   1.584  0.00  0.00    -0.252 OA
ATOM     17  H   UNL     1       3.188   1.800  -0.505  0.00  0.00    +0.151 HD
ENDROOT
BRANCH   1  18
ATOM     18  C   UNL     1       3.453   1.197   3.958  0.00  0.00    +0.213 C 
BRANCH  18  26
ATOM     19  C   UNL     1       2.388   4.896   5.613  0.00  0.00    +0.028 C 
ATOM     20  C   UNL     1       3.228   4.020   6.544  0.00  0.00    +0.073 C 
ATOM     21  C   UNL     1       2.470   3.788   7.860  0.00  0.00    +0.022 C 
ATOM     22  C   UNL     1       3.256   2.802   8.728  0.00  0.00    +0.003 C 
ATOM     23  C   UNL     1       3.376   1.462   7.999  0.00  0.00    +0.019 C 
ATOM     24  C   UNL     1       4.139   1.665   6.686  0.00  0.00    +0.108 C 
ATOM     25  N   UNL     1       3.470   2.717   5.909  0.00  0.00    -0.297 N 
ATOM     26  C   UNL     1       3.091   2.494   4.635  0.00  0.00    +0.234 C 
ATOM     27  O   UNL     1       2.459   3.336   4.033  0.00  0.00    -0.274 OA
ENDBRANCH  18  26
ENDBRANCH   1  18
TORSDOF 2
