REMARK  Name = ZINC38581571
REMARK  5 active torsions:
REMARK  status: ('A' for Active; 'I' for Inactive)
REMARK    1  A    between atoms: C_1  and  C_2
REMARK    2  A    between atoms: C_4  and  C_8
REMARK    3  A    between atoms: C_16  and  C_18
REMARK    4  A    between atoms: C_18  and  O_19
REMARK    5  A    between atoms: O_19  and  C_20
REMARK                            x       y       z     vdW  Elec       q    Type
REMARK                         _______ _______ _______ _____ _____    ______ ____
ROOT
ATOM      1  C   UNL     1      -0.976  -2.937  -1.266  0.00  0.00    +0.206 C 
ATOM      2  N   UNL     1      -0.341  -2.342  -2.467  0.00  0.00    -0.231 NA
ATOM      3  N   UNL     1       0.382  -3.433  -3.143  0.00  0.00    -0.224 NA
ATOM      4  C   UNL     1      -0.335  -4.638  -2.683  0.00  0.00    +0.240 C 
ATOM      5  N   UNL     1      -0.505  -4.340  -1.223  0.00  0.00    -0.206 N 
ATOM      6  N   UNL     1      -0.105  -5.369  -0.397  0.00  0.00    -0.175 NA
ATOM      7  C   UNL     1       0.601  -6.371  -0.804  0.00  0.00    +0.132 C 
ATOM      8  S   UNL     1       0.774  -6.092  -2.595  0.00  0.00    -0.064 S 
ATOM      9  H   UNL     1      -1.034  -1.934  -3.077  0.00  0.00    +0.143 HD
ATOM     10  H   UNL     1       0.324  -3.338  -4.146  0.00  0.00    +0.144 HD
ENDROOT
BRANCH   1  14
ATOM     11  C   UNL     1      -0.018   1.503   0.010  0.00  0.00    +0.067 C 
ATOM     12  C   UNL     1       0.002  -0.004   0.002  0.00  0.00    +0.058 C 
ATOM     13  C   UNL     1      -1.086  -0.777   0.003  0.00  0.00    +0.029 C 
ATOM     14  C   UNL     1      -0.531  -2.190  -0.007  0.00  0.00    +0.190 C 
ATOM     15  N   UNL     1       0.926  -1.973  -0.013  0.00  0.00    -0.177 NA
ATOM     16  N   UNL     1       1.125  -0.756  -0.013  0.00  0.00    -0.159 NA
ENDBRANCH   1  14
BRANCH   7  17
ATOM     17  C   UNL     1       1.148  -7.514   0.012  0.00  0.00    +0.293 C 
BRANCH  17  18
ATOM     18  O   UNL     1       0.768  -7.347   1.379  0.00  0.00    -0.485 OA
BRANCH  18  19
ATOM     19  C   UNL     1       1.183  -8.300   2.255  0.00  0.00    +0.121 A 
ATOM     20  C   UNL     1       1.947  -9.369   1.809  0.00  0.00    +0.047 A 
ATOM     21  C   UNL     1       2.368 -10.335   2.701  0.00  0.00    +0.019 A 
ATOM     22  C   UNL     1       2.030 -10.238   4.039  0.00  0.00    +0.018 A 
ATOM     23  C   UNL     1       1.269  -9.173   4.486  0.00  0.00    +0.019 A 
ATOM     24  C   UNL     1       0.850  -8.201   3.598  0.00  0.00    +0.047 A 
ATOM     25 BR   UNL     1       2.609 -11.562   5.258  0.00  0.00    -0.050 Br
ENDBRANCH  18  19
ENDBRANCH  17  18
ENDBRANCH   7  17
TORSDOF 4
