REMARK  Name = ZINC25074378
REMARK  11 active torsions:
REMARK  status: ('A' for Active; 'I' for Inactive)
REMARK    1  A    between atoms: C_1  and  C_2
REMARK    2  A    between atoms: C_2  and  N_3
REMARK    3  A    between atoms: N_3  and  C_4
REMARK    4  A    between atoms: N_3  and  C_14
REMARK    5  A    between atoms: C_4  and  C_5
REMARK    6  A    between atoms: C_14  and  C_15
REMARK    7  A    between atoms: C_16  and  C_29
REMARK    8  A    between atoms: C_17  and  C_23
REMARK    9  A    between atoms: C_29  and  O_31
REMARK   10  A    between atoms: O_31  and  C_32
REMARK   11  A    between atoms: C_32  and  C_33
REMARK                            x       y       z     vdW  Elec       q    Type
REMARK                         _______ _______ _______ _____ _____    ______ ____
ROOT
ATOM      1  C   UNL     1      -0.289   0.573   0.688  0.00  0.00    +0.008 C 
ATOM      2  C   UNL     1      -0.231   0.725   2.028  0.00  0.00    +0.076 C 
ATOM      3  C   UNL     1      -0.211  -0.527   2.881  0.00  0.00    +0.143 C 
ATOM      4  N   UNL     1      -0.256  -1.817   2.172  0.00  0.00    -0.288 N 
ATOM      5  C   UNL     1      -0.313  -1.808   0.825  0.00  0.00    +0.304 C 
ATOM      6  O   UNL     1      -0.351  -2.867   0.231  0.00  0.00    -0.252 OA
ATOM      7  N   UNL     1      -0.333  -0.669   0.121  0.00  0.00    -0.274 N 
ATOM      8  H   UNL     1      -0.244  -2.758   2.741  0.00  0.00    +0.151 HD
ATOM      9  H   UNL     1      -0.390  -0.773  -0.973  0.00  0.00    +0.156 HD
ENDROOT
BRANCH   3  10
ATOM     10  C   UNL     1      -1.389  -0.471   3.818  0.00  0.00    -0.023 A 
ATOM     11  C   UNL     1      -2.650  -0.811   3.365  0.00  0.00    +0.006 A 
ATOM     12  C   UNL     1      -3.730  -0.763   4.227  0.00  0.00    +0.000 A 
ATOM     13  C   UNL     1      -3.551  -0.365   5.538  0.00  0.00    +0.000 A 
ATOM     14  C   UNL     1      -2.291  -0.020   5.990  0.00  0.00    +0.000 A 
ATOM     15  C   UNL     1      -1.210  -0.072   5.130  0.00  0.00    +0.006 A 
ENDBRANCH   3  10
BRANCH   2  16
ATOM     16  C   UNL     1      -0.190   2.011   2.617  0.00  0.00    +0.339 C 
ATOM     17  O   UNL     1      -0.094   2.999   1.914  0.00  0.00    -0.245 OA
BRANCH  16  18
ATOM     18  O   UNL     1      -0.258   2.142   3.958  0.00  0.00    -0.462 OA
BRANCH  18  19
ATOM     19  C   UNL     1      -0.211   3.469   4.484  0.00  0.00    +0.229 C 
ATOM     20  C   UNL     1      -0.299   3.417   6.011  0.00  0.00    +0.048 C 
ENDBRANCH  18  19
ENDBRANCH  16  18
ENDBRANCH   2  16
BRANCH   1  21
ATOM     21  C   UNL     1      -0.312   1.792  -0.197  0.00  0.00    -0.026 C 
BRANCH  21  22
ATOM     22  N   UNL     1       1.065   2.239  -0.450  0.00  0.00    +0.386 N 
ATOM     23  H   UNL     1       1.583   2.303   0.518  0.00  0.00    -0.081 HD
BRANCH  22  25
ATOM     24  C   UNL     1       1.141   1.211  -2.671  0.00  0.00    -0.017 C 
ATOM     25  C   UNL     1       1.787   1.271  -1.286  0.00  0.00    -0.081 C 
ENDBRANCH  22  25
BRANCH  22  26
ATOM     26  C   UNL     1       1.081   3.576  -1.060  0.00  0.00    -0.042 C 
BRANCH  26  27
ATOM     27  C   UNL     1       2.462   4.166  -0.940  0.00  0.00    -0.060 A 
ATOM     28  C   UNL     1       2.835   4.818   0.220  0.00  0.00    +0.005 A 
ATOM     29  C   UNL     1       4.103   5.356   0.337  0.00  0.00    +0.050 A 
ATOM     30  C   UNL     1       4.999   5.254  -0.714  0.00  0.00    +0.166 A 
ATOM     31  C   UNL     1       4.622   4.602  -1.885  0.00  0.00    +0.166 A 
ATOM     32  C   UNL     1       3.351   4.059  -1.993  0.00  0.00    +0.051 A 
ATOM     33  O   UNL     1       5.669   4.634  -2.760  0.00  0.00    -0.453 OA
ATOM     34  C   UNL     1       6.547   5.665  -2.271  0.00  0.00    +0.466 C 
ATOM     35  O   UNL     1       6.283   5.695  -0.855  0.00  0.00    -0.453 OA
ENDBRANCH  26  27
ENDBRANCH  22  26
ENDBRANCH  21  22
ENDBRANCH   1  21
TORSDOF 9
