REMARK  Name = ZINC43730083
REMARK  2 active torsions:
REMARK  status: ('A' for Active; 'I' for Inactive)
REMARK    1  A    between atoms: C_5  and  C_7
REMARK    2  A    between atoms: C_7  and  C_9
REMARK                            x       y       z     vdW  Elec       q    Type
REMARK                         _______ _______ _______ _____ _____    ______ ____
ROOT
ATOM      1  C   UNL     1      -0.086  -2.842   0.033  0.00  0.00    +0.066 C 
ATOM      2  C   UNL     1      -0.560  -2.989   1.490  0.00  0.00    -0.055 C 
ATOM      3  C   UNL     1      -1.512  -1.843   1.857  0.00  0.00    -0.016 C 
ATOM      4  C   UNL     1      -2.845  -2.534   2.226  0.00  0.00    -0.020 C 
ATOM      5  C   UNL     1      -2.758  -3.880   1.468  0.00  0.00    -0.076 C 
ATOM      6  N   UNL     1      -1.306  -4.266   1.570  0.00  0.00    +0.395 N 
ATOM      7  C   UNL     1      -0.951  -5.085   0.401  0.00  0.00    +0.060 C 
ATOM      8  C   UNL     1       0.031  -4.294  -0.457  0.00  0.00    +0.085 C 
ATOM      9  C   UNL     1       1.439  -4.801  -0.319  0.00  0.00    -0.011 A 
ATOM     10  C   UNL     1       2.290  -4.953   0.753  0.00  0.00    +0.006 A 
ATOM     11  C   UNL     1       3.563  -5.458   0.559  0.00  0.00    +0.000 A 
ATOM     12  C   UNL     1       3.978  -5.810  -0.713  0.00  0.00    +0.002 A 
ATOM     13  C   UNL     1       3.128  -5.660  -1.789  0.00  0.00    +0.023 A 
ATOM     14  C   UNL     1       1.844  -5.151  -1.603  0.00  0.00    +0.038 A 
ATOM     15  N   UNL     1       0.817  -4.908  -2.517  0.00  0.00    -0.285 N 
ATOM     16  C   UNL     1      -0.281  -4.402  -1.924  0.00  0.00    +0.228 C 
ATOM     17  O   UNL     1      -1.321  -4.094  -2.468  0.00  0.00    -0.275 OA
ATOM     18  C   UNL     1      -2.182  -5.458  -0.385  0.00  0.00    -0.025 A 
ATOM     19  C   UNL     1      -3.143  -4.718  -1.038  0.00  0.00    +0.005 A 
ATOM     20  C   UNL     1      -4.183  -5.357  -1.689  0.00  0.00    +0.002 A 
ATOM     21  C   UNL     1      -4.255  -6.738  -1.683  0.00  0.00    +0.022 A 
ATOM     22  C   UNL     1      -3.293  -7.483  -1.030  0.00  0.00    +0.062 A 
ATOM     23  C   UNL     1      -2.242  -6.847  -0.371  0.00  0.00    +0.054 A 
ATOM     24  N   UNL     1      -1.165  -7.370   0.348  0.00  0.00    -0.285 N 
ATOM     25  C   UNL     1      -0.362  -6.405   0.833  0.00  0.00    +0.212 C 
ATOM     26  O   UNL     1       0.644  -6.566   1.491  0.00  0.00    -0.277 OA
ATOM     27 CL   UNL     1      -3.394  -9.216  -1.028  0.00  0.00    -0.082 Cl
ATOM     28  H   UNL     1       0.887  -5.082  -3.469  0.00  0.00    +0.155 HD
ATOM     29  H   UNL     1      -1.014  -8.318   0.483  0.00  0.00    +0.155 HD
ATOM     30  H   UNL     1      -1.112  -4.745   2.436  0.00  0.00    -0.079 HD
ENDROOT
BRANCH   1  31
ATOM     31  C   UNL     1       1.254  -2.154  -0.022  0.00  0.00    +0.167 C 
ATOM     32  O   UNL     1       1.968  -2.137   0.957  0.00  0.00    -0.292 OA
BRANCH  31  37
ATOM     33  C   UNL     1       1.249  -0.803  -3.521  0.00  0.00    +0.001 A 
ATOM     34  C   UNL     1       2.526  -0.276  -3.607  0.00  0.00    +0.001 A 
ATOM     35  C   UNL     1       3.391  -0.358  -2.530  0.00  0.00    +0.021 A 
ATOM     36  C   UNL     1       2.985  -0.967  -1.359  0.00  0.00    +0.051 A 
ATOM     37  C   UNL     1       1.695  -1.503  -1.265  0.00  0.00    +0.036 A 
ATOM     38  C   UNL     1       0.828  -1.414  -2.359  0.00  0.00    +0.013 A 
ATOM     39 CL   UNL     1       4.072  -1.071  -0.009  0.00  0.00    -0.083 Cl
ENDBRANCH  31  37
ENDBRANCH   1  31
TORSDOF 2
