REMARK  Name = ZINC60238924
REMARK  8 active torsions:
REMARK  status: ('A' for Active; 'I' for Inactive)
REMARK    1  A    between atoms: C_1  and  C_2
REMARK    2  A    between atoms: C_5  and  C_8
REMARK    3  A    between atoms: C_8  and  C_10
REMARK    4  A    between atoms: C_8  and  N_29
REMARK    5  A    between atoms: C_10  and  N_11
REMARK    6  A    between atoms: C_12  and  C_14
REMARK    7  A    between atoms: C_14  and  N_15
REMARK    8  A    between atoms: C_23  and  C_25
REMARK                            x       y       z     vdW  Elec       q    Type
REMARK                         _______ _______ _______ _____ _____    ______ ____
ROOT
ATOM      1  N   UNL     1       1.463  -6.250   0.252  0.00  0.00    -0.315 N 
ATOM      2  C   UNL     1       2.619  -6.918   0.429  0.00  0.00    +0.231 C 
ATOM      3  O   UNL     1       3.675  -6.322   0.399  0.00  0.00    -0.274 OA
ATOM      4  H   UNL     1       0.618  -6.726   0.276  0.00  0.00    +0.149 HD
ENDROOT
BRANCH   1   5
ATOM      5  C   UNL     1       1.481  -4.803   0.025  0.00  0.00    +0.093 C 
BRANCH   5   6
ATOM      6  C   UNL     1       0.061  -4.315  -0.273  0.00  0.00    -0.020 C 
BRANCH   6  11
ATOM      7  C   UNL     1      -1.752  -6.590  -5.266  0.00  0.00    +0.044 C 
ATOM      8  C   UNL     1      -1.279  -5.997  -3.964  0.00  0.00    -0.050 A 
ATOM      9  C   UNL     1      -1.683  -6.553  -2.764  0.00  0.00    +0.003 A 
ATOM     10  C   UNL     1      -1.249  -6.008  -1.570  0.00  0.00    +0.002 A 
ATOM     11  C   UNL     1      -0.411  -4.909  -1.575  0.00  0.00    -0.059 A 
ATOM     12  C   UNL     1      -0.006  -4.354  -2.775  0.00  0.00    +0.002 A 
ATOM     13  C   UNL     1      -0.437  -4.901  -3.969  0.00  0.00    +0.003 A 
ENDBRANCH   6  11
BRANCH   6  14
ATOM     14  N   UNL     1       0.058  -2.850  -0.373  0.00  0.00    +0.385 N 
ATOM     15  C   UNL     1      -1.317  -2.359  -0.649  0.00  0.00    -0.078 C 
ATOM     16  C   UNL     1      -1.269  -0.885  -0.172  0.00  0.00    -0.020 C 
ATOM     17  C   UNL     1      -0.373  -0.957   1.085  0.00  0.00    -0.020 C 
ATOM     18  C   UNL     1       0.449  -2.249   0.920  0.00  0.00    -0.078 C 
ATOM     19  H   UNL     1       0.688  -2.549  -1.102  0.00  0.00    -0.081 HD
ENDBRANCH   6  14
ENDBRANCH   5   6
ENDBRANCH   1   5
BRANCH   2  20
ATOM     20  C   UNL     1       2.601  -8.407   0.663  0.00  0.00    +0.213 C 
BRANCH  20  21
ATOM     21  N   UNL     1       3.973  -8.893   0.824  0.00  0.00    -0.215 N 
ATOM     22  C   UNL     1       4.753  -9.314  -0.193  0.00  0.00    +0.247 C 
ATOM     23  O   UNL     1       4.462  -9.361  -1.369  0.00  0.00    -0.273 OA
ATOM     24  C   UNL     1       6.064  -9.715   0.442  0.00  0.00    +0.115 C 
ATOM     25  C   UNL     1       6.340 -11.196   0.203  0.00  0.00    +0.035 C 
ATOM     26  C   UNL     1       7.656 -11.588   0.879  0.00  0.00    +0.003 C 
ATOM     27  C   UNL     1       8.794 -10.741   0.307  0.00  0.00    +0.000 C 
ATOM     28  C   UNL     1       8.515  -9.261   0.575  0.00  0.00    +0.006 C 
ATOM     29  C   UNL     1       7.202  -8.859  -0.102  0.00  0.00    +0.018 C 
ATOM     30  C   UNL     1       6.912  -7.384   0.182  0.00  0.00    +0.010 C 
ATOM     31  N   UNL     1       5.862  -9.454   1.873  0.00  0.00    -0.285 N 
ATOM     32  C   UNL     1       4.612  -8.970   1.998  0.00  0.00    +0.310 C 
ATOM     33  O   UNL     1       4.117  -8.643   3.059  0.00  0.00    -0.252 OA
ATOM     34  H   UNL     1       6.504  -9.598   2.586  0.00  0.00    +0.151 HD
ENDBRANCH  20  21
ENDBRANCH   2  20
TORSDOF 6
