REMARK  Name = ZINC39327021
REMARK  9 active torsions:
REMARK  status: ('A' for Active; 'I' for Inactive)
REMARK    1  A    between atoms: C_1  and  C_2
REMARK    2  A    between atoms: C_2  and  O_3
REMARK    3  A    between atoms: O_3  and  C_4
REMARK    4  A    between atoms: C_4  and  C_6
REMARK    5  A    between atoms: C_7  and  C_35
REMARK    6  A    between atoms: C_11  and  N_26
REMARK    7  A    between atoms: C_12  and  C_14
REMARK    8  A    between atoms: C_14  and  C_16
REMARK    9  A    between atoms: C_27  and  C_29
REMARK                            x       y       z     vdW  Elec       q    Type
REMARK                         _______ _______ _______ _____ _____    ______ ____
ROOT
ATOM      1  C   UNL     1       1.249  -2.359  -2.583  0.00  0.00    +0.065 C 
ATOM      2  C   UNL     1       1.588  -3.654  -2.540  0.00  0.00    +0.016 C 
ATOM      3  N   UNL     1       2.404  -4.223  -3.488  0.00  0.00    -0.312 N 
ATOM      4  C   UNL     1       3.072  -3.373  -4.331  0.00  0.00    +0.076 A 
ATOM      5  C   UNL     1       2.806  -2.015  -4.470  0.00  0.00    +0.014 A 
ATOM      6  C   UNL     1       3.595  -1.320  -5.366  0.00  0.00    +0.048 A 
ATOM      7  C   UNL     1       4.592  -2.008  -6.071  0.00  0.00    +0.078 A 
ATOM      8  S   UNL     1       4.407  -3.673  -5.450  0.00  0.00    -0.068 S 
ATOM      9  C   UNL     1       1.679  -1.396  -3.650  0.00  0.00    +0.092 C 
ATOM     10  C   UNL     1       1.061  -4.511  -1.418  0.00  0.00    +0.061 C 
ATOM     11  H   UNL     1       2.504  -5.186  -3.558  0.00  0.00    +0.152 HD
ENDROOT
BRANCH   9  12
ATOM     12  C   UNL     1       0.509  -1.089  -4.549  0.00  0.00    -0.032 A 
ATOM     13  C   UNL     1      -0.130  -2.098  -5.253  0.00  0.00    +0.024 A 
ATOM     14  C   UNL     1      -1.199  -1.778  -6.068  0.00  0.00    +0.111 A 
ATOM     15  N   UNL     1      -1.612  -0.530  -6.180  0.00  0.00    -0.263 NA
ATOM     16  C   UNL     1      -1.028   0.455  -5.526  0.00  0.00    +0.111 A 
ATOM     17  C   UNL     1       0.043   0.210  -4.688  0.00  0.00    +0.024 A 
ENDBRANCH   9  12
BRANCH   6  18
ATOM     18  N   UNL     1       3.402   0.041  -5.566  0.00  0.00    -0.357 N 
ATOM     19  H   UNL     1       2.709   0.510  -5.075  0.00  0.00    +0.142 HD
ATOM     20  H   UNL     1       3.959   0.522  -6.197  0.00  0.00    +0.142 HD
ENDBRANCH   6  18
BRANCH   1  21
ATOM     21  C   UNL     1       0.421  -1.864  -1.551  0.00  0.00    +0.338 C 
ATOM     22  O   UNL     1       0.895  -1.173  -0.668  0.00  0.00    -0.245 OA
BRANCH  21  23
ATOM     23  O   UNL     1      -0.896  -2.159  -1.543  0.00  0.00    -0.462 OA
BRANCH  23  25
ATOM     24  C   UNL     1      -3.132  -2.062  -0.629  0.00  0.00    +0.048 C 
ATOM     25  C   UNL     1      -1.674  -1.625  -0.469  0.00  0.00    +0.229 C 
ENDBRANCH  23  25
ENDBRANCH  21  23
ENDBRANCH   1  21
BRANCH   7  26
ATOM     26  C   UNL     1       5.497  -1.517  -7.015  0.00  0.00    +0.178 C 
ATOM     27  O   UNL     1       5.479  -0.340  -7.321  0.00  0.00    -0.291 OA
BRANCH  26  28
ATOM     28  C   UNL     1       6.496  -2.446  -7.655  0.00  0.00    +0.035 C 
ATOM     29  C   UNL     1       7.387  -3.061  -6.573  0.00  0.00    +0.018 C 
ATOM     30  C   UNL     1       8.401  -4.004  -7.223  0.00  0.00    -0.010 C 
ATOM     31  C   UNL     1       9.267  -3.220  -8.211  0.00  0.00    +0.007 C 
ATOM     32  C   UNL     1       8.376  -2.606  -9.293  0.00  0.00    -0.010 C 
ATOM     33  C   UNL     1       7.361  -1.663  -8.644  0.00  0.00    +0.018 C 
ATOM     34  C   UNL     1       7.634  -3.719 -10.036  0.00  0.00    +0.007 C 
ATOM     35  C   UNL     1       6.769  -4.503  -9.047  0.00  0.00    -0.010 C 
ATOM     36  C   UNL     1       7.660  -5.117  -7.965  0.00  0.00    +0.007 C 
ATOM     37  C   UNL     1       5.754  -3.560  -8.397  0.00  0.00    +0.018 C 
ENDBRANCH  26  28
ENDBRANCH   7  26
TORSDOF 7
