REMARK  Name = ZINC16237505
REMARK  11 active torsions:
REMARK  status: ('A' for Active; 'I' for Inactive)
REMARK    1  A    between atoms: C_1  and  C_2
REMARK    2  A    between atoms: C_5  and  S_8
REMARK    3  A    between atoms: S_8  and  N_11
REMARK    4  A    between atoms: N_11  and  C_12
REMARK    5  A    between atoms: C_12  and  C_14
REMARK    6  A    between atoms: C_12  and  C_17
REMARK    7  A    between atoms: C_14  and  C_15
REMARK    8  A    between atoms: C_14  and  C_16
REMARK    9  A    between atoms: C_17  and  N_19
REMARK   10  A    between atoms: N_26  and  C_29
REMARK   11  A    between atoms: C_29  and  C_30
REMARK                            x       y       z     vdW  Elec       q    Type
REMARK                         _______ _______ _______ _____ _____    ______ ____
ROOT
ATOM      1  N   UNL     1       4.919  -3.936   1.238  0.00  0.00    -0.155 NA
ATOM      2  C   UNL     1       6.106  -3.631   0.709  0.00  0.00    +0.163 A 
ATOM      3  N   UNL     1       6.469  -3.621  -0.602  0.00  0.00    -0.339 N 
ATOM      4  C   UNL     1       7.746  -3.278  -0.946  0.00  0.00    +0.024 A 
ATOM      5  C   UNL     1       8.555  -2.971   0.082  0.00  0.00    -0.004 A 
ATOM      6  S   UNL     1       7.515  -3.160   1.501  0.00  0.00    -0.059 S 
ATOM      7  C   UNL     1       9.990  -2.568   0.002  0.00  0.00    -0.033 C 
ATOM      8  N   UNL     1      10.496  -2.914  -1.340  0.00  0.00    +0.386 N 
ATOM      9  C   UNL     1       9.573  -2.397  -2.359  0.00  0.00    -0.072 C 
ATOM     10  C   UNL     1       8.282  -3.221  -2.372  0.00  0.00    +0.035 C 
ATOM     11  H   UNL     1       5.825  -3.857  -1.288  0.00  0.00    +0.167 HD
ATOM     12  H   UNL     1      10.563  -3.917  -1.426  0.00  0.00    -0.081 HD
ENDROOT
BRANCH   1  13
ATOM     13  C   UNL     1       3.912  -4.289   0.450  0.00  0.00    +0.257 C 
ATOM     14  O   UNL     1       4.071  -4.336  -0.755  0.00  0.00    -0.272 OA
BRANCH  13  15
ATOM     15  C   UNL     1       2.572  -4.633   1.048  0.00  0.00    +0.167 C 
BRANCH  15  16
ATOM     16  C   UNL     1       2.728  -5.818   2.003  0.00  0.00    +0.010 C 
ATOM     17  C   UNL     1       3.592  -5.402   3.196  0.00  0.00    +0.009 C 
ATOM     18  C   UNL     1       1.350  -6.258   2.500  0.00  0.00    +0.009 C 
ENDBRANCH  15  16
BRANCH  15  19
ATOM     19  N   UNL     1       1.637  -4.987  -0.022  0.00  0.00    -0.178 NA
ATOM     20  H   UNL     1       1.791  -5.780  -0.558  0.00  0.00    +0.149 HD
BRANCH  19  21
ATOM     21  S   UNL     1       0.314  -4.034  -0.315  0.00  0.00    +0.059 S 
ATOM     22  O   UNL     1      -0.339  -3.851   0.934  0.00  0.00    -0.153 OA
ATOM     23  O   UNL     1      -0.344  -4.590  -1.445  0.00  0.00    -0.153 OA
BRANCH  21  28
ATOM     24  C   UNL     1       2.357   1.387  -2.002  0.00  0.00    +0.044 C 
ATOM     25  C   UNL     1       1.847   0.033  -1.581  0.00  0.00    -0.050 A 
ATOM     26  C   UNL     1       1.611  -0.944  -2.531  0.00  0.00    +0.005 A 
ATOM     27  C   UNL     1       1.143  -2.186  -2.144  0.00  0.00    +0.029 A 
ATOM     28  C   UNL     1       0.911  -2.451  -0.807  0.00  0.00    +0.105 A 
ATOM     29  C   UNL     1       1.148  -1.476   0.143  0.00  0.00    +0.029 A 
ATOM     30  C   UNL     1       1.620  -0.235  -0.244  0.00  0.00    +0.005 A 
ENDBRANCH  21  28
ENDBRANCH  19  21
ENDBRANCH  15  19
ENDBRANCH  13  15
ENDBRANCH   1  13
BRANCH   8  31
ATOM     31  C   UNL     1      11.823  -2.316  -1.533  0.00  0.00    -0.043 C 
BRANCH  31  32
ATOM     32  C   UNL     1      12.799  -2.937  -0.567  0.00  0.00    -0.064 A 
ATOM     33  C   UNL     1      12.980  -2.381   0.686  0.00  0.00    +0.002 A 
ATOM     34  C   UNL     1      13.875  -2.951   1.572  0.00  0.00    +0.000 A 
ATOM     35  C   UNL     1      14.589  -4.076   1.205  0.00  0.00    +0.000 A 
ATOM     36  C   UNL     1      14.408  -4.632  -0.048  0.00  0.00    +0.000 A 
ATOM     37  C   UNL     1      13.510  -4.065  -0.932  0.00  0.00    +0.002 A 
ENDBRANCH  31  32
ENDBRANCH   8  31
TORSDOF 8
