REMARK  Name = ZINC64392337
REMARK  9 active torsions:
REMARK  status: ('A' for Active; 'I' for Inactive)
REMARK    1  A    between atoms: C_1  and  C_2
REMARK    2  A    between atoms: C_2  and  C_3
REMARK    3  A    between atoms: C_3  and  C_5
REMARK    4  A    between atoms: C_3  and  C_6
REMARK    5  A    between atoms: C_6  and  C_8
REMARK    6  A    between atoms: C_6  and  N_20
REMARK    7  A    between atoms: N_10  and  C_11
REMARK    8  A    between atoms: C_21  and  C_23
REMARK    9  A    between atoms: C_23  and  C_24
REMARK                            x       y       z     vdW  Elec       q    Type
REMARK                         _______ _______ _______ _____ _____    ______ ____
ROOT
ATOM      1  C   UNL     1       2.335  -0.130   1.219  0.00  0.00    +0.162 C 
ENDROOT
BRANCH   1   2
ATOM      2  C   UNL     1       3.263  -0.743   2.236  0.00  0.00    +0.236 C 
ATOM      3  O   UNL     1       3.966  -0.032   2.922  0.00  0.00    -0.274 OA
ATOM      4  N   UNL     1       3.311  -2.082   2.384  0.00  0.00    -0.277 N 
ATOM      5  H   UNL     1       2.804  -2.654   1.788  0.00  0.00    +0.152 HD
BRANCH   4   6
ATOM      6  C   UNL     1       4.129  -2.673   3.446  0.00  0.00    +0.269 C 
ATOM      7  N   UNL     1       5.543  -2.670   3.053  0.00  0.00    -0.348 N 
ATOM      8  C   UNL     1       5.944  -3.908   3.027  0.00  0.00    +0.061 A 
ATOM      9  C   UNL     1       7.235  -4.534   2.711  0.00  0.00    +0.027 A 
ATOM     10  C   UNL     1       7.356  -5.876   2.769  0.00  0.00    +0.002 A 
ATOM     11  C   UNL     1       6.287  -6.718   3.123  0.00  0.00    +0.002 A 
ATOM     12  C   UNL     1       5.062  -6.248   3.431  0.00  0.00    +0.027 A 
ATOM     13  C   UNL     1       4.813  -4.800   3.402  0.00  0.00    +0.061 A 
ATOM     14  N   UNL     1       3.757  -4.079   3.646  0.00  0.00    -0.348 N 
ATOM     15  H   UNL     1       6.081  -1.889   2.850  0.00  0.00    +0.163 HD
ATOM     16  H   UNL     1       2.885  -4.410   3.911  0.00  0.00    +0.163 HD
ENDBRANCH   4   6
ENDBRANCH   1   2
BRANCH   1  17
ATOM     17  N   UNL     1       2.493   1.326   1.229  0.00  0.00    -0.303 N 
ATOM     18  C   UNL     1       2.390   2.023   0.081  0.00  0.00    +0.218 C 
ATOM     19  O   UNL     1       2.075   1.459  -0.946  0.00  0.00    -0.275 OA
ATOM     20  H   UNL     1       2.670   1.789   2.063  0.00  0.00    +0.149 HD
BRANCH  18  21
ATOM     21  C   UNL     1       2.668   3.505   0.071  0.00  0.00    +0.133 C 
BRANCH  21  22
ATOM     22  C   UNL     1       2.485   4.041  -1.326  0.00  0.00    -0.003 A 
ATOM     23  C   UNL     1       3.574   4.160  -2.169  0.00  0.00    +0.007 A 
ATOM     24  C   UNL     1       3.406   4.652  -3.450  0.00  0.00    +0.000 A 
ATOM     25  C   UNL     1       2.149   5.025  -3.889  0.00  0.00    +0.003 A 
ATOM     26  C   UNL     1       1.059   4.906  -3.048  0.00  0.00    +0.038 A 
ATOM     27  C   UNL     1       1.225   4.409  -1.766  0.00  0.00    +0.127 A 
ATOM     28  F   UNL     1       0.159   4.288  -0.945  0.00  0.00    -0.205 F 
ENDBRANCH  21  22
ENDBRANCH  18  21
ENDBRANCH   1  17
BRANCH   1  29
ATOM     29  C   UNL     1       0.889  -0.490   1.565  0.00  0.00    +0.015 C 
ATOM     30  C   UNL     1      -0.037  -0.012   0.445  0.00  0.00    +0.010 C 
BRANCH  29  32
ATOM     31  C   UNL     1       1.307  -0.410   4.027  0.00  0.00    +0.004 C 
ATOM     32  C   UNL     1       0.495   0.190   2.878  0.00  0.00    +0.002 C 
ENDBRANCH  29  32
ENDBRANCH   1  29
TORSDOF 7
