REMARK  Name = ZINC34952506
REMARK  5 active torsions:
REMARK  status: ('A' for Active; 'I' for Inactive)
REMARK    1  A    between atoms: C_1  and  C_2
REMARK    2  A    between atoms: C_2  and  C_3
REMARK    3  A    between atoms: C_2  and  C_4
REMARK    4  A    between atoms: N_18  and  S_19
REMARK    5  A    between atoms: S_19  and  C_22
REMARK                            x       y       z     vdW  Elec       q    Type
REMARK                         _______ _______ _______ _____ _____    ______ ____
ROOT
ATOM      1  C   UNL     1      -1.433  -0.534   0.013  0.00  0.00    +0.129 C 
ATOM      2  C   UNL     1      -2.166  -0.057  -1.221  0.00  0.00    +0.040 A 
ATOM      3  C   UNL     1      -2.497  -0.866  -2.251  0.00  0.00    -0.016 A 
ATOM      4  C   UNL     1      -3.177  -0.044  -3.232  0.00  0.00    +0.003 A 
ATOM      5  C   UNL     1      -3.735  -0.328  -4.482  0.00  0.00    +0.010 A 
ATOM      6  C   UNL     1      -4.314   0.719  -5.155  0.00  0.00    +0.001 A 
ATOM      7  C   UNL     1      -4.350   2.001  -4.631  0.00  0.00    +0.002 A 
ATOM      8  C   UNL     1      -3.805   2.310  -3.397  0.00  0.00    +0.026 A 
ATOM      9  C   UNL     1      -3.210   1.266  -2.691  0.00  0.00    +0.047 A 
ATOM     10  N   UNL     1      -2.591   1.220  -1.475  0.00  0.00    -0.356 N 
ATOM     11  H   UNL     1      -2.470   1.978  -0.881  0.00  0.00    +0.166 HD
ATOM     12  C   UNL     1      -2.196  -2.341  -2.315  0.00  0.00    +0.054 C 
ATOM     13  C   UNL     1      -1.105  -2.673  -1.291  0.00  0.00    +0.115 C 
ATOM     14  N   UNL     1      -1.423  -2.006  -0.018  0.00  0.00    -0.167 NA
ENDROOT
BRANCH   1  16
ATOM     15  C   UNL     1      -0.019   1.526   0.010  0.00  0.00    +0.009 C 
ATOM     16  C   UNL     1       0.002  -0.004   0.002  0.00  0.00    +0.008 C 
ATOM     17  C   UNL     1       0.742  -0.511   1.242  0.00  0.00    +0.009 C 
ENDBRANCH   1  16
BRANCH  14  18
ATOM     18  S   UNL     1      -1.763  -2.886   1.343  0.00  0.00    +0.061 S 
ATOM     19  O   UNL     1      -1.150  -4.156   1.169  0.00  0.00    -0.153 OA
ATOM     20  O   UNL     1      -1.474  -2.047   2.452  0.00  0.00    -0.153 OA
BRANCH  18  21
ATOM     21  C   UNL     1      -3.502  -3.166   1.362  0.00  0.00    +0.106 A 
ATOM     22  C   UNL     1      -4.341  -2.258   1.982  0.00  0.00    +0.030 A 
ATOM     23  C   UNL     1      -5.706  -2.477   1.998  0.00  0.00    +0.022 A 
ATOM     24  C   UNL     1      -6.232  -3.604   1.393  0.00  0.00    +0.041 A 
ATOM     25  C   UNL     1      -5.393  -4.512   0.773  0.00  0.00    +0.022 A 
ATOM     26  C   UNL     1      -4.029  -4.290   0.753  0.00  0.00    +0.030 A 
ATOM     27 CL   UNL     1      -7.946  -3.880   1.412  0.00  0.00    -0.084 Cl
ENDBRANCH  18  21
ENDBRANCH  14  18
TORSDOF 3
