REMARK  Name = ZINC00423558
REMARK  7 active torsions:
REMARK  status: ('A' for Active; 'I' for Inactive)
REMARK    1  A    between atoms: C_1  and  C_2
REMARK    2  A    between atoms: C_2  and  C_3
REMARK    3  A    between atoms: C_3  and  C_5
REMARK    4  A    between atoms: C_3  and  N_6
REMARK    5  A    between atoms: C_7  and  C_9
REMARK    6  A    between atoms: N_11  and  C_24
REMARK    7  A    between atoms: N_22  and  C_23
REMARK                            x       y       z     vdW  Elec       q    Type
REMARK                         _______ _______ _______ _____ _____    ______ ____
ROOT
ATOM      1  C   UNL     1      -3.319   4.873   0.054  0.00  0.00    +0.063 A 
ATOM      2  C   UNL     1      -4.685   4.889   0.100  0.00  0.00    +0.102 A 
ATOM      3  N   UNL     1      -5.392   3.735   0.101  0.00  0.00    -0.316 N 
ATOM      4  C   UNL     1      -4.803   2.529   0.037  0.00  0.00    +0.275 A 
ATOM      5  O   UNL     1      -5.490   1.522   0.037  0.00  0.00    -0.265 OA
ATOM      6  C   UNL     1      -3.395   2.414  -0.007  0.00  0.00    +0.116 A 
ATOM      7  C   UNL     1      -2.632   3.578   0.005  0.00  0.00    +0.026 A 
ATOM      8  C   UNL     1      -1.228   3.164  -0.050  0.00  0.00    +0.009 A 
ATOM      9  C   UNL     1      -0.017   3.859  -0.077  0.00  0.00    +0.010 A 
ATOM     10  C   UNL     1       1.162   3.171  -0.132  0.00  0.00    +0.001 A 
ATOM     11  C   UNL     1       1.167   1.784  -0.160  0.00  0.00    +0.002 A 
ATOM     12  C   UNL     1      -0.015   1.078  -0.135  0.00  0.00    +0.026 A 
ATOM     13  C   UNL     1      -1.230   1.758  -0.085  0.00  0.00    +0.050 A 
ATOM     14  N   UNL     1      -2.539   1.329  -0.055  0.00  0.00    -0.339 N 
ATOM     15  C   UNL     1      -2.962  -0.073  -0.072  0.00  0.00    +0.149 C 
ATOM     16  C   UNL     1      -6.855   3.803   0.152  0.00  0.00    +0.152 C 
ENDROOT
BRANCH   1  18
ATOM     17  N   UNL     1      -3.195   7.312  -0.036  0.00  0.00    -0.309 N 
ATOM     18  C   UNL     1      -2.552   6.130   0.054  0.00  0.00    +0.246 C 
ATOM     19  O   UNL     1      -1.339   6.103   0.136  0.00  0.00    -0.270 OA
ATOM     20  H   UNL     1      -4.165   7.338  -0.028  0.00  0.00    +0.149 HD
BRANCH  17  21
ATOM     21  C   UNL     1      -2.429   8.556  -0.148  0.00  0.00    +0.070 C 
ATOM     22  C   UNL     1      -2.040   9.042   1.250  0.00  0.00    +0.028 C 
BRANCH  21  24
ATOM     23  C   UNL     1      -3.569   9.190  -2.279  0.00  0.00    +0.005 C 
ATOM     24  C   UNL     1      -3.284   9.620  -0.838  0.00  0.00    +0.018 C 
ENDBRANCH  21  24
ENDBRANCH  17  21
ENDBRANCH   1  18
TORSDOF 3
