REMARK  Name = ZINC39661298
REMARK  5 active torsions:
REMARK  status: ('A' for Active; 'I' for Inactive)
REMARK    1  A    between atoms: C_3  and  C_15
REMARK    2  A    between atoms: C_4  and  O_7
REMARK    3  A    between atoms: O_7  and  C_8
REMARK    4  A    between atoms: C_19  and  C_28
REMARK    5  A    between atoms: N_30  and  C_31
REMARK                            x       y       z     vdW  Elec       q    Type
REMARK                         _______ _______ _______ _____ _____    ______ ____
ROOT
ATOM      1  C   UNL     1       3.600   2.151   0.217  0.00  0.00    +0.252 C 
ATOM      2  O   UNL     1       4.613   1.480   0.191  0.00  0.00    -0.270 OA
ATOM      3  N   UNL     1       3.677   3.492   0.104  0.00  0.00    -0.296 N 
ATOM      4  C   UNL     1       2.560   4.462   0.014  0.00  0.00    +0.121 C 
ATOM      5  C   UNL     1       3.019   5.666   0.866  0.00  0.00    +0.100 C 
ATOM      6  C   UNL     1       4.554   5.575   0.878  0.00  0.00    -0.004 C 
ATOM      7  C   UNL     1       4.898   4.330   0.048  0.00  0.00    +0.115 C 
ATOM      8  C   UNL     1       5.163   6.821   0.242  0.00  0.00    -0.010 C 
ATOM      9  C   UNL     1       6.689   6.734   0.318  0.00  0.00    -0.082 C 
ATOM     10  N   UNL     1       7.106   6.625   1.722  0.00  0.00    +0.379 N 
ATOM     11  C   UNL     1       6.593   5.377   2.300  0.00  0.00    -0.082 C 
ATOM     12  C   UNL     1       5.062   5.406   2.307  0.00  0.00    -0.010 C 
ATOM     13  H   UNL     1       8.113   6.629   1.774  0.00  0.00    -0.086 HD
ATOM     14  H   UNL     1       6.741   7.409   2.241  0.00  0.00    -0.086 HD
ENDROOT
BRANCH   1  17
ATOM     15  C   UNL     1      -0.055   1.363  -0.092  0.00  0.00    +0.021 A 
ATOM     16  C   UNL     1       1.154   2.013  -0.270  0.00  0.00    +0.020 A 
ATOM     17  C   UNL     1       2.286   1.498   0.373  0.00  0.00    +0.099 A 
ATOM     18  C   UNL     1       2.148   0.350   1.168  0.00  0.00    +0.233 A 
ATOM     19  N   UNL     1       0.969  -0.232   1.304  0.00  0.00    -0.220 NA
ATOM     20  C   UNL     1      -0.110   0.236   0.708  0.00  0.00    +0.114 A 
BRANCH  18  21
ATOM     21  O   UNL     1       3.230  -0.165   1.799  0.00  0.00    -0.437 OA
BRANCH  21  22
ATOM     22  C   UNL     1       3.081  -1.340   2.465  0.00  0.00    +0.130 A 
ATOM     23  C   UNL     1       3.044  -2.536   1.763  0.00  0.00    +0.048 A 
ATOM     24  C   UNL     1       2.893  -3.730   2.441  0.00  0.00    +0.023 A 
ATOM     25  C   UNL     1       2.776  -3.733   3.820  0.00  0.00    +0.041 A 
ATOM     26  C   UNL     1       2.812  -2.542   4.522  0.00  0.00    +0.023 A 
ATOM     27  C   UNL     1       2.970  -1.346   3.848  0.00  0.00    +0.048 A 
ATOM     28 CL   UNL     1       2.585  -5.235   4.670  0.00  0.00    -0.084 Cl
ENDBRANCH  21  22
ENDBRANCH  18  21
ENDBRANCH   1  17
BRANCH   5  29
ATOM     29  C   UNL     1       2.573   6.958   0.231  0.00  0.00    +0.219 C 
ATOM     30  O   UNL     1       2.426   7.024  -0.971  0.00  0.00    -0.275 OA
ATOM     31  N   UNL     1       2.336   8.040   0.999  0.00  0.00    -0.304 N 
ATOM     32  H   UNL     1       2.454   7.987   1.961  0.00  0.00    +0.149 HD
BRANCH  31  33
ATOM     33  C   UNL     1       1.902   9.296   0.382  0.00  0.00    +0.151 C 
ATOM     34  C   UNL     1       1.089  10.096   1.402  0.00  0.00    +0.042 C 
ATOM     35  C   UNL     1       1.141  11.584   0.982  0.00  0.00    +0.079 C 
ATOM     36  S   UNL     1       2.773  11.679   0.149  0.00  0.00    -0.086 S 
ATOM     37  C   UNL     1       3.118  10.056  -0.091  0.00  0.00    +0.209 C 
ATOM     38  O   UNL     1       4.138   9.588  -0.554  0.00  0.00    -0.283 OA
ENDBRANCH  31  33
ENDBRANCH   5  29
TORSDOF 5
