REMARK  Name = ZINC03929029
REMARK  6 active torsions:
REMARK  status: ('A' for Active; 'I' for Inactive)
REMARK    1  A    between atoms: C_3  and  C_22
REMARK    2  A    between atoms: C_6  and  C_7
REMARK    3  A    between atoms: C_10  and  C_12
REMARK    4  A    between atoms: C_15  and  C_18
REMARK    5  A    between atoms: N_20  and  O_21
REMARK    6  A    between atoms: N_23  and  O_24
REMARK                            x       y       z     vdW  Elec       q    Type
REMARK                         _______ _______ _______ _____ _____    ______ ____
ROOT
ATOM      1  C   UNL     1      -1.292  -0.713  -0.103  0.00  0.00    +0.136 A 
ATOM      2  C   UNL     1      -1.425  -2.070  -0.057  0.00  0.00    +0.050 A 
ATOM      3  C   UNL     1      -2.798  -2.347  -0.099  0.00  0.00    +0.050 A 
ATOM      4  C   UNL     1      -3.445  -1.149  -0.169  0.00  0.00    +0.136 A 
ATOM      5  O   UNL     1      -2.522  -0.168  -0.165  0.00  0.00    -0.455 OA
ENDROOT
BRANCH   1  11
ATOM      6  C   UNL     1      -0.022   1.428  -0.129  0.00  0.00    +0.012 A 
ATOM      7  C   UNL     1       1.162   2.118  -0.109  0.00  0.00    +0.012 A 
ATOM      8  C   UNL     1       2.373   1.425  -0.043  0.00  0.00    +0.018 A 
ATOM      9  C   UNL     1       2.379   0.029   0.004  0.00  0.00    +0.012 A 
ATOM     10  C   UNL     1       1.195  -0.662  -0.016  0.00  0.00    +0.012 A 
ATOM     11  C   UNL     1      -0.018   0.030  -0.082  0.00  0.00    +0.017 A 
BRANCH   8  12
ATOM     12  C   UNL     1       3.650   2.171  -0.022  0.00  0.00    +0.162 C 
ATOM     13  N   UNL     1       3.691   3.379   0.460  0.00  0.00    -0.072 NA
ATOM     14  N   UNL     1       4.803   1.583  -0.516  0.00  0.00    -0.340 N 
ATOM     15  H   UNL     1       4.773   0.682  -0.876  0.00  0.00    +0.144 HD
ATOM     16  H   UNL     1       5.641   2.072  -0.502  0.00  0.00    +0.144 HD
BRANCH  13  17
ATOM     17  O   UNL     1       2.548   3.929   1.089  0.00  0.00    -0.408 OA
ATOM     18  H   UNL     1       2.674   4.830   1.415  0.00  0.00    +0.328 HD
ENDBRANCH  13  17
ENDBRANCH   8  12
ENDBRANCH   1  11
BRANCH   4  19
ATOM     19  C   UNL     1      -4.906  -0.958  -0.232  0.00  0.00    +0.017 A 
ATOM     20  C   UNL     1      -5.757  -2.067  -0.217  0.00  0.00    +0.012 A 
ATOM     21  C   UNL     1      -7.115  -1.890  -0.275  0.00  0.00    +0.012 A 
ATOM     22  C   UNL     1      -7.649  -0.601  -0.351  0.00  0.00    +0.017 A 
ATOM     23  C   UNL     1      -6.799   0.508  -0.366  0.00  0.00    +0.012 A 
ATOM     24  C   UNL     1      -5.441   0.332  -0.301  0.00  0.00    +0.012 A 
BRANCH  22  25
ATOM     25  C   UNL     1      -9.114  -0.410  -0.414  0.00  0.00    +0.129 C 
ATOM     26  N   UNL     1      -9.866  -1.319  -0.969  0.00  0.00    -0.383 N 
ATOM     27  N   UNL     1      -9.684   0.729   0.113  0.00  0.00    -0.253 N 
ATOM     28  H   UNL     1     -10.827  -1.193  -1.011  0.00  0.00    +0.157 HD
ATOM     29  H   UNL     1      -9.125   1.405   0.526  0.00  0.00    +0.195 HD
ATOM     30  H   UNL     1      -9.464  -2.120  -1.341  0.00  0.00    +0.157 HD
BRANCH  27  31
ATOM     31  O   UNL     1     -11.087   0.911   0.052  0.00  0.00    -0.288 OA
ATOM     32  H   UNL     1     -11.393   1.739   0.448  0.00  0.00    +0.244 HD
ENDBRANCH  27  31
ENDBRANCH  22  25
ENDBRANCH   4  19
TORSDOF 6
