REMARK  Name = ZINC48989717
REMARK  6 active torsions:
REMARK  status: ('A' for Active; 'I' for Inactive)
REMARK    1  A    between atoms: C_1  and  C_2
REMARK    2  A    between atoms: C_5  and  C_8
REMARK    3  A    between atoms: C_10  and  C_13
REMARK    4  A    between atoms: N_18  and  C_20
REMARK    5  A    between atoms: C_20  and  C_21
REMARK    6  A    between atoms: N_23  and  C_24
REMARK                            x       y       z     vdW  Elec       q    Type
REMARK                         _______ _______ _______ _____ _____    ______ ____
ROOT
ATOM      1  C   UNL     1       0.095  -7.465   1.619  0.00  0.00    +0.056 A 
ATOM      2  C   UNL     1       0.096  -7.275   3.022  0.00  0.00    +0.020 A 
ATOM      3  C   UNL     1       0.118  -8.364   3.836  0.00  0.00    +0.071 A 
ATOM      4  C   UNL     1       0.141  -9.652   3.270  0.00  0.00    +0.252 A 
ATOM      5  O   UNL     1       0.161 -10.632   3.996  0.00  0.00    -0.268 OA
ATOM      6  N   UNL     1       0.139  -9.811   1.934  0.00  0.00    -0.306 N 
ATOM      7  C   UNL     1       0.112  -8.746   1.108  0.00  0.00    +0.103 A 
ENDROOT
BRANCH   1  10
ATOM      8  C   UNL     1       0.033  -4.251  -0.010  0.00  0.00    +0.202 A 
ATOM      9  N   UNL     1       0.052  -5.040   1.075  0.00  0.00    -0.187 NA
ATOM     10  C   UNL     1       0.070  -6.302   0.711  0.00  0.00    +0.260 A 
ATOM     11  O   UNL     1       0.062  -6.351  -0.633  0.00  0.00    -0.332 OA
ATOM     12  N   UNL     1       0.032  -5.005  -1.082  0.00  0.00    -0.056 NA
BRANCH   8  17
ATOM     13  C   UNL     1      -0.060   1.508   0.037  0.00  0.00    +0.044 C 
ATOM     14  C   UNL     1      -0.035   0.001   0.025  0.00  0.00    -0.050 A 
ATOM     15  C   UNL     1      -0.038  -0.678  -1.180  0.00  0.00    +0.004 A 
ATOM     16  C   UNL     1      -0.016  -2.058  -1.197  0.00  0.00    +0.012 A 
ATOM     17  C   UNL     1       0.009  -2.767   0.002  0.00  0.00    +0.022 A 
ATOM     18  C   UNL     1       0.012  -2.077   1.213  0.00  0.00    +0.012 A 
ATOM     19  C   UNL     1      -0.005  -0.697   1.218  0.00  0.00    +0.004 A 
ENDBRANCH   8  17
ENDBRANCH   1  10
BRANCH   6  20
ATOM     20  C   UNL     1       0.163 -11.162   1.368  0.00  0.00    +0.220 C 
BRANCH  20  21
ATOM     21  C   UNL     1      -1.250 -11.651   1.178  0.00  0.00    +0.237 C 
ATOM     22  O   UNL     1      -2.184 -10.942   1.486  0.00  0.00    -0.274 OA
ATOM     23  N   UNL     1      -1.475 -12.878   0.667  0.00  0.00    -0.284 N 
ATOM     24  H   UNL     1      -0.731 -13.419   0.359  0.00  0.00    +0.155 HD
BRANCH  23  25
ATOM     25  C   UNL     1      -2.782 -13.371   0.581  0.00  0.00    +0.034 A 
ATOM     26  C   UNL     1      -3.030 -14.723   0.779  0.00  0.00    +0.025 A 
ATOM     27  C   UNL     1      -4.321 -15.207   0.693  0.00  0.00    +0.022 A 
ATOM     28  C   UNL     1      -5.367 -14.346   0.410  0.00  0.00    +0.041 A 
ATOM     29  C   UNL     1      -5.122 -12.998   0.212  0.00  0.00    +0.022 A 
ATOM     30  C   UNL     1      -3.834 -12.508   0.302  0.00  0.00    +0.025 A 
ATOM     31 CL   UNL     1      -6.988 -14.958   0.302  0.00  0.00    -0.084 Cl
ENDBRANCH  23  25
ENDBRANCH  20  21
ENDBRANCH   6  20
TORSDOF 5
