REMARK  Name = ZINC12499439
REMARK  11 active torsions:
REMARK  status: ('A' for Active; 'I' for Inactive)
REMARK    1  A    between atoms: C_1  and  C_2
REMARK    2  A    between atoms: C_5  and  N_9
REMARK    3  A    between atoms: C_6  and  C_8
REMARK    4  A    between atoms: N_9  and  S_10
REMARK    5  A    between atoms: S_10  and  C_13
REMARK    6  A    between atoms: C_16  and  N_19
REMARK    7  A    between atoms: N_19  and  C_20
REMARK    8  A    between atoms: C_20  and  N_22
REMARK    9  A    between atoms: C_23  and  C_25
REMARK   10  A    between atoms: C_25  and  O_26
REMARK   11  A    between atoms: O_26  and  C_27
REMARK                            x       y       z     vdW  Elec       q    Type
REMARK                         _______ _______ _______ _____ _____    ______ ____
ROOT
ATOM      1  N   UNL     1       1.784   5.412   4.562  0.00  0.00    -0.297 N 
ATOM      2  H   UNL     1       0.976   5.714   5.006  0.00  0.00    +0.154 HD
ENDROOT
BRANCH   1   6
ATOM      3  C   UNL     1       1.530   2.842   1.294  0.00  0.00    +0.109 A 
ATOM      4  C   UNL     1       0.702   3.947   1.369  0.00  0.00    +0.030 A 
ATOM      5  C   UNL     1       0.780   4.798   2.454  0.00  0.00    +0.025 A 
ATOM      6  C   UNL     1       1.699   4.550   3.465  0.00  0.00    +0.033 A 
ATOM      7  C   UNL     1       2.533   3.442   3.384  0.00  0.00    +0.025 A 
ATOM      8  C   UNL     1       2.446   2.592   2.299  0.00  0.00    +0.030 A 
BRANCH   3   9
ATOM      9  S   UNL     1       1.422   1.755  -0.089  0.00  0.00    +0.072 S 
ATOM     10  O   UNL     1       2.681   1.105  -0.193  0.00  0.00    -0.150 OA
ATOM     11  O   UNL     1       0.864   2.510  -1.156  0.00  0.00    -0.150 OA
BRANCH   9  12
ATOM     12  N   UNL     1       0.314   0.585   0.294  0.00  0.00    -0.216 N 
ATOM     13  H   UNL     1       0.582  -0.347   0.318  0.00  0.00    +0.174 HD
BRANCH  12  18
ATOM     14  C   UNL     1      -5.051   2.023   1.436  0.00  0.00    +0.044 C 
ATOM     15  C   UNL     1      -3.625   1.642   1.133  0.00  0.00    -0.050 A 
ATOM     16  C   UNL     1      -2.913   2.340   0.175  0.00  0.00    +0.005 A 
ATOM     17  C   UNL     1      -1.606   1.992  -0.106  0.00  0.00    +0.025 A 
ATOM     18  C   UNL     1      -1.007   0.940   0.576  0.00  0.00    +0.051 A 
ATOM     19  C   UNL     1      -1.727   0.238   1.534  0.00  0.00    -0.028 A 
ATOM     20  C   UNL     1      -3.032   0.594   1.813  0.00  0.00    +0.008 A 
ATOM     21  C   UNL     1      -1.083  -0.908   2.271  0.00  0.00    +0.046 C 
ENDBRANCH  12  18
ENDBRANCH   9  12
ENDBRANCH   3   9
ENDBRANCH   1   6
BRANCH   1  22
ATOM     22  C   UNL     1       2.989   5.824   5.004  0.00  0.00    +0.141 C 
ATOM     23  S   UNL     1       4.419   5.205   4.293  0.00  0.00    -0.018 S 
BRANCH  22  24
ATOM     24  N   UNL     1       3.069   6.724   6.004  0.00  0.00    -0.265 N 
ATOM     25  C   UNL     1       4.274   7.136   6.446  0.00  0.00    +0.256 C 
ATOM     26  O   UNL     1       5.286   6.697   5.942  0.00  0.00    -0.272 OA
ATOM     27  H   UNL     1       2.259   7.074   6.407  0.00  0.00    +0.157 HD
BRANCH  25  28
ATOM     28  C   UNL     1       4.363   8.141   7.564  0.00  0.00    +0.325 C 
BRANCH  28  29
ATOM     29  O   UNL     1       5.736   8.416   7.850  0.00  0.00    -0.482 OA
BRANCH  29  30
ATOM     30  C   UNL     1       5.994   9.309   8.840  0.00  0.00    +0.129 A 
ATOM     31  C   UNL     1       4.965   9.902   9.516  0.00  0.00    +0.046 A 
ATOM     32  C   UNL     1       5.212  10.819  10.534  0.00  0.00    +0.004 A 
ATOM     33  C   UNL     1       6.484  11.152  10.886  0.00  0.00    +0.009 A 
ATOM     34  C   UNL     1       7.570  10.564  10.215  0.00  0.00    -0.014 A 
ATOM     35  C   UNL     1       7.324   9.625   9.182  0.00  0.00    +0.024 A 
ATOM     36  C   UNL     1       8.409   9.041   8.509  0.00  0.00    +0.012 A 
ATOM     37  C   UNL     1       9.680   9.376   8.862  0.00  0.00    +0.001 A 
ATOM     38  C   UNL     1       9.923  10.295   9.881  0.00  0.00    +0.001 A 
ATOM     39  C   UNL     1       8.896  10.884  10.553  0.00  0.00    +0.008 A 
ENDBRANCH  29  30
ENDBRANCH  28  29
ENDBRANCH  25  28
ENDBRANCH  22  24
ENDBRANCH   1  22
TORSDOF 9
