REMARK  Name = ZINC16739435
REMARK  6 active torsions:
REMARK  status: ('A' for Active; 'I' for Inactive)
REMARK    1  A    between atoms: C_1  and  O_2
REMARK    2  A    between atoms: O_2  and  C_3
REMARK    3  A    between atoms: C_6  and  N_9
REMARK    4  A    between atoms: C_10  and  C_20
REMARK    5  A    between atoms: C_15  and  C_18
REMARK    6  A    between atoms: C_23  and  C_25
REMARK                            x       y       z     vdW  Elec       q    Type
REMARK                         _______ _______ _______ _____ _____    ______ ____
ROOT
ATOM      1  N   UNL     1      -4.889  -2.581   0.035  0.00  0.00    -0.267 N 
ATOM      2  C   UNL     1      -4.977  -4.047  -0.069  0.00  0.00    +0.232 C 
ATOM      3  N   UNL     1      -6.015  -4.362  -1.065  0.00  0.00    -0.305 N 
ATOM      4  C   UNL     1      -7.214  -3.705  -0.983  0.00  0.00    +0.111 C 
ATOM      5  N   UNL     1      -8.348  -4.273  -1.483  0.00  0.00    -0.386 N 
ATOM      6  C   UNL     1      -7.261  -2.442  -0.380  0.00  0.00    +0.118 C 
ATOM      7  C   UNL     1      -6.069  -1.871   0.148  0.00  0.00    +0.102 C 
ATOM      8  S   UNL     1      -6.093  -0.382   0.881  0.00  0.00    -0.034 SA
ATOM      9  H   UNL     1      -5.854  -5.019  -1.760  0.00  0.00    +0.150 HD
ATOM     10  H   UNL     1      -8.310  -5.148  -1.900  0.00  0.00    +0.157 HD
ATOM     11  H   UNL     1      -9.194  -3.802  -1.422  0.00  0.00    +0.157 HD
ENDROOT
BRANCH   1  15
ATOM     12  C   UNL     1      -1.201  -0.638   0.009  0.00  0.00    +0.120 A 
ATOM     13  C   UNL     1      -1.543  -1.462   1.071  0.00  0.00    +0.047 A 
ATOM     14  C   UNL     1      -2.765  -2.105   1.081  0.00  0.00    +0.027 A 
ATOM     15  C   UNL     1      -3.651  -1.928   0.027  0.00  0.00    +0.037 A 
ATOM     16  C   UNL     1      -3.307  -1.104  -1.037  0.00  0.00    +0.027 A 
ATOM     17  C   UNL     1      -2.087  -0.457  -1.042  0.00  0.00    +0.047 A 
BRANCH  12  19
ATOM     18  C   UNL     1       0.866  -0.238   1.114  0.00  0.00    +0.277 C 
ATOM     19  O   UNL     1       0.003  -0.005   0.000  0.00  0.00    -0.495 OA
ENDBRANCH  12  19
ENDBRANCH   1  15
BRANCH   2  20
ATOM     20  C   UNL     1      -5.354  -4.633   1.267  0.00  0.00    +0.144 A 
ATOM     21  C   UNL     1      -6.051  -5.771   1.458  0.00  0.00    +0.049 A 
ATOM     22  C   UNL     1      -6.179  -5.948   2.850  0.00  0.00    +0.050 A 
ATOM     23  C   UNL     1      -5.547  -4.898   3.438  0.00  0.00    +0.135 A 
ATOM     24  O   UNL     1      -5.047  -4.111   2.466  0.00  0.00    -0.456 OA
BRANCH  23  25
ATOM     25  C   UNL     1      -5.425  -4.663   4.892  0.00  0.00    +0.017 A 
ATOM     26  C   UNL     1      -5.983  -5.567   5.797  0.00  0.00    +0.012 A 
ATOM     27  C   UNL     1      -5.865  -5.342   7.153  0.00  0.00    +0.016 A 
ATOM     28  C   UNL     1      -5.197  -4.222   7.617  0.00  0.00    +0.018 A 
ATOM     29  C   UNL     1      -4.641  -3.321   6.724  0.00  0.00    +0.016 A 
ATOM     30  C   UNL     1      -4.746  -3.538   5.366  0.00  0.00    +0.012 A 
ATOM     31 BR   UNL     1      -5.042  -3.921   9.477  0.00  0.00    -0.050 Br
ENDBRANCH  23  25
ENDBRANCH   2  20
BRANCH   6  32
ATOM     32  C   UNL     1      -8.501  -1.732  -0.291  0.00  0.00    +0.105 C 
ATOM     33  N   UNL     1      -9.484  -1.168  -0.220  0.00  0.00    -0.191 NA
ENDBRANCH   6  32
TORSDOF 5
