REMARK  Name = ZINC58251778
REMARK  6 active torsions:
REMARK  status: ('A' for Active; 'I' for Inactive)
REMARK    1  A    between atoms: C_4  and  C_7
REMARK    2  A    between atoms: C_7  and  C_8
REMARK    3  A    between atoms: C_7  and  N_14
REMARK    4  A    between atoms: C_15  and  C_17
REMARK    5  A    between atoms: C_20  and  S_22
REMARK    6  A    between atoms: S_22  and  N_25
REMARK                            x       y       z     vdW  Elec       q    Type
REMARK                         _______ _______ _______ _____ _____    ______ ____
ROOT
ATOM      1  N   UNL     1       3.611  -1.865  -0.930  0.00  0.00    -0.302 N 
ATOM      2  C   UNL     1       3.825  -1.716  -2.253  0.00  0.00    +0.280 C 
ATOM      3  O   UNL     1       4.100  -0.620  -2.705  0.00  0.00    -0.267 OA
ATOM      4  H   UNL     1       3.392  -2.738  -0.569  0.00  0.00    +0.150 HD
ENDROOT
BRANCH   2   5
ATOM      5  C   UNL     1       3.725  -2.874  -3.146  0.00  0.00    +0.192 A 
ATOM      6  C   UNL     1       3.921  -2.865  -4.497  0.00  0.00    +0.057 A 
ATOM      7  C   UNL     1       3.726  -4.182  -4.943  0.00  0.00    +0.072 A 
ATOM      8  C   UNL     1       3.424  -4.928  -3.858  0.00  0.00    +0.258 A 
ATOM      9  O   UNL     1       3.429  -4.138  -2.776  0.00  0.00    -0.432 OA
BRANCH   8  10
ATOM     10  S   UNL     1       3.085  -6.657  -3.864  0.00  0.00    +0.089 S 
ATOM     11  O   UNL     1       2.301  -6.921  -2.708  0.00  0.00    -0.150 OA
ATOM     12  O   UNL     1       2.642  -6.980  -5.175  0.00  0.00    -0.150 OA
BRANCH  10  13
ATOM     13  N   UNL     1       4.528  -7.440  -3.645  0.00  0.00    -0.201 NA
ATOM     14  H   UNL     1       5.346  -6.929  -3.544  0.00  0.00    +0.144 HD
ATOM     15  H   UNL     1       4.554  -8.409  -3.618  0.00  0.00    +0.144 HD
ENDBRANCH  10  13
ENDBRANCH   8  10
ENDBRANCH   2   5
BRANCH   1  16
ATOM     16  C   UNL     1       3.711  -0.707  -0.038  0.00  0.00    +0.107 C 
BRANCH  16  20
ATOM     17  C   UNL     1      -0.017   1.378   0.010  0.00  0.00    +0.000 A 
ATOM     18  C   UNL     1       1.171   2.086   0.002  0.00  0.00    +0.000 A 
ATOM     19  C   UNL     1       2.377   1.411  -0.013  0.00  0.00    +0.005 A 
ATOM     20  C   UNL     1       2.396   0.029  -0.020  0.00  0.00    -0.027 A 
ATOM     21  C   UNL     1       1.208  -0.679  -0.012  0.00  0.00    +0.005 A 
ATOM     22  C   UNL     1       0.002  -0.004   0.002  0.00  0.00    +0.000 A 
ENDBRANCH  16  20
BRANCH  16  23
ATOM     23  C   UNL     1       4.049  -1.182   1.377  0.00  0.00    +0.014 C 
ATOM     24  C   UNL     1       4.153   0.027   2.309  0.00  0.00    +0.006 C 
ATOM     25  C   UNL     1       4.491  -0.448   3.724  0.00  0.00    +0.000 C 
ATOM     26  C   UNL     1       5.826  -1.195   3.707  0.00  0.00    +0.000 C 
ATOM     27  C   UNL     1       5.722  -2.403   2.774  0.00  0.00    +0.000 C 
ATOM     28  C   UNL     1       5.384  -1.929   1.359  0.00  0.00    +0.006 C 
ENDBRANCH  16  23
ENDBRANCH   1  16
TORSDOF 6
