REMARK  Name = ZINC39521621
REMARK  8 active torsions:
REMARK  status: ('A' for Active; 'I' for Inactive)
REMARK    1  A    between atoms: C_1  and  C_2
REMARK    2  A    between atoms: C_2  and  C_3
REMARK    3  A    between atoms: C_2  and  S_4
REMARK    4  A    between atoms: S_4  and  C_7
REMARK    5  A    between atoms: N_13  and  C_14
REMARK    6  A    between atoms: C_19  and  O_20
REMARK    7  A    between atoms: C_24  and  C_27
REMARK    8  A    between atoms: C_32  and  O_33
REMARK                            x       y       z     vdW  Elec       q    Type
REMARK                         _______ _______ _______ _____ _____    ______ ____
ROOT
ATOM      1  C   UNL     1      -2.671   0.264  -1.104  0.00  0.00    +0.217 C 
ATOM      2  C   UNL     1      -4.191   0.355  -1.274  0.00  0.00    +0.046 C 
ATOM      3  C   UNL     1      -4.511   1.026  -2.612  0.00  0.00    +0.006 C 
ATOM      4  C   UNL     1      -3.938   2.445  -2.624  0.00  0.00    +0.026 C 
ATOM      5  C   UNL     1      -2.417   2.378  -2.466  0.00  0.00    +0.037 C 
ATOM      6  N   UNL     1      -2.094   1.607  -1.259  0.00  0.00    -0.300 N 
ATOM      7  C   UNL     1      -1.852   3.792  -2.334  0.00  0.00    +0.026 C 
ATOM      8  C   UNL     1      -0.332   3.721  -2.171  0.00  0.00    +0.003 C 
ATOM      9  C   UNL     1       0.281   3.035  -3.393  0.00  0.00    +0.008 C 
ATOM     10  C   UNL     1      -0.285   1.619  -3.521  0.00  0.00    +0.025 C 
ATOM     11  C   UNL     1      -1.804   1.690  -3.686  0.00  0.00    +0.034 C 
ENDROOT
BRANCH   6  12
ATOM     12  C   UNL     1      -1.256   2.141  -0.273  0.00  0.00    +0.074 A 
ATOM     13  C   UNL     1       0.043   1.674  -0.136  0.00  0.00    +0.027 A 
ATOM     14  C   UNL     1       0.869   2.203   0.837  0.00  0.00    +0.002 A 
ATOM     15  C   UNL     1       0.403   3.199   1.677  0.00  0.00    +0.004 A 
ATOM     16  C   UNL     1      -0.890   3.669   1.546  0.00  0.00    +0.047 A 
ATOM     17  C   UNL     1      -1.722   3.148   0.570  0.00  0.00    +0.138 A 
BRANCH  17  18
ATOM     18  O   UNL     1      -2.993   3.613   0.437  0.00  0.00    -0.505 OA
ATOM     19  H   UNL     1      -3.644   3.138   0.971  0.00  0.00    +0.292 HD
ENDBRANCH  17  18
ENDBRANCH   6  12
BRANCH  10  20
ATOM     20  C   UNL     1       0.320   0.943  -4.724  0.00  0.00    -0.003 A 
ATOM     21  C   UNL     1       0.151   1.490  -5.982  0.00  0.00    +0.007 A 
ATOM     22  C   UNL     1       0.705   0.870  -7.087  0.00  0.00    +0.001 A 
ATOM     23  C   UNL     1       1.430  -0.298  -6.936  0.00  0.00    +0.004 A 
ATOM     24  C   UNL     1       1.603  -0.848  -5.681  0.00  0.00    +0.046 A 
ATOM     25  C   UNL     1       1.052  -0.225  -4.570  0.00  0.00    +0.120 A 
BRANCH  25  26
ATOM     26  O   UNL     1       1.225  -0.761  -3.333  0.00  0.00    -0.506 OA
ATOM     27  H   UNL     1       0.538  -1.392  -3.078  0.00  0.00    +0.292 HD
ENDBRANCH  25  26
ENDBRANCH  10  20
BRANCH   1  28
ATOM     28  S   UNL     1      -2.283  -0.378   0.548  0.00  0.00    -0.010 S 
ATOM     29  O   UNL     1      -2.958   0.420   1.511  0.00  0.00    -0.172 OA
ATOM     30  O   UNL     1      -0.874  -0.538   0.647  0.00  0.00    -0.172 OA
BRANCH  28  32
ATOM     31  C   UNL     1      -2.409  -2.868  -0.577  0.00  0.00    +0.031 C 
ATOM     32  C   UNL     1      -3.047  -2.023   0.528  0.00  0.00    +0.126 C 
ATOM     33  C   UNL     1      -2.829  -2.703   1.881  0.00  0.00    +0.031 C 
ENDBRANCH  28  32
ENDBRANCH   1  28
TORSDOF 6
