REMARK  Name = ZINC43641807
REMARK  6 active torsions:
REMARK  status: ('A' for Active; 'I' for Inactive)
REMARK    1  A    between atoms: C_4  and  C_7
REMARK    2  A    between atoms: C_7  and  C_8
REMARK    3  A    between atoms: C_8  and  C_9
REMARK    4  A    between atoms: C_9  and  N_10
REMARK    5  A    between atoms: C_22  and  C_24
REMARK    6  A    between atoms: C_29  and  N_30
REMARK                            x       y       z     vdW  Elec       q    Type
REMARK                         _______ _______ _______ _____ _____    ______ ____
ROOT
ATOM      1  N   UNL     1       5.836  -1.585   2.844  0.00  0.00    +0.380 N 
ATOM      2  C   UNL     1       6.284  -0.341   3.481  0.00  0.00    -0.077 C 
ATOM      3  C   UNL     1       6.663  -0.618   4.937  0.00  0.00    +0.004 C 
ATOM      4  C   UNL     1       7.796  -1.648   4.980  0.00  0.00    +0.076 C 
ATOM      5  C   UNL     1       7.364  -2.904   4.217  0.00  0.00    -0.007 C 
ATOM      6  C   UNL     1       6.941  -2.550   2.810  0.00  0.00    -0.074 C 
ATOM      7  C   UNL     1       6.175  -3.549   4.930  0.00  0.00    +0.005 C 
ATOM      8  C   UNL     1       6.589  -3.961   6.345  0.00  0.00    +0.019 C 
ATOM      9  C   UNL     1       7.011  -2.717   7.132  0.00  0.00    +0.108 C 
ATOM     10  N   UNL     1       8.073  -1.996   6.380  0.00  0.00    -0.294 N 
ATOM     11  C   UNL     1       9.256  -1.685   6.945  0.00  0.00    +0.249 C 
ATOM     12  O   UNL     1      10.144  -1.201   6.269  0.00  0.00    -0.270 OA
ATOM     13  H   UNL     1       5.068  -1.973   3.371  0.00  0.00    -0.082 HD
ENDROOT
BRANCH  11  14
ATOM     14  C   UNL     1       9.475  -1.931   8.383  0.00  0.00    +0.058 A 
ATOM     15  C   UNL     1       8.518  -1.530   9.318  0.00  0.00    +0.015 A 
ATOM     16  C   UNL     1       8.729  -1.763  10.660  0.00  0.00    +0.001 A 
ATOM     17  C   UNL     1       9.886  -2.393  11.087  0.00  0.00    +0.002 A 
ATOM     18  C   UNL     1      10.841  -2.796  10.175  0.00  0.00    +0.024 A 
ATOM     19  C   UNL     1      10.643  -2.575   8.819  0.00  0.00    +0.050 A 
BRANCH  19  20
ATOM     20  N   UNL     1      11.602  -2.985   7.896  0.00  0.00    -0.254 N 
ATOM     21  C   UNL     1      12.685  -2.072   7.526  0.00  0.00    +0.124 C 
ATOM     22  C   UNL     1      13.972  -2.870   7.303  0.00  0.00    +0.115 C 
ATOM     23  C   UNL     1      13.669  -4.070   6.441  0.00  0.00    +0.222 C 
ATOM     24  O   UNL     1      14.494  -4.473   5.650  0.00  0.00    -0.275 OA
ATOM     25  N   UNL     1      12.482  -4.694   6.552  0.00  0.00    -0.240 N 
ATOM     26  C   UNL     1      11.523  -4.215   7.362  0.00  0.00    +0.313 C 
ATOM     27  O   UNL     1      10.559  -4.910   7.614  0.00  0.00    -0.252 OA
ATOM     28  H   UNL     1      12.318  -5.503   6.042  0.00  0.00    +0.159 HD
ENDBRANCH  19  20
ENDBRANCH  11  14
BRANCH   1  29
ATOM     29  C   UNL     1       5.393  -1.300   1.473  0.00  0.00    -0.079 C 
BRANCH  29  30
ATOM     30  C   UNL     1       4.162  -0.393   1.512  0.00  0.00    -0.014 C 
BRANCH  30  31
ATOM     31  C   UNL     1       3.701  -0.096   0.084  0.00  0.00    +0.033 C 
BRANCH  31  35
ATOM     32  C   UNL     1       0.264   2.438   0.191  0.00  0.00    +0.000 A 
ATOM     33  C   UNL     1       1.530   2.992   0.146  0.00  0.00    +0.000 A 
ATOM     34  C   UNL     1       2.642   2.172   0.111  0.00  0.00    +0.003 A 
ATOM     35  C   UNL     1       2.489   0.798   0.122  0.00  0.00    -0.047 A 
ATOM     36  C   UNL     1       1.223   0.244   0.169  0.00  0.00    +0.003 A 
ATOM     37  C   UNL     1       0.111   1.065   0.202  0.00  0.00    +0.000 A 
ENDBRANCH  31  35
ENDBRANCH  30  31
ENDBRANCH  29  30
ENDBRANCH   1  29
TORSDOF 6
