REMARK  Name = ZINC12028308
REMARK  8 active torsions:
REMARK  status: ('A' for Active; 'I' for Inactive)
REMARK    1  A    between atoms: C_1  and  C_2
REMARK    2  A    between atoms: C_2  and  C_3
REMARK    3  A    between atoms: C_2  and  C_11
REMARK    4  A    between atoms: C_2  and  O_32
REMARK    5  A    between atoms: C_3  and  O_4
REMARK    6  A    between atoms: O_4  and  C_5
REMARK    7  A    between atoms: C_21  and  C_22
REMARK    8  A    between atoms: C_21  and  N_61
REMARK                            x       y       z     vdW  Elec       q    Type
REMARK                         _______ _______ _______ _____ _____    ______ ____
ROOT
ATOM      1  C   UNL     1      -1.414  -2.036   0.129  0.00  0.00    -0.013 A 
ATOM      2  C   UNL     1      -0.380  -2.663   0.799  0.00  0.00    +0.010 A 
ATOM      3  C   UNL     1      -0.360  -4.040   0.915  0.00  0.00    +0.046 A 
ATOM      4  C   UNL     1      -1.383  -4.792   0.355  0.00  0.00    +0.122 A 
ATOM      5  C   UNL     1      -2.407  -4.161  -0.327  0.00  0.00    -0.022 A 
ATOM      6  C   UNL     1      -2.433  -2.785  -0.432  0.00  0.00    +0.012 A 
ATOM      7  C   UNL     1      -3.500  -4.995  -0.965  0.00  0.00    -0.039 C 
ATOM      8  C   UNL     1      -3.715  -6.858   0.589  0.00  0.00    -0.036 C 
ATOM      9  C   UNL     1      -2.427  -6.657   1.358  0.00  0.00    +0.210 C 
ATOM     10  O   UNL     1      -1.398  -6.145   0.502  0.00  0.00    -0.494 OA
ATOM     11  N   UNL     1      -4.313  -5.589   0.124  0.00  0.00    +0.387 N 
ATOM     12  H   UNL     1      -4.340  -4.930   0.911  0.00  0.00    -0.081 HD
ENDROOT
BRANCH   1  14
ATOM     13  C   UNL     1      -2.187   0.060   1.205  0.00  0.00    +0.050 C 
ATOM     14  C   UNL     1      -1.433  -0.534   0.013  0.00  0.00    +0.122 C 
BRANCH  14  15
ATOM     15  O   UNL     1      -2.089  -0.158  -1.200  0.00  0.00    -0.381 OA
ATOM     16  H   UNL     1      -1.665  -0.500  -1.999  0.00  0.00    +0.211 HD
ENDBRANCH  14  15
BRANCH  14  17
ATOM     17  C   UNL     1       0.002  -0.004   0.002  0.00  0.00    +0.268 C 
BRANCH  17  18
ATOM     18  O   UNL     1      -0.017   1.425   0.010  0.00  0.00    -0.489 OA
BRANCH  18  19
ATOM     19  C   UNL     1       1.185   2.058   0.002  0.00  0.00    +0.121 A 
ATOM     20  C   UNL     1       2.359   1.320  -0.008  0.00  0.00    +0.045 A 
ATOM     21  C   UNL     1       3.580   1.966  -0.022  0.00  0.00    +0.004 A 
ATOM     22  C   UNL     1       3.633   3.348  -0.015  0.00  0.00    +0.000 A 
ATOM     23  C   UNL     1       2.464   4.086   0.000  0.00  0.00    +0.004 A 
ATOM     24  C   UNL     1       1.240   3.444   0.009  0.00  0.00    +0.045 A 
ENDBRANCH  18  19
ENDBRANCH  17  18
ENDBRANCH  14  17
ENDBRANCH   1  14
BRANCH  11  25
ATOM     25  C   UNL     1      -5.687  -5.826  -0.347  0.00  0.00    -0.040 C 
BRANCH  25  26
ATOM     26  C   UNL     1      -6.412  -6.678   0.663  0.00  0.00    -0.038 A 
ATOM     27  C   UNL     1      -6.588  -8.008   0.435  0.00  0.00    +0.004 A 
ATOM     28  C   UNL     1      -7.250  -8.815   1.357  0.00  0.00    +0.001 A 
ATOM     29  C   UNL     1      -7.752  -8.291   2.510  0.00  0.00    +0.010 A 
ATOM     30  C   UNL     1      -7.594  -6.922   2.776  0.00  0.00    +0.001 A 
ATOM     31  C   UNL     1      -6.915  -6.100   1.842  0.00  0.00    +0.072 A 
ATOM     32  N   UNL     1      -6.761  -4.796   2.091  0.00  0.00    -0.255 NA
ATOM     33  C   UNL     1      -7.229  -4.252   3.189  0.00  0.00    +0.111 A 
ATOM     34  C   UNL     1      -7.905  -5.003   4.148  0.00  0.00    +0.020 A 
ATOM     35  C   UNL     1      -8.097  -6.341   3.956  0.00  0.00    +0.011 A 
ENDBRANCH  25  26
ENDBRANCH  11  25
TORSDOF 7
