REMARK  Name = ZINC15830051
REMARK  8 active torsions:
REMARK  status: ('A' for Active; 'I' for Inactive)
REMARK    1  A    between atoms: C_1  and  C_2
REMARK    2  A    between atoms: C_2  and  O_3
REMARK    3  A    between atoms: O_3  and  C_4
REMARK    4  A    between atoms: C_12  and  C_24
REMARK    5  A    between atoms: C_15  and  C_17
REMARK    6  A    between atoms: C_22  and  O_23
REMARK    7  A    between atoms: C_27  and  S_30
REMARK    8  A    between atoms: S_30  and  C_31
REMARK                            x       y       z     vdW  Elec       q    Type
REMARK                         _______ _______ _______ _____ _____    ______ ____
ROOT
ATOM      1  C   UNL     1      -1.281   5.777   2.273  0.00  0.00    +0.403 C 
ATOM      2  O   UNL     1      -0.455   6.635   2.031  0.00  0.00    -0.226 OA
ATOM      3  N   UNL     1      -0.899   4.490   2.392  0.00  0.00    -0.267 N 
ATOM      4  C   UNL     1       0.510   4.108   2.232  0.00  0.00    +0.111 C 
ATOM      5  C   UNL     1       0.949   3.313   3.466  0.00  0.00    +0.029 C 
ATOM      6  C   UNL     1      -0.001   2.127   3.667  0.00  0.00    +0.032 C 
ATOM      7  C   UNL     1      -1.419   2.653   3.912  0.00  0.00    +0.029 C 
ATOM      8  C   UNL     1      -1.886   3.440   2.684  0.00  0.00    +0.111 C 
ATOM      9  C   UNL     1      -0.338   0.107   4.943  0.00  0.00    -0.032 C 
ATOM     10  C   UNL     1       0.043  -0.794   3.767  0.00  0.00    +0.044 C 
ATOM     11  C   UNL     1       0.026   0.008   2.495  0.00  0.00    +0.044 C 
ATOM     12  N   UNL     1       0.009   1.288   2.474  0.00  0.00    -0.300 NA
ATOM     13  N   UNL     1       0.439   1.357   4.843  0.00  0.00    +0.400 N 
ATOM     14  H   UNL     1       0.294   1.918   5.691  0.00  0.00    -0.081 HD
ATOM     15  H   UNL     1       1.437   1.132   4.748  0.00  0.00    -0.081 HD
ENDROOT
BRANCH  11  16
ATOM     16  C   UNL     1       0.023  -0.714   1.210  0.00  0.00    +0.037 A 
ATOM     17  C   UNL     1       0.042  -2.111   1.190  0.00  0.00    +0.013 A 
ATOM     18  C   UNL     1       0.040  -2.781  -0.015  0.00  0.00    +0.001 A 
ATOM     19  C   UNL     1       0.019  -2.075  -1.207  0.00  0.00    +0.004 A 
ATOM     20  C   UNL     1      -0.006  -0.694  -1.201  0.00  0.00    +0.046 A 
ATOM     21  C   UNL     1       0.002  -0.004   0.002  0.00  0.00    +0.126 A 
BRANCH  21  22
ATOM     22  O   UNL     1      -0.016   1.353   0.009  0.00  0.00    -0.506 OA
ATOM     23  H   UNL     1       0.862   1.758   0.003  0.00  0.00    +0.292 HD
ENDBRANCH  21  22
ENDBRANCH  11  16
BRANCH   9  24
ATOM     24  C   UNL     1      -0.015  -0.585   6.242  0.00  0.00    -0.061 A 
ATOM     25  C   UNL     1       1.289  -0.614   6.703  0.00  0.00    +0.003 A 
ATOM     26  C   UNL     1       1.587  -1.242   7.896  0.00  0.00    +0.015 A 
ATOM     27  C   UNL     1       0.578  -1.855   8.628  0.00  0.00    +0.008 A 
ATOM     28  C   UNL     1      -0.730  -1.829   8.159  0.00  0.00    +0.015 A 
ATOM     29  C   UNL     1      -1.022  -1.194   6.968  0.00  0.00    +0.003 A 
BRANCH  27  30
ATOM     30  S   UNL     1       0.956  -2.664  10.147  0.00  0.00    -0.129 S 
ATOM     31  C   UNL     1       2.746  -2.436  10.333  0.00  0.00    +0.090 C 
ENDBRANCH  27  30
ENDBRANCH   9  24
BRANCH   1  32
ATOM     32  O   UNL     1      -2.576   6.112   2.421  0.00  0.00    -0.451 OA
BRANCH  32  34
ATOM     33  C   UNL     1      -4.420   7.702   2.480  0.00  0.00    +0.048 C 
ATOM     34  C   UNL     1      -2.914   7.517   2.280  0.00  0.00    +0.230 C 
ENDBRANCH  32  34
ENDBRANCH   1  32
TORSDOF 6
