REMARK  Name = ZINC21220836
REMARK  12 active torsions:
REMARK  status: ('A' for Active; 'I' for Inactive)
REMARK    1  A    between atoms: C_1  and  C_2
REMARK    2  A    between atoms: C_2  and  C_3
REMARK    3  A    between atoms: C_3  and  C_4
REMARK    4  A    between atoms: C_4  and  O_5
REMARK    5  A    between atoms: O_5  and  C_6
REMARK    6  A    between atoms: C_11  and  C_12
REMARK    7  A    between atoms: C_17  and  C_22
REMARK    8  A    between atoms: C_25  and  O_28
REMARK    9  A    between atoms: O_28  and  C_29
REMARK   10  A    between atoms: C_29  and  C_30
REMARK   11  A    between atoms: C_30  and  C_31
REMARK   12  A    between atoms: C_30  and  C_32
REMARK                            x       y       z     vdW  Elec       q    Type
REMARK                         _______ _______ _______ _____ _____    ______ ____
ROOT
ATOM      1  C   UNL     1      -0.059   5.351   0.029  0.00  0.00    +0.139 C 
ATOM      2  C   UNL     1      -0.203   5.835  -1.394  0.00  0.00    +0.037 C 
ATOM      3  C   UNL     1       0.749   6.445  -2.119  0.00  0.00    +0.017 C 
ATOM      4  C   UNL     1       0.479   6.844  -3.561  0.00  0.00    +0.059 C 
ATOM      5  C   UNL     1      -0.989   7.233  -3.726  0.00  0.00    +0.032 C 
ATOM      6  C   UNL     1      -1.840   6.016  -3.346  0.00  0.00    +0.088 C 
ATOM      7  C   UNL     1      -1.482   5.597  -1.952  0.00  0.00    +0.163 C 
ATOM      8  O   UNL     1      -2.319   5.032  -1.276  0.00  0.00    -0.292 OA
ATOM      9  N   UNL     1       1.996   6.741  -1.674  0.00  0.00    -0.316 N 
ATOM     10  C   UNL     1       2.822   5.859  -0.987  0.00  0.00    +0.052 A 
ATOM     11  C   UNL     1       4.022   5.409  -1.510  0.00  0.00    +0.025 A 
ATOM     12  C   UNL     1       4.818   4.566  -0.753  0.00  0.00    +0.002 A 
ATOM     13  C   UNL     1       4.420   4.180   0.513  0.00  0.00    +0.002 A 
ATOM     14  C   UNL     1       3.212   4.615   1.031  0.00  0.00    +0.025 A 
ATOM     15  C   UNL     1       2.403   5.442   0.268  0.00  0.00    +0.049 A 
ATOM     16  N   UNL     1       1.134   5.819   0.703  0.00  0.00    -0.331 N 
ATOM     17  H   UNL     1       2.420   7.741  -1.850  0.00  0.00    +0.152 HD
ATOM     18  H   UNL     1       1.047   6.486   1.574  0.00  0.00    +0.147 HD
ENDROOT
BRANCH   1  24
ATOM     19  C   UNL     1      -0.277   3.142   1.195  0.00  0.00    +0.126 A 
ATOM     20  C   UNL     1      -0.268   1.754   1.184  0.00  0.00    +0.046 A 
ATOM     21  C   UNL     1      -0.014   1.076   0.008  0.00  0.00    +0.004 A 
ATOM     22  C   UNL     1       0.219   1.778  -1.160  0.00  0.00    +0.001 A 
ATOM     23  C   UNL     1       0.204   3.161  -1.153  0.00  0.00    +0.009 A 
ATOM     24  C   UNL     1      -0.043   3.844   0.022  0.00  0.00    +0.019 A 
BRANCH  19  25
ATOM     25  O   UNL     1      -0.521   3.811   2.352  0.00  0.00    -0.492 OA
BRANCH  25  26
ATOM     26  C   UNL     1      -0.753   3.023   3.522  0.00  0.00    +0.229 C 
BRANCH  26  27
ATOM     27  C   UNL     1      -1.007   3.945   4.716  0.00  0.00    +0.041 C 
BRANCH  27  29
ATOM     28  C   UNL     1      -1.510   4.023   7.162  0.00  0.00    +0.004 C 
ATOM     29  C   UNL     1      -1.256   3.101   5.968  0.00  0.00    -0.000 C 
ENDBRANCH  27  29
ENDBRANCH  26  27
ENDBRANCH  25  26
ENDBRANCH  19  25
ENDBRANCH   1  24
BRANCH   5  30
ATOM     30  C   UNL     1      -1.258   7.617  -5.158  0.00  0.00    -0.043 A 
ATOM     31  C   UNL     1      -1.039   6.701  -6.171  0.00  0.00    +0.007 A 
ATOM     32  C   UNL     1      -1.290   7.048  -7.484  0.00  0.00    +0.046 A 
ATOM     33  C   UNL     1      -1.751   8.321  -7.788  0.00  0.00    +0.121 A 
ATOM     34  C   UNL     1      -1.965   9.240  -6.771  0.00  0.00    +0.046 A 
ATOM     35  C   UNL     1      -1.718   8.886  -5.458  0.00  0.00    +0.007 A 
BRANCH  33  36
ATOM     36  O   UNL     1      -1.994   8.667  -9.079  0.00  0.00    -0.492 OA
BRANCH  36  37
ATOM     37  C   UNL     1      -1.752   7.670 -10.074  0.00  0.00    +0.232 C 
BRANCH  37  38
ATOM     38  C   UNL     1      -2.079   8.239 -11.456  0.00  0.00    +0.020 C 
ATOM     39  C   UNL     1      -1.111   9.379 -11.781  0.00  0.00    +0.010 C 
ATOM     40  C   UNL     1      -1.939   7.136 -12.508  0.00  0.00    +0.010 C 
ENDBRANCH  37  38
ENDBRANCH  36  37
ENDBRANCH  33  36
ENDBRANCH   5  30
TORSDOF 9
