REMARK  Name = ZINC35427270
REMARK  3 active torsions:
REMARK  status: ('A' for Active; 'I' for Inactive)
REMARK    1  A    between atoms: C_1  and  N_2
REMARK    2  A    between atoms: C_16  and  C_32
REMARK    3  A    between atoms: N_22  and  C_23
REMARK                            x       y       z     vdW  Elec       q    Type
REMARK                         _______ _______ _______ _____ _____    ______ ____
ROOT
ATOM      1  C   UNL     1      -0.458   1.313  -1.404  0.00  0.00    -0.096 C 
ATOM      2  N   UNL     1      -0.371  -0.132  -1.155  0.00  0.00    +0.381 N 
ATOM      3  C   UNL     1      -1.711  -0.726  -1.241  0.00  0.00    -0.074 C 
ATOM      4  C   UNL     1      -1.614  -2.253  -1.302  0.00  0.00    +0.018 C 
ATOM      5  C   UNL     1      -0.757  -2.719  -0.127  0.00  0.00    -0.034 A 
ATOM      6  C   UNL     1      -0.746  -4.048   0.335  0.00  0.00    +0.004 A 
ATOM      7  C   UNL     1       0.073  -4.322   1.387  0.00  0.00    +0.090 A 
ATOM      8  S   UNL     1       0.825  -2.773   1.781  0.00  0.00    -0.077 S 
ATOM      9  C   UNL     1       0.035  -1.817   0.514  0.00  0.00    -0.021 A 
ATOM     10  C   UNL     1       0.183  -0.366   0.193  0.00  0.00    -0.036 C 
ATOM     11  N   UNL     1       0.228  -5.586   1.944  0.00  0.00    -0.312 N 
ATOM     12  C   UNL     1       0.249  -5.999   3.233  0.00  0.00    +0.092 A 
ATOM     13  C   UNL     1       0.358  -7.347   3.238  0.00  0.00    +0.020 A 
ATOM     14  C   UNL     1       0.426  -7.773   1.893  0.00  0.00    +0.025 A 
ATOM     15  C   UNL     1       0.370  -6.678   1.121  0.00  0.00    +0.049 A 
ATOM     16  C   UNL     1       0.480  -6.557  -0.369  0.00  0.00    +0.155 C 
ATOM     17  N   UNL     1      -0.806  -6.154  -0.987  0.00  0.00    -0.268 N 
ATOM     18  C   UNL     1      -1.600  -5.141  -0.268  0.00  0.00    +0.148 C 
ATOM     19  C   UNL     1      -1.230  -6.688  -2.150  0.00  0.00    +0.308 C 
ATOM     20  O   UNL     1      -0.551  -7.521  -2.718  0.00  0.00    -0.252 OA
ATOM     21  N   UNL     1      -2.405  -6.298  -2.682  0.00  0.00    -0.269 N 
ATOM     22  H   UNL     1      -2.911  -5.581  -2.268  0.00  0.00    +0.156 HD
ATOM     23  H   UNL     1       0.231  -0.557  -1.844  0.00  0.00    -0.082 HD
ENDROOT
BRANCH  21  24
ATOM     24  C   UNL     1      -2.896  -6.927  -3.833  0.00  0.00    +0.038 A 
ATOM     25  C   UNL     1      -3.623  -6.200  -4.766  0.00  0.00    +0.027 A 
ATOM     26  C   UNL     1      -4.107  -6.819  -5.902  0.00  0.00    +0.051 A 
ATOM     27  C   UNL     1      -3.869  -8.167  -6.115  0.00  0.00    +0.166 A 
ATOM     28  C   UNL     1      -3.139  -8.900  -5.181  0.00  0.00    +0.168 A 
ATOM     29  C   UNL     1      -2.650  -8.277  -4.045  0.00  0.00    +0.073 A 
ATOM     30  O   UNL     1      -3.044 -10.190  -5.617  0.00  0.00    -0.453 OA
ATOM     31  C   UNL     1      -4.067 -10.334  -6.620  0.00  0.00    +0.466 C 
ATOM     32  O   UNL     1      -4.230  -8.999  -7.136  0.00  0.00    -0.453 OA
ENDBRANCH  21  24
BRANCH  16  33
ATOM     33  C   UNL     1       1.527  -5.525  -0.701  0.00  0.00    -0.021 A 
ATOM     34  C   UNL     1       2.626  -5.365   0.122  0.00  0.00    +0.008 A 
ATOM     35  C   UNL     1       3.586  -4.419  -0.181  0.00  0.00    +0.038 A 
ATOM     36  C   UNL     1       3.448  -3.631  -1.311  0.00  0.00    +0.123 A 
ATOM     37  C   UNL     1       2.347  -3.792  -2.135  0.00  0.00    +0.038 A 
ATOM     38  C   UNL     1       1.390  -4.742  -1.833  0.00  0.00    +0.008 A 
ATOM     39  F   UNL     1       4.386  -2.706  -1.609  0.00  0.00    -0.205 F 
ENDBRANCH  16  33
TORSDOF 2
