REMARK  Name = ZINC13122821
REMARK  2 active torsions:
REMARK  status: ('A' for Active; 'I' for Inactive)
REMARK    1  A    between atoms: C_1  and  C_2
REMARK    2  A    between atoms: C_4  and  C_13
REMARK                            x       y       z     vdW  Elec       q    Type
REMARK                         _______ _______ _______ _____ _____    ______ ____
ROOT
ATOM      1  C   UNL     1      -0.013   1.086   0.008  0.00  0.00    +0.061 C 
ATOM      2  C   UNL     1      -0.742   1.585  -1.213  0.00  0.00    +0.022 C 
ATOM      3  C   UNL     1      -0.877   3.068  -1.413  0.00  0.00    +0.082 C 
ATOM      4  C   UNL     1      -0.878   3.430  -2.902  0.00  0.00    +0.146 C 
ATOM      5  N   UNL     1      -1.704   2.449  -3.606  0.00  0.00    -0.220 N 
ATOM      6  C   UNL     1      -1.838   1.164  -3.178  0.00  0.00    +0.251 A 
ATOM      7  N   UNL     1      -2.621   0.542  -4.022  0.00  0.00    -0.177 NA
ATOM      8  C   UNL     1      -3.009   1.389  -4.983  0.00  0.00    +0.234 A 
ATOM      9  N   UNL     1      -2.469   2.570  -4.761  0.00  0.00    -0.132 NA
ATOM     10  N   UNL     1      -3.850   1.072  -6.051  0.00  0.00    -0.326 N 
ATOM     11  N   UNL     1      -1.218   0.719  -2.046  0.00  0.00    -0.220 NA
ATOM     12  H   UNL     1      -4.205   0.173  -6.138  0.00  0.00    +0.145 HD
ATOM     13  H   UNL     1      -4.080   1.750  -6.705  0.00  0.00    +0.145 HD
ENDROOT
BRANCH   4  14
ATOM     14  C   UNL     1       0.531   3.388  -3.437  0.00  0.00    -0.023 A 
ATOM     15  C   UNL     1       1.254   2.211  -3.389  0.00  0.00    +0.006 A 
ATOM     16  C   UNL     1       2.546   2.172  -3.879  0.00  0.00    +0.000 A 
ATOM     17  C   UNL     1       3.114   3.311  -4.418  0.00  0.00    +0.000 A 
ATOM     18  C   UNL     1       2.391   4.488  -4.467  0.00  0.00    +0.000 A 
ATOM     19  C   UNL     1       1.097   4.525  -3.981  0.00  0.00    +0.006 A 
ENDBRANCH   4  14
TORSDOF 1
