REMARK  Name = ZINC59600529
REMARK  11 active torsions:
REMARK  status: ('A' for Active; 'I' for Inactive)
REMARK    1  A    between atoms: C_1  and  C_2
REMARK    2  A    between atoms: C_2  and  C_3
REMARK    3  A    between atoms: C_3  and  C_4
REMARK    4  A    between atoms: C_5  and  C_33
REMARK    5  A    between atoms: C_6  and  C_21
REMARK    6  A    between atoms: C_12  and  C_13
REMARK    7  A    between atoms: C_30  and  O_31
REMARK    8  A    between atoms: O_31  and  C_32
REMARK    9  A    between atoms: C_33  and  O_35
REMARK   10  A    between atoms: O_35  and  C_36
REMARK   11  A    between atoms: C_36  and  C_37
REMARK                            x       y       z     vdW  Elec       q    Type
REMARK                         _______ _______ _______ _____ _____    ______ ____
ROOT
ATOM      1  C   UNL     1       0.961  -2.362  -1.800  0.00  0.00    +0.056 C 
ATOM      2  C   UNL     1      -0.132  -3.043  -2.258  0.00  0.00    +0.085 C 
ATOM      3  C   UNL     1      -0.269  -4.502  -1.885  0.00  0.00    +0.166 C 
ATOM      4  N   UNL     1       0.807  -5.091  -1.040  0.00  0.00    -0.275 N 
ATOM      5  C   UNL     1       0.864  -6.358  -0.609  0.00  0.00    +0.268 A 
ATOM      6  O   UNL     1      -0.009  -7.157  -0.896  0.00  0.00    -0.266 OA
ATOM      7  C   UNL     1       2.008  -6.755   0.217  0.00  0.00    +0.084 A 
ATOM      8  C   UNL     1       2.297  -7.967   0.773  0.00  0.00    +0.066 C 
ATOM      9  S   UNL     1       2.921  -5.223   0.299  0.00  0.00    -0.046 S 
ATOM     10  C   UNL     1       1.819  -4.229  -0.688  0.00  0.00    +0.178 A 
ATOM     11  N   UNL     1       1.873  -2.973  -1.055  0.00  0.00    -0.227 NA
ENDROOT
BRANCH   3  12
ATOM     12  C   UNL     1      -0.345  -5.301  -3.161  0.00  0.00    +0.029 A 
ATOM     13  C   UNL     1      -1.574  -5.827  -3.591  0.00  0.00    -0.009 A 
ATOM     14  C   UNL     1      -2.753  -5.626  -2.853  0.00  0.00    +0.009 A 
ATOM     15  C   UNL     1      -3.926  -6.151  -3.300  0.00  0.00    +0.001 A 
ATOM     16  C   UNL     1      -3.978  -6.887  -4.482  0.00  0.00    +0.001 A 
ATOM     17  C   UNL     1      -2.857  -7.103  -5.223  0.00  0.00    +0.008 A 
ATOM     18  C   UNL     1      -1.627  -6.576  -4.794  0.00  0.00    -0.017 A 
ATOM     19  C   UNL     1      -0.449  -6.778  -5.535  0.00  0.00    +0.012 A 
ATOM     20  C   UNL     1       0.725  -6.255  -5.091  0.00  0.00    +0.046 A 
ATOM     21  C   UNL     1       0.779  -5.512  -3.907  0.00  0.00    +0.126 A 
BRANCH  21  22
ATOM     22  O   UNL     1       1.966  -4.997  -3.493  0.00  0.00    -0.495 OA
ATOM     23  C   UNL     1       3.106  -5.251  -4.315  0.00  0.00    +0.277 C 
ENDBRANCH  21  22
ENDBRANCH   3  12
BRANCH   8  24
ATOM     24  C   UNL     1       1.346  -9.012   0.722  0.00  0.00    +0.129 A 
ATOM     25  C   UNL     1       1.492 -10.272   1.270  0.00  0.00    +0.049 A 
ATOM     26  C   UNL     1       0.310 -10.971   0.980  0.00  0.00    +0.042 A 
ATOM     27  C   UNL     1      -0.491 -10.134   0.285  0.00  0.00    +0.195 A 
ATOM     28  O   UNL     1       0.132  -8.955   0.136  0.00  0.00    -0.463 OA
ENDBRANCH   8  24
BRANCH   2  29
ATOM     29  C   UNL     1      -1.100  -2.406  -3.051  0.00  0.00    +0.339 C 
ATOM     30  O   UNL     1      -2.185  -2.121  -2.576  0.00  0.00    -0.245 OA
BRANCH  29  31
ATOM     31  O   UNL     1      -0.829  -2.111  -4.341  0.00  0.00    -0.462 OA
BRANCH  31  32
ATOM     32  C   UNL     1      -1.859  -1.463  -5.089  0.00  0.00    +0.229 C 
ATOM     33  C   UNL     1      -1.372  -1.211  -6.517  0.00  0.00    +0.048 C 
ENDBRANCH  31  32
ENDBRANCH  29  31
ENDBRANCH   2  29
BRANCH   1  34
ATOM     34  C   UNL     1       1.135  -0.906  -2.149  0.00  0.00    +0.056 C 
BRANCH  34  36
ATOM     35  C   UNL     1       0.726   1.438  -1.386  0.00  0.00    +0.004 C 
ATOM     36  C   UNL     1       0.550  -0.040  -1.031  0.00  0.00    +0.003 C 
ENDBRANCH  34  36
ENDBRANCH   1  34
TORSDOF 8
