REMARK  Name = ZINC62620894
REMARK  12 active torsions:
REMARK  status: ('A' for Active; 'I' for Inactive)
REMARK    1  A    between atoms: C_1  and  C_2
REMARK    2  A    between atoms: C_2  and  C_29
REMARK    3  A    between atoms: N_5  and  N_9
REMARK    4  A    between atoms: C_10  and  C_12
REMARK    5  A    between atoms: C_12  and  N_13
REMARK    6  A    between atoms: C_16  and  C_19
REMARK    7  A    between atoms: C_19  and  N_20
REMARK    8  A    between atoms: N_20  and  C_21
REMARK    9  A    between atoms: N_20  and  C_22
REMARK   10  A    between atoms: C_22  and  C_23
REMARK   11  A    between atoms: C_29  and  C_30
REMARK   12  A    between atoms: C_30  and  C_31
REMARK                            x       y       z     vdW  Elec       q    Type
REMARK                         _______ _______ _______ _____ _____    ______ ____
ROOT
ATOM      1  N   UNL     1       2.826  -1.867  -1.372  0.00  0.00    -0.225 N 
ATOM      2  C   UNL     1       4.063  -1.337  -1.451  0.00  0.00    +0.213 C 
ATOM      3  O   UNL     1       4.316  -0.299  -0.878  0.00  0.00    -0.276 OA
ATOM      4  H   UNL     1       2.623  -2.697  -1.830  0.00  0.00    +0.173 HD
ENDROOT
BRANCH   1   9
ATOM      5  C   UNL     1      -0.019   1.526   0.010  0.00  0.00    +0.041 C 
ATOM      6  C   UNL     1       0.002  -0.004   0.002  0.00  0.00    +0.112 C 
ATOM      7  C   UNL     1       0.815  -0.520  -1.169  0.00  0.00    +0.263 C 
ATOM      8  O   UNL     1       0.595  -0.342  -2.348  0.00  0.00    -0.271 OA
ATOM      9  N   UNL     1       1.833  -1.217  -0.627  0.00  0.00    -0.137 N 
ATOM     10  C   UNL     1       1.777  -1.214   0.710  0.00  0.00    +0.326 C 
ATOM     11  O   UNL     1       2.586  -1.776   1.421  0.00  0.00    -0.251 OA
ATOM     12  N   UNL     1       0.724  -0.519   1.178  0.00  0.00    -0.284 N 
ATOM     13  H   UNL     1       0.487  -0.383   2.109  0.00  0.00    +0.151 HD
BRANCH   6  14
ATOM     14  C   UNL     1      -1.423  -0.560  -0.041  0.00  0.00    +0.040 C 
BRANCH  14  15
ATOM     15  C   UNL     1      -2.200  -0.066   1.182  0.00  0.00    +0.038 C 
BRANCH  15  16
ATOM     16  C   UNL     1      -3.603  -0.614   1.140  0.00  0.00    -0.047 A 
ATOM     17  C   UNL     1      -4.603   0.095   0.500  0.00  0.00    +0.003 A 
ATOM     18  C   UNL     1      -5.890  -0.407   0.461  0.00  0.00    +0.000 A 
ATOM     19  C   UNL     1      -6.178  -1.618   1.062  0.00  0.00    +0.000 A 
ATOM     20  C   UNL     1      -5.178  -2.328   1.701  0.00  0.00    +0.000 A 
ATOM     21  C   UNL     1      -3.889  -1.827   1.736  0.00  0.00    +0.003 A 
ENDBRANCH  15  16
ENDBRANCH  14  15
ENDBRANCH   6  14
ENDBRANCH   1   9
BRANCH   2  22
ATOM     22  C   UNL     1       5.131  -2.036  -2.252  0.00  0.00    +0.020 C 
BRANCH  22  23
ATOM     23  N   UNL     1       6.379  -1.264  -2.181  0.00  0.00    +0.385 N 
ATOM     24  C   UNL     1       6.867  -1.250  -0.796  0.00  0.00    -0.078 C 
ATOM     25  C   UNL     1       8.122  -0.380  -0.702  0.00  0.00    -0.017 C 
ATOM     26  C   UNL     1       9.205  -0.955  -1.620  0.00  0.00    -0.031 C 
ATOM     27  C   UNL     1       8.659  -1.034  -3.049  0.00  0.00    -0.017 C 
ATOM     28  C   UNL     1       7.384  -1.879  -3.057  0.00  0.00    -0.078 C 
ATOM     29  H   UNL     1       6.206  -0.317  -2.484  0.00  0.00    -0.081 HD
BRANCH  26  30
ATOM     30  C   UNL     1      10.435  -0.046  -1.592  0.00  0.00    -0.075 C 
BRANCH  30  31
ATOM     31  N   UNL     1      11.515  -0.659  -2.377  0.00  0.00    +0.381 N 
ATOM     32  C   UNL     1      11.940  -1.909  -1.733  0.00  0.00    -0.096 C 
ATOM     33  H   UNL     1      11.182  -0.857  -3.309  0.00  0.00    -0.082 HD
BRANCH  31  34
ATOM     34  C   UNL     1      12.653   0.267  -2.449  0.00  0.00    -0.043 C 
BRANCH  34  35
ATOM     35  C   UNL     1      13.711  -0.309  -3.355  0.00  0.00    -0.064 A 
ATOM     36  C   UNL     1      14.698  -1.125  -2.834  0.00  0.00    +0.002 A 
ATOM     37  C   UNL     1      15.669  -1.652  -3.665  0.00  0.00    +0.000 A 
ATOM     38  C   UNL     1      15.652  -1.364  -5.017  0.00  0.00    +0.000 A 
ATOM     39  C   UNL     1      14.665  -0.549  -5.538  0.00  0.00    +0.000 A 
ATOM     40  C   UNL     1      13.692  -0.025  -4.708  0.00  0.00    +0.002 A 
ENDBRANCH  34  35
ENDBRANCH  31  34
ENDBRANCH  30  31
ENDBRANCH  26  30
ENDBRANCH  22  23
ENDBRANCH   2  22
TORSDOF 10
