REMARK  Name = ZINC27694978
REMARK  17 active torsions:
REMARK  status: ('A' for Active; 'I' for Inactive)
REMARK    1  A    between atoms: C_1  and  C_2
REMARK    2  A    between atoms: C_2  and  C_4
REMARK    3  A    between atoms: C_2  and  C_14
REMARK    4  A    between atoms: C_7  and  C_10
REMARK    5  A    between atoms: C_10  and  C_11
REMARK    6  A    between atoms: C_11  and  C_12
REMARK    7  A    between atoms: C_11  and  C_13
REMARK    8  A    between atoms: N_22  and  C_23
REMARK    9  A    between atoms: C_23  and  C_24
REMARK   10  A    between atoms: C_24  and  C_26
REMARK   11  A    between atoms: C_24  and  O_38
REMARK   12  A    between atoms: C_26  and  N_27
REMARK   13  A    between atoms: N_27  and  C_28
REMARK   14  A    between atoms: N_27  and  C_35
REMARK   15  A    between atoms: C_28  and  C_29
REMARK   16  A    between atoms: C_35  and  C_36
REMARK   17  A    between atoms: C_35  and  C_37
REMARK                            x       y       z     vdW  Elec       q    Type
REMARK                         _______ _______ _______ _____ _____    ______ ____
ROOT
ATOM      1  C   UNL     1      -4.140   1.585   1.137  0.00  0.00    +0.118 A 
ATOM      2  N   UNL     1      -5.331   1.994   0.811  0.00  0.00    -0.232 NA
ATOM      3  C   UNL     1      -6.238   1.020   1.081  0.00  0.00    +0.089 A 
ATOM      4  C   UNL     1      -7.624   0.926   0.932  0.00  0.00    +0.030 A 
ATOM      5  C   UNL     1      -8.273  -0.217   1.306  0.00  0.00    +0.002 A 
ATOM      6  C   UNL     1      -7.569  -1.290   1.835  0.00  0.00    +0.002 A 
ATOM      7  C   UNL     1      -6.201  -1.219   1.991  0.00  0.00    +0.028 A 
ATOM      8  C   UNL     1      -5.525  -0.066   1.616  0.00  0.00    +0.069 A 
ATOM      9  N   UNL     1      -4.200   0.320   1.634  0.00  0.00    -0.325 N 
ENDROOT
BRANCH   1  11
ATOM     10  C   UNL     1      -2.986   3.674   1.812  0.00  0.00    +0.020 C 
ATOM     11  C   UNL     1      -2.877   2.393   0.982  0.00  0.00    +0.082 C 
BRANCH  11  12
ATOM     12  C   UNL     1      -2.685   2.750  -0.469  0.00  0.00    -0.037 A 
ATOM     13  C   UNL     1      -3.639   3.501  -1.129  0.00  0.00    +0.004 A 
ATOM     14  C   UNL     1      -3.463   3.829  -2.460  0.00  0.00    +0.004 A 
ATOM     15  C   UNL     1      -2.331   3.406  -3.132  0.00  0.00    -0.047 A 
ATOM     16  C   UNL     1      -1.376   2.655  -2.472  0.00  0.00    +0.004 A 
ATOM     17  C   UNL     1      -1.551   2.331  -1.139  0.00  0.00    +0.004 A 
BRANCH  15  18
ATOM     18  C   UNL     1      -2.139   3.762  -4.583  0.00  0.00    +0.038 C 
BRANCH  18  19
ATOM     19  C   UNL     1      -1.391   5.093  -4.687  0.00  0.00    -0.013 C 
ATOM     20  C   UNL     1      -1.086   5.393  -6.156  0.00  0.00    +0.007 C 
ATOM     21  C   UNL     1      -2.259   6.212  -4.107  0.00  0.00    +0.007 C 
ENDBRANCH  18  19
ENDBRANCH  15  18
ENDBRANCH  11  12
ENDBRANCH   1  11
BRANCH   9  22
ATOM     22  C   UNL     1      -3.068  -0.483   2.103  0.00  0.00    +0.153 C 
BRANCH  22  23
ATOM     23  C   UNL     1      -2.849  -0.232   3.596  0.00  0.00    +0.118 C 
BRANCH  23  24
ATOM     24  O   UNL     1      -2.458   1.127   3.799  0.00  0.00    -0.392 OA
ATOM     25  H   UNL     1      -1.677   1.391   3.293  0.00  0.00    +0.210 HD
ENDBRANCH  23  24
BRANCH  23  26
ATOM     26  C   UNL     1      -1.749  -1.162   4.113  0.00  0.00    -0.045 C 
BRANCH  26  27
ATOM     27  N   UNL     1      -1.669  -1.060   5.577  0.00  0.00    +0.386 N 
ATOM     28  H   UNL     1      -2.584  -1.210   5.974  0.00  0.00    -0.081 HD
BRANCH  27  29
ATOM     29  C   UNL     1      -1.188   0.278   5.948  0.00  0.00    -0.074 C 
ATOM     30  C   UNL     1      -1.188   0.414   7.472  0.00  0.00    -0.014 C 
ATOM     31  C   UNL     1       0.234   0.473   5.419  0.00  0.00    -0.014 C 
ENDBRANCH  27  29
BRANCH  27  32
ATOM     32  C   UNL     1      -0.739  -2.075   6.088  0.00  0.00    -0.043 C 
BRANCH  32  33
ATOM     33  C   UNL     1      -0.799  -2.098   7.594  0.00  0.00    -0.064 A 
ATOM     34  C   UNL     1       0.307  -1.728   8.336  0.00  0.00    +0.002 A 
ATOM     35  C   UNL     1       0.252  -1.750   9.717  0.00  0.00    +0.000 A 
ATOM     36  C   UNL     1      -0.910  -2.139  10.356  0.00  0.00    +0.000 A 
ATOM     37  C   UNL     1      -2.017  -2.508   9.614  0.00  0.00    +0.000 A 
ATOM     38  C   UNL     1      -1.963  -2.482   8.233  0.00  0.00    +0.002 A 
ENDBRANCH  32  33
ENDBRANCH  27  32
ENDBRANCH  26  27
ENDBRANCH  23  26
ENDBRANCH  22  23
ENDBRANCH   9  22
TORSDOF 12
