REMARK  Name = ZINC00728489
REMARK  6 active torsions:
REMARK  status: ('A' for Active; 'I' for Inactive)
REMARK    1  A    between atoms: C_1  and  C_2
REMARK    2  A    between atoms: N_5  and  C_7
REMARK    3  A    between atoms: C_14  and  N_29
REMARK    4  A    between atoms: C_15  and  C_27
REMARK    5  A    between atoms: C_16  and  C_18
REMARK    6  A    between atoms: C_23  and  O_24
REMARK                            x       y       z     vdW  Elec       q    Type
REMARK                         _______ _______ _______ _____ _____    ______ ____
ROOT
ATOM      1  C   UNL     1      -0.465  -5.201   0.717  0.00  0.00    +0.068 C 
ATOM      2  C   UNL     1       0.467  -4.023   0.589  0.00  0.00    +0.068 A 
ATOM      3  C   UNL     1       0.095  -2.721   0.279  0.00  0.00    +0.050 A 
ATOM      4  C   UNL     1       1.224  -1.951   0.259  0.00  0.00    +0.230 A 
ATOM      5  N   UNL     1       2.270  -2.756   0.548  0.00  0.00    -0.200 N 
ATOM      6  N   UNL     1       1.769  -4.051   0.751  0.00  0.00    -0.168 NA
ATOM      7  O   UNL     1       1.200  -0.623  -0.013  0.00  0.00    -0.423 OA
ATOM      8  C   UNL     1       0.002  -0.004   0.002  0.00  0.00    +0.200 C 
ATOM      9  C   UNL     1      -1.181  -0.657   0.015  0.00  0.00    +0.098 C 
ATOM     10  C   UNL     1      -1.276  -2.162  -0.002  0.00  0.00    +0.105 C 
ENDROOT
BRANCH  10  11
ATOM     11  C   UNL     1      -1.749  -2.631  -1.354  0.00  0.00    +0.009 A 
ATOM     12  C   UNL     1      -1.025  -2.315  -2.487  0.00  0.00    +0.023 A 
ATOM     13  C   UNL     1      -1.459  -2.745  -3.728  0.00  0.00    +0.019 A 
ATOM     14  C   UNL     1      -2.618  -3.492  -3.838  0.00  0.00    +0.034 A 
ATOM     15  C   UNL     1      -3.345  -3.811  -2.707  0.00  0.00    +0.061 A 
ATOM     16  C   UNL     1      -2.909  -3.384  -1.460  0.00  0.00    +0.135 A 
ATOM     17 BR   UNL     1      -4.929  -4.833  -2.856  0.00  0.00    -0.046 Br
ATOM     18 BR   UNL     1      -0.465  -2.311  -5.278  0.00  0.00    -0.050 Br
BRANCH  16  19
ATOM     19  O   UNL     1      -3.619  -3.700  -0.345  0.00  0.00    -0.505 OA
ATOM     20  H   UNL     1      -4.298  -3.051  -0.114  0.00  0.00    +0.292 HD
ENDBRANCH  16  19
ENDBRANCH  10  11
BRANCH   5  21
ATOM     21  C   UNL     1       3.614  -2.367   0.629  0.00  0.00    +0.069 A 
ATOM     22  C   UNL     1       4.109  -1.389  -0.223  0.00  0.00    +0.028 A 
ATOM     23  C   UNL     1       5.433  -1.005  -0.137  0.00  0.00    +0.002 A 
ATOM     24  C   UNL     1       6.268  -1.601   0.790  0.00  0.00    +0.000 A 
ATOM     25  C   UNL     1       5.779  -2.578   1.637  0.00  0.00    +0.002 A 
ATOM     26  C   UNL     1       4.455  -2.963   1.560  0.00  0.00    +0.028 A 
ENDBRANCH   5  21
BRANCH   8  27
ATOM     27  N   UNL     1      -0.017   1.369   0.010  0.00  0.00    -0.328 N 
ATOM     28  H   UNL     1       0.817   1.865   0.004  0.00  0.00    +0.145 HD
ATOM     29  H   UNL     1      -0.863   1.842   0.016  0.00  0.00    +0.145 HD
ENDBRANCH   8  27
BRANCH   9  30
ATOM     30  C   UNL     1      -2.391   0.110   0.042  0.00  0.00    +0.101 C 
ATOM     31  N   UNL     1      -3.350   0.718   0.063  0.00  0.00    -0.191 NA
ENDBRANCH   9  30
TORSDOF 5
