REMARK  Name = ZINC15946162
REMARK  10 active torsions:
REMARK  status: ('A' for Active; 'I' for Inactive)
REMARK    1  A    between atoms: C_1  and  C_2
REMARK    2  A    between atoms: C_2  and  C_3
REMARK    3  A    between atoms: C_3  and  C_4
REMARK    4  A    between atoms: C_3  and  C_5
REMARK    5  A    between atoms: C_3  and  C_6
REMARK    6  A    between atoms: C_15  and  O_33
REMARK    7  A    between atoms: C_17  and  C_20
REMARK    8  A    between atoms: C_29  and  O_30
REMARK    9  A    between atoms: O_30  and  C_31
REMARK   10  A    between atoms: C_31  and  C_32
REMARK                            x       y       z     vdW  Elec       q    Type
REMARK                         _______ _______ _______ _____ _____    ______ ____
ROOT
ATOM      1  C   UNL     1       0.906  -1.973   0.670  0.00  0.00    -0.000 C 
ATOM      2  C   UNL     1       1.619  -2.399   1.956  0.00  0.00    +0.009 C 
ATOM      3  C   UNL     1       1.398  -3.893   2.203  0.00  0.00    +0.037 C 
ATOM      4  C   UNL     1       1.782  -4.659   0.945  0.00  0.00    -0.023 A 
ATOM      5  C   UNL     1       1.879  -4.035  -0.251  0.00  0.00    -0.004 A 
ATOM      6  S   UNL     1       2.342  -5.311  -1.390  0.00  0.00    -0.078 S 
ATOM      7  C   UNL     1       2.401  -6.600  -0.349  0.00  0.00    +0.080 A 
ATOM      8  C   UNL     1       2.071  -6.081   0.908  0.00  0.00    +0.068 A 
ATOM      9  C   UNL     1       2.060  -7.023   2.057  0.00  0.00    +0.220 C 
ATOM     10  N   UNL     1       2.108  -8.301   1.793  0.00  0.00    -0.223 NA
ATOM     11  C   UNL     1       2.108  -8.867   0.450  0.00  0.00    +0.228 C 
ATOM     12  N   UNL     1       2.686  -7.934  -0.534  0.00  0.00    -0.313 N 
ATOM     13  C   UNL     1       1.640  -2.584  -0.533  0.00  0.00    +0.046 C 
ATOM     14  H   UNL     1       3.236  -8.243  -1.270  0.00  0.00    +0.149 HD
ENDROOT
BRANCH  11  15
ATOM     15  C   UNL     1       0.690  -9.185   0.050  0.00  0.00    +0.044 A 
ATOM     16  C   UNL     1       0.395  -9.555  -1.272  0.00  0.00    -0.008 A 
ATOM     17  C   UNL     1       1.404  -9.638  -2.248  0.00  0.00    +0.009 A 
ATOM     18  C   UNL     1       1.082 -10.001  -3.520  0.00  0.00    +0.001 A 
ATOM     19  C   UNL     1      -0.235 -10.291  -3.872  0.00  0.00    +0.001 A 
ATOM     20  C   UNL     1      -1.238 -10.221  -2.953  0.00  0.00    +0.008 A 
ATOM     21  C   UNL     1      -0.944  -9.851  -1.630  0.00  0.00    -0.017 A 
ATOM     22  C   UNL     1      -1.954  -9.769  -0.655  0.00  0.00    +0.012 A 
ATOM     23  C   UNL     1      -1.636  -9.408   0.617  0.00  0.00    +0.046 A 
ATOM     24  C   UNL     1      -0.314  -9.120   0.973  0.00  0.00    +0.128 A 
BRANCH  24  25
ATOM     25  O   UNL     1      -0.027  -8.768   2.254  0.00  0.00    -0.492 OA
BRANCH  25  26
ATOM     26  C   UNL     1      -1.119  -8.718   3.174  0.00  0.00    +0.225 C 
ATOM     27  C   UNL     1      -0.605  -8.305   4.554  0.00  0.00    +0.048 C 
ENDBRANCH  25  26
ENDBRANCH  24  25
ENDBRANCH  11  15
BRANCH   1  28
ATOM     28  C   UNL     1       0.920  -0.447   0.558  0.00  0.00    -0.032 C 
ATOM     29  C   UNL     1       2.368   0.049   0.532  0.00  0.00    +0.011 C 
ATOM     30  C   UNL     1       0.195   0.159   1.760  0.00  0.00    +0.011 C 
BRANCH  28  32
ATOM     31  C   UNL     1       0.227   1.502  -0.843  0.00  0.00    +0.004 C 
ATOM     32  C   UNL     1       0.213  -0.024  -0.731  0.00  0.00    +0.003 C 
ENDBRANCH  28  32
ENDBRANCH   1  28
BRANCH   9  33
ATOM     33  O   UNL     1       2.001  -6.573   3.332  0.00  0.00    -0.492 OA
ATOM     34  H   UNL     1       1.999  -7.275   3.997  0.00  0.00    +0.294 HD
ENDBRANCH   9  33
TORSDOF 6
