REMARK  Name = ZINC39672963
REMARK  6 active torsions:
REMARK  status: ('A' for Active; 'I' for Inactive)
REMARK    1  A    between atoms: C_1  and  C_2
REMARK    2  A    between atoms: C_6  and  C_7
REMARK    3  A    between atoms: C_11  and  C_20
REMARK    4  A    between atoms: N_22  and  C_23
REMARK    5  A    between atoms: C_23  and  C_24
REMARK    6  A    between atoms: C_24  and  N_30
REMARK                            x       y       z     vdW  Elec       q    Type
REMARK                         _______ _______ _______ _____ _____    ______ ____
ROOT
ATOM      1  C   UNL     1       2.039   1.232   4.138  0.00  0.00    +0.254 C 
ATOM      2  O   UNL     1       2.326   2.140   4.895  0.00  0.00    -0.269 OA
ATOM      3  N   UNL     1       1.502   0.095   4.623  0.00  0.00    -0.296 N 
ATOM      4  C   UNL     1       1.110  -1.119   3.869  0.00  0.00    +0.121 C 
ATOM      5  C   UNL     1       1.530  -2.296   4.778  0.00  0.00    +0.100 C 
ATOM      6  C   UNL     1       1.566  -1.703   6.196  0.00  0.00    -0.004 C 
ATOM      7  C   UNL     1       1.177  -0.227   6.034  0.00  0.00    +0.115 C 
ATOM      8  C   UNL     1       2.973  -1.811   6.777  0.00  0.00    -0.010 C 
ATOM      9  C   UNL     1       2.971  -1.267   8.209  0.00  0.00    -0.082 C 
ATOM     10  N   UNL     1       2.023  -2.035   9.025  0.00  0.00    +0.379 N 
ATOM     11  C   UNL     1       0.659  -1.851   8.514  0.00  0.00    -0.082 C 
ATOM     12  C   UNL     1       0.563  -2.419   7.095  0.00  0.00    -0.010 C 
ATOM     13  H   UNL     1       2.265  -3.014   8.988  0.00  0.00    -0.086 HD
ATOM     14  H   UNL     1       2.068  -1.715   9.981  0.00  0.00    -0.086 HD
ENDROOT
BRANCH   1  20
ATOM     15  C   UNL     1       3.533   3.572   2.727  0.00  0.00    +0.045 C 
ATOM     16  C   UNL     1       2.930   2.388   2.016  0.00  0.00    -0.031 A 
ATOM     17  C   UNL     1       3.000   2.242   0.652  0.00  0.00    +0.011 A 
ATOM     18  C   UNL     1       2.436   1.151   0.076  0.00  0.00    +0.046 A 
ATOM     19  S   UNL     1       1.794   0.290   1.368  0.00  0.00    -0.092 S 
ATOM     20  C   UNL     1       2.276   1.374   2.698  0.00  0.00    +0.077 A 
ENDBRANCH   1  20
BRANCH   5  21
ATOM     21  C   UNL     1       2.893  -2.803   4.383  0.00  0.00    +0.218 C 
ATOM     22  O   UNL     1       3.687  -2.057   3.851  0.00  0.00    -0.275 OA
ATOM     23  N   UNL     1       3.229  -4.086   4.621  0.00  0.00    -0.313 N 
ATOM     24  H   UNL     1       2.623  -4.664   5.112  0.00  0.00    +0.149 HD
BRANCH  23  25
ATOM     25  C   UNL     1       4.509  -4.610   4.138  0.00  0.00    +0.126 C 
BRANCH  25  26
ATOM     26  C   UNL     1       4.579  -6.114   4.405  0.00  0.00    +0.038 C 
ATOM     27  C   UNL     1       4.157  -6.396   5.849  0.00  0.00    +0.024 C 
ATOM     28  C   UNL     1       5.099  -5.663   6.807  0.00  0.00    +0.002 C 
ATOM     29  C   UNL     1       6.532  -6.154   6.589  0.00  0.00    +0.000 C 
ATOM     30  C   UNL     1       6.953  -5.873   5.145  0.00  0.00    +0.002 C 
ATOM     31  C   UNL     1       6.012  -6.606   4.187  0.00  0.00    +0.024 C 
BRANCH  26  32
ATOM     32  N   UNL     1       3.675  -6.818   3.485  0.00  0.00    -0.291 NA
ATOM     33  C   UNL     1       4.019  -6.530   2.085  0.00  0.00    +0.113 C 
ATOM     34  C   UNL     1       3.094  -7.327   1.163  0.00  0.00    +0.175 C 
ATOM     35  O   UNL     1       1.734  -7.002   1.464  0.00  0.00    -0.377 OA
ATOM     36  C   UNL     1       1.364  -7.271   2.819  0.00  0.00    +0.175 C 
ATOM     37  C   UNL     1       2.272  -6.472   3.758  0.00  0.00    +0.113 C 
ENDBRANCH  26  32
ENDBRANCH  25  26
ENDBRANCH  23  25
ENDBRANCH   5  21
TORSDOF 5
