REMARK  Name = ZINC34978023
REMARK  11 active torsions:
REMARK  status: ('A' for Active; 'I' for Inactive)
REMARK    1  A    between atoms: C_1  and  C_2
REMARK    2  A    between atoms: C_2  and  C_3
REMARK    3  A    between atoms: C_3  and  C_4
REMARK    4  A    between atoms: C_4  and  C_5
REMARK    5  A    between atoms: C_12  and  C_14
REMARK    6  A    between atoms: C_15  and  C_17
REMARK    7  A    between atoms: C_17  and  C_19
REMARK    8  A    between atoms: C_17  and  N_26
REMARK    9  A    between atoms: C_19  and  C_20
REMARK   10  A    between atoms: N_29  and  C_30
REMARK   11  A    between atoms: C_35  and  C_36
REMARK                            x       y       z     vdW  Elec       q    Type
REMARK                         _______ _______ _______ _____ _____    ______ ____
ROOT
ATOM      1  C   UNL     1       2.792  -8.519  -1.713  0.00  0.00    +0.165 C 
ENDROOT
BRANCH   1  11
ATOM      2  C   UNL     1       5.149  -2.847  -1.702  0.00  0.00    +0.216 C 
ATOM      3  O   UNL     1       4.905  -2.355  -0.620  0.00  0.00    -0.276 OA
ATOM      4  N   UNL     1       4.935  -4.161  -1.908  0.00  0.00    -0.296 N 
ATOM      5  C   UNL     1       5.233  -4.772  -3.212  0.00  0.00    +0.127 C 
ATOM      6  C   UNL     1       3.969  -5.473  -3.724  0.00  0.00    +0.127 C 
ATOM      7  N   UNL     1       3.434  -6.322  -2.651  0.00  0.00    -0.297 N 
ATOM      8  C   UNL     1       3.136  -5.711  -1.347  0.00  0.00    +0.130 C 
ATOM      9  C   UNL     1       4.406  -5.011  -0.833  0.00  0.00    +0.090 C 
ATOM     10  C   UNL     1       5.452  -6.058  -0.443  0.00  0.00    +0.029 C 
ATOM     11  C   UNL     1       3.220  -7.636  -2.857  0.00  0.00    +0.236 C 
ATOM     12  O   UNL     1       3.372  -8.109  -3.964  0.00  0.00    -0.274 OA
BRANCH   2  13
ATOM     13  C   UNL     1       5.693  -1.988  -2.814  0.00  0.00    +0.096 C 
BRANCH  13  14
ATOM     14  C   UNL     1       5.841  -0.547  -2.321  0.00  0.00    +0.009 C 
BRANCH  14  16
ATOM     15  C   UNL     1       6.541   1.765  -2.956  0.00  0.00    +0.004 C 
ATOM     16  C   UNL     1       6.393   0.325  -3.450  0.00  0.00    -0.003 C 
ENDBRANCH  14  16
ENDBRANCH  13  14
ENDBRANCH   2  13
ENDBRANCH   1  11
BRANCH   1  17
ATOM     17  N   UNL     1       3.024  -9.922  -2.065  0.00  0.00    -0.288 N 
ATOM     18  C   UNL     1       3.207 -10.839  -1.095  0.00  0.00    +0.304 C 
ATOM     19  O   UNL     1       3.179 -10.502   0.073  0.00  0.00    -0.252 OA
ATOM     20  N   UNL     1       3.421 -12.129  -1.419  0.00  0.00    -0.269 N 
ATOM     21  H   UNL     1       3.047 -10.191  -2.997  0.00  0.00    +0.151 HD
ATOM     22  H   UNL     1       3.360 -12.414  -2.344  0.00  0.00    +0.156 HD
BRANCH  20  23
ATOM     23  C   UNL     1       3.731 -13.060  -0.420  0.00  0.00    +0.038 A 
ATOM     24  C   UNL     1       4.220 -12.627   0.806  0.00  0.00    +0.023 A 
ATOM     25  C   UNL     1       4.524 -13.548   1.789  0.00  0.00    +0.002 A 
ATOM     26  C   UNL     1       4.343 -14.899   1.554  0.00  0.00    +0.000 A 
ATOM     27  C   UNL     1       3.856 -15.332   0.335  0.00  0.00    +0.005 A 
ATOM     28  C   UNL     1       3.544 -14.416  -0.651  0.00  0.00    -0.029 A 
ATOM     29  C   UNL     1       3.008 -14.889  -1.977  0.00  0.00    +0.045 C 
ENDBRANCH  20  23
ENDBRANCH   1  17
BRANCH   1  30
ATOM     30  C   UNL     1       1.304  -8.303  -1.432  0.00  0.00    +0.067 C 
BRANCH  30  31
ATOM     31  C   UNL     1       0.914  -9.056  -0.186  0.00  0.00    -0.045 A 
ATOM     32  C   UNL     1       0.476 -10.364  -0.277  0.00  0.00    +0.004 A 
ATOM     33  C   UNL     1       0.118 -11.054   0.867  0.00  0.00    +0.000 A 
ATOM     34  C   UNL     1       0.199 -10.436   2.101  0.00  0.00    +0.000 A 
ATOM     35  C   UNL     1       0.637  -9.128   2.191  0.00  0.00    +0.000 A 
ATOM     36  C   UNL     1       0.999  -8.439   1.049  0.00  0.00    +0.004 A 
ENDBRANCH  30  31
ENDBRANCH   1  30
TORSDOF 8
