REMARK  Name = ZINC38672893
REMARK  8 active torsions:
REMARK  status: ('A' for Active; 'I' for Inactive)
REMARK    1  A    between atoms: C_1  and  N_2
REMARK    2  A    between atoms: N_5  and  C_8
REMARK    3  A    between atoms: C_8  and  C_10
REMARK    4  A    between atoms: C_8  and  C_24
REMARK    5  A    between atoms: C_10  and  N_11
REMARK    6  A    between atoms: C_12  and  C_14
REMARK    7  A    between atoms: C_14  and  C_19
REMARK    8  A    between atoms: N_33  and  C_34
REMARK                            x       y       z     vdW  Elec       q    Type
REMARK                         _______ _______ _______ _____ _____    ______ ____
ROOT
ATOM      1  C   UNL     1       1.470  -3.957  -0.035  0.00  0.00    +0.104 C 
ENDROOT
BRANCH   1   2
ATOM      2  C   UNL     1       2.221  -4.370   1.204  0.00  0.00    -0.028 A 
ATOM      3  C   UNL     1       1.978  -3.728   2.405  0.00  0.00    +0.007 A 
ATOM      4  C   UNL     1       2.667  -4.106   3.539  0.00  0.00    +0.024 A 
ATOM      5  C   UNL     1       3.604  -5.132   3.475  0.00  0.00    +0.033 A 
ATOM      6  C   UNL     1       3.844  -5.778   2.273  0.00  0.00    -0.026 A 
ATOM      7  C   UNL     1       3.146  -5.394   1.140  0.00  0.00    +0.010 A 
ATOM      8  C   UNL     1       4.843  -6.900   2.168  0.00  0.00    +0.038 C 
ATOM      9  C   UNL     1       5.834  -6.845   3.330  0.00  0.00    +0.024 C 
ATOM     10  C   UNL     1       5.051  -6.757   4.646  0.00  0.00    +0.105 C 
ATOM     11  N   UNL     1       4.295  -5.497   4.636  0.00  0.00    -0.333 N 
ATOM     12  C   UNL     1       4.266  -4.636   5.821  0.00  0.00    +0.129 C 
ENDBRANCH   1   2
BRANCH   1  17
ATOM     13  C   UNL     1       4.309   0.803  -1.051  0.00  0.00    -0.096 C 
ATOM     14  N   UNL     1       3.833  -0.488  -0.536  0.00  0.00    +0.379 N 
ATOM     15  C   UNL     1       2.478  -0.328   0.009  0.00  0.00    -0.064 C 
ATOM     16  C   UNL     1       1.990  -1.668   0.563  0.00  0.00    +0.066 C 
ATOM     17  N   UNL     1       1.988  -2.668  -0.514  0.00  0.00    -0.297 NA
ATOM     18  C   UNL     1       3.333  -2.821  -1.087  0.00  0.00    +0.066 C 
ATOM     19  C   UNL     1       3.810  -1.471  -1.627  0.00  0.00    -0.064 C 
ATOM     20  H   UNL     1       4.453  -0.808   0.193  0.00  0.00    -0.082 HD
ENDBRANCH   1  17
BRANCH   1  21
ATOM     21  C   UNL     1      -0.018  -3.818   0.293  0.00  0.00    +0.127 C 
BRANCH  21  22
ATOM     22  N   UNL     1      -0.735  -3.333  -0.889  0.00  0.00    -0.313 N 
ATOM     23  C   UNL     1      -2.079  -3.224  -0.864  0.00  0.00    +0.224 C 
ATOM     24  O   UNL     1      -2.693  -3.528   0.136  0.00  0.00    -0.275 OA
ATOM     25  H   UNL     1      -0.244  -3.090  -1.689  0.00  0.00    +0.149 HD
BRANCH  23  26
ATOM     26  C   UNL     1      -2.816  -2.725  -2.080  0.00  0.00    +0.078 C 
ATOM     27  C   UNL     1      -2.396  -1.279  -2.395  0.00  0.00    +0.021 C 
ATOM     28  C   UNL     1      -3.671  -0.417  -2.296  0.00  0.00    +0.001 C 
ATOM     29  C   UNL     1      -4.608  -1.230  -1.368  0.00  0.00    +0.001 C 
ATOM     30  C   UNL     1      -4.333  -2.692  -1.800  0.00  0.00    +0.021 C 
BRANCH  26  31
ATOM     31  C   UNL     1      -2.528  -3.616  -3.260  0.00  0.00    +0.005 A 
ATOM     32  C   UNL     1      -1.337  -3.913  -3.835  0.00  0.00    +0.012 A 
ATOM     33  C   UNL     1      -1.312  -4.766  -4.922  0.00  0.00    +0.008 A 
ATOM     34  C   UNL     1      -2.478  -5.281  -5.381  0.00  0.00    +0.045 A 
ATOM     35  S   UNL     1      -3.666  -4.562  -4.259  0.00  0.00    -0.101 S 
ENDBRANCH  26  31
ENDBRANCH  23  26
ENDBRANCH  21  22
ENDBRANCH   1  21
TORSDOF 6
