REMARK  Name = ZINC38611508
REMARK  8 active torsions:
REMARK  status: ('A' for Active; 'I' for Inactive)
REMARK    1  A    between atoms: C_1  and  C_2
REMARK    2  A    between atoms: C_2  and  O_3
REMARK    3  A    between atoms: O_3  and  C_4
REMARK    4  A    between atoms: C_4  and  C_6
REMARK    5  A    between atoms: C_8  and  N_17
REMARK    6  A    between atoms: C_18  and  C_20
REMARK    7  A    between atoms: C_20  and  C_21
REMARK    8  A    between atoms: C_21  and  N_22
REMARK                            x       y       z     vdW  Elec       q    Type
REMARK                         _______ _______ _______ _____ _____    ______ ____
ROOT
ATOM      1  N   UNL     1       0.136  -1.240  -4.239  0.00  0.00    -0.286 N 
ATOM      2  C   UNL     1      -0.760  -1.312  -5.242  0.00  0.00    +0.215 C 
ATOM      3  O   UNL     1      -1.189  -2.389  -5.596  0.00  0.00    -0.276 OA
ATOM      4  H   UNL     1       0.416  -0.375  -3.899  0.00  0.00    +0.155 HD
ENDROOT
BRANCH   1   6
ATOM      5  C   UNL     1       0.473  -3.793  -4.215  0.00  0.00    +0.234 C 
ATOM      6  C   UNL     1       0.651  -2.381  -3.701  0.00  0.00    +0.053 C 
ATOM      7  C   UNL     1       1.445  -2.489  -2.573  0.00  0.00    +0.019 A 
ATOM      8  C   UNL     1       1.951  -1.528  -1.666  0.00  0.00    +0.026 A 
ATOM      9  C   UNL     1       2.722  -1.927  -0.624  0.00  0.00    +0.019 A 
ATOM     10  C   UNL     1       3.034  -3.275  -0.417  0.00  0.00    +0.017 A 
ATOM     11  C   UNL     1       2.584  -4.248  -1.245  0.00  0.00    +0.027 A 
ATOM     12  C   UNL     1       1.772  -3.909  -2.358  0.00  0.00    +0.045 A 
ATOM     13  N   UNL     1       1.218  -4.657  -3.294  0.00  0.00    -0.367 N 
ATOM     14 BR   UNL     1       3.391  -0.631   0.580  0.00  0.00    -0.050 Br
ATOM     15  H   UNL     1       1.290  -5.621  -3.361  0.00  0.00    +0.161 HD
BRANCH   5  16
ATOM     16  C   UNL     1       1.035  -3.913  -5.608  0.00  0.00    +0.336 C 
ATOM     17  O   UNL     1       2.178  -4.272  -5.769  0.00  0.00    -0.248 OA
BRANCH  16  18
ATOM     18  O   UNL     1       0.267  -3.621  -6.670  0.00  0.00    -0.463 OA
BRANCH  18  20
ATOM     19  C   UNL     1      -0.155  -3.383  -9.037  0.00  0.00    +0.048 C 
ATOM     20  C   UNL     1       0.865  -3.757  -7.960  0.00  0.00    +0.229 C 
ENDBRANCH  18  20
ENDBRANCH  16  18
ENDBRANCH   5  16
ENDBRANCH   1   6
BRANCH   2  21
ATOM     21  C   UNL     1      -1.230  -0.053  -5.925  0.00  0.00    +0.077 C 
BRANCH  21  22
ATOM     22  C   UNL     1      -2.238  -0.411  -7.019  0.00  0.00    -0.069 C 
BRANCH  22  23
ATOM     23  N   UNL     1      -2.696   0.816  -7.684  0.00  0.00    +0.383 N 
ATOM     24  C   UNL     1      -3.744   0.484  -8.662  0.00  0.00    -0.074 C 
ATOM     25  C   UNL     1      -4.417   1.780  -9.114  0.00  0.00    +0.017 C 
ATOM     26  C   UNL     1      -3.369   2.775  -9.544  0.00  0.00    -0.048 A 
ATOM     27  C   UNL     1      -3.761   3.867 -10.303  0.00  0.00    +0.004 A 
ATOM     28  C   UNL     1      -2.831   4.801 -10.713  0.00  0.00    +0.000 A 
ATOM     29  C   UNL     1      -1.502   4.646 -10.364  0.00  0.00    +0.000 A 
ATOM     30  C   UNL     1      -1.111   3.558  -9.610  0.00  0.00    +0.002 A 
ATOM     31  C   UNL     1      -2.044   2.618  -9.199  0.00  0.00    -0.061 A 
ATOM     32  C   UNL     1      -1.572   1.443  -8.384  0.00  0.00    -0.043 C 
ATOM     33  H   UNL     1      -3.064   1.455  -6.996  0.00  0.00    -0.081 HD
ENDBRANCH  22  23
ENDBRANCH  21  22
ENDBRANCH   2  21
TORSDOF 7
