REMARK  Name = ZINC14475871
REMARK  9 active torsions:
REMARK  status: ('A' for Active; 'I' for Inactive)
REMARK    1  A    between atoms: C_1  and  C_2
REMARK    2  A    between atoms: C_2  and  O_3
REMARK    3  A    between atoms: O_3  and  C_4
REMARK    4  A    between atoms: C_7  and  N_10
REMARK    5  A    between atoms: N_10  and  S_11
REMARK    6  A    between atoms: S_11  and  C_14
REMARK    7  A    between atoms: C_27  and  C_30
REMARK    8  A    between atoms: C_32  and  N_37
REMARK    9  A    between atoms: C_35  and  O_36
REMARK                            x       y       z     vdW  Elec       q    Type
REMARK                         _______ _______ _______ _____ _____    ______ ____
ROOT
ATOM      1  C   UNL     1      -4.267   1.881  -0.360  0.00  0.00    +0.109 A 
ATOM      2  C   UNL     1      -5.313   1.740   0.534  0.00  0.00    +0.030 A 
ATOM      3  C   UNL     1      -5.775   0.479   0.854  0.00  0.00    +0.025 A 
ATOM      4  C   UNL     1      -5.189  -0.642   0.280  0.00  0.00    +0.031 A 
ATOM      5  C   UNL     1      -4.141  -0.506  -0.617  0.00  0.00    -0.018 A 
ATOM      6  C   UNL     1      -3.689   0.767  -0.935  0.00  0.00    +0.034 A 
ATOM      7  C   UNL     1      -3.483  -1.683  -1.264  0.00  0.00    +0.049 C 
ATOM      8  C   UNL     1      -2.128  -1.961  -0.658  0.00  0.00    -0.023 C 
ATOM      9  C   UNL     1      -1.911  -3.252  -0.605  0.00  0.00    -0.030 C 
ATOM     10  C   UNL     1      -3.092  -4.014  -1.174  0.00  0.00    +0.033 C 
ATOM     11  C   UNL     1      -4.265  -2.996  -1.061  0.00  0.00    +0.029 C 
ATOM     12  C   UNL     1      -4.796  -3.070   0.373  0.00  0.00    +0.108 C 
ATOM     13  N   UNL     1      -5.664  -1.913   0.619  0.00  0.00    -0.336 N 
ATOM     14  H   UNL     1      -6.661  -2.058   1.060  0.00  0.00    +0.147 HD
ENDROOT
BRANCH  12  15
ATOM     15  C   UNL     1      -5.583  -4.342   0.555  0.00  0.00    +0.017 A 
ATOM     16  C   UNL     1      -5.050  -5.387   1.285  0.00  0.00    +0.041 A 
ATOM     17  C   UNL     1      -5.774  -6.552   1.457  0.00  0.00    +0.127 A 
ATOM     18  C   UNL     1      -7.028  -6.680   0.888  0.00  0.00    +0.036 A 
ATOM     19  C   UNL     1      -7.564  -5.640   0.153  0.00  0.00    +0.048 A 
ATOM     20  C   UNL     1      -6.841  -4.468  -0.016  0.00  0.00    +0.122 A 
BRANCH  17  21
ATOM     21  N   UNL     1      -5.203  -7.667   2.244  0.00  0.00    +0.056 N 
ATOM     22  O   UNL     1      -5.838  -8.697   2.392  0.00  0.00    -0.126 OA
ATOM     23  O   UNL     1      -4.099  -7.556   2.746  0.00  0.00    -0.126 OA
ENDBRANCH  17  21
BRANCH  20  24
ATOM     24  O   UNL     1      -7.365  -3.444  -0.740  0.00  0.00    -0.506 OA
ATOM     25  H   UNL     1      -8.363  -3.544  -1.192  0.00  0.00    +0.292 HD
ENDBRANCH  20  24
ENDBRANCH  12  15
BRANCH   1  26
ATOM     26  S   UNL     1      -3.674   3.488  -0.770  0.00  0.00    +0.072 S 
ATOM     27  O   UNL     1      -4.706   4.402  -0.426  0.00  0.00    -0.150 OA
ATOM     28  O   UNL     1      -3.140   3.401  -2.085  0.00  0.00    -0.150 OA
BRANCH  26  29
ATOM     29  N   UNL     1      -2.400   3.812   0.237  0.00  0.00    -0.216 N 
ATOM     30  H   UNL     1      -2.467   4.637   0.962  0.00  0.00    +0.174 HD
BRANCH  29  34
ATOM     31  C   UNL     1       1.063   1.501   0.025  0.00  0.00    +0.121 A 
ATOM     32  C   UNL     1       0.798   2.444  -0.957  0.00  0.00    +0.047 A 
ATOM     33  C   UNL     1      -0.347   3.214  -0.885  0.00  0.00    +0.028 A 
ATOM     34  C   UNL     1      -1.237   3.036   0.166  0.00  0.00    +0.048 A 
ATOM     35  C   UNL     1      -0.971   2.092   1.149  0.00  0.00    +0.028 A 
ATOM     36  C   UNL     1       0.177   1.327   1.077  0.00  0.00    +0.047 A 
BRANCH  31  37
ATOM     37  O   UNL     1       2.193   0.747  -0.044  0.00  0.00    -0.492 OA
BRANCH  37  39
ATOM     38  C   UNL     1       3.715  -0.952   0.754  0.00  0.00    +0.048 C 
ATOM     39  C   UNL     1       2.403  -0.204   1.001  0.00  0.00    +0.225 C 
ENDBRANCH  37  39
ENDBRANCH  31  37
ENDBRANCH  29  34
ENDBRANCH  26  29
ENDBRANCH   1  26
TORSDOF 8
