REMARK  Name = ZINC31056088
REMARK  7 active torsions:
REMARK  status: ('A' for Active; 'I' for Inactive)
REMARK    1  A    between atoms: C_1  and  N_2
REMARK    2  A    between atoms: N_2  and  C_3
REMARK    3  A    between atoms: C_3  and  C_4
REMARK    4  A    between atoms: C_11  and  C_13
REMARK    5  A    between atoms: N_18  and  C_20
REMARK    6  A    between atoms: C_20  and  C_21
REMARK    7  A    between atoms: C_23  and  C_26
REMARK                            x       y       z     vdW  Elec       q    Type
REMARK                         _______ _______ _______ _____ _____    ______ ____
ROOT
ATOM      1  C   UNL     1      -1.253   7.556  -3.233  0.00  0.00    +0.059 C 
ATOM      2  C   UNL     1      -0.424   8.836  -3.101  0.00  0.00    +0.009 C 
ATOM      3  C   UNL     1      -0.476   9.607  -4.423  0.00  0.00    -0.018 C 
ATOM      4  C   UNL     1      -1.934   9.912  -4.773  0.00  0.00    -0.078 C 
ATOM      5  N   UNL     1      -2.685   8.656  -4.888  0.00  0.00    +0.386 N 
ATOM      6  C   UNL     1      -2.689   7.921  -3.617  0.00  0.00    -0.065 C 
ATOM      7  H   UNL     1      -2.177   8.029  -5.636  0.00  0.00    -0.081 HD
ENDROOT
BRANCH   1  10
ATOM      8  C   UNL     1       1.031   6.110  -2.368  0.00  0.00    +0.132 C 
ATOM      9  N   UNL     1      -0.138   6.199  -1.490  0.00  0.00    -0.300 N 
ATOM     10  C   UNL     1      -1.256   6.820  -1.917  0.00  0.00    +0.217 C 
ATOM     11  O   UNL     1      -2.263   6.787  -1.243  0.00  0.00    -0.275 OA
BRANCH   9  12
ATOM     12  C   UNL     1      -0.094   5.613  -0.148  0.00  0.00    +0.142 C 
BRANCH  12  13
ATOM     13  C   UNL     1      -0.563   4.182  -0.209  0.00  0.00    -0.030 A 
ATOM     14  C   UNL     1       0.347   3.166  -0.432  0.00  0.00    +0.006 A 
ATOM     15  C   UNL     1      -0.083   1.853  -0.488  0.00  0.00    +0.020 A 
ATOM     16  C   UNL     1      -1.424   1.557  -0.321  0.00  0.00    +0.041 A 
ATOM     17  C   UNL     1      -2.335   2.575  -0.103  0.00  0.00    +0.020 A 
ATOM     18  C   UNL     1      -1.903   3.887  -0.042  0.00  0.00    +0.006 A 
ATOM     19 CL   UNL     1      -1.964  -0.091  -0.390  0.00  0.00    -0.084 Cl
ENDBRANCH  12  13
ENDBRANCH   9  12
ENDBRANCH   1  10
BRANCH   5  20
ATOM     20  C   UNL     1      -4.054   8.902  -5.358  0.00  0.00    +0.022 C 
BRANCH  20  21
ATOM     21  C   UNL     1      -4.014   9.427  -6.770  0.00  0.00    +0.211 A 
ATOM     22  N   UNL     1      -4.040   8.712  -7.867  0.00  0.00    -0.193 NA
ATOM     23  C   UNL     1      -3.988   9.602  -8.883  0.00  0.00    +0.203 A 
ATOM     24  N   UNL     1      -3.926  10.794  -8.348  0.00  0.00    -0.056 NA
ATOM     25  O   UNL     1      -3.941  10.710  -7.139  0.00  0.00    -0.340 OA
BRANCH  23  26
ATOM     26  C   UNL     1      -3.994   9.287 -10.333  0.00  0.00    +0.041 A 
ATOM     27  C   UNL     1      -4.058   7.961 -10.759  0.00  0.00    +0.014 A 
ATOM     28  C   UNL     1      -4.070   7.673 -12.108  0.00  0.00    +0.021 A 
ATOM     29  C   UNL     1      -4.006   8.696 -13.039  0.00  0.00    +0.042 A 
ATOM     30  C   UNL     1      -3.937  10.014 -12.621  0.00  0.00    +0.040 A 
ATOM     31  C   UNL     1      -3.930  10.314 -11.273  0.00  0.00    +0.053 A 
ATOM     32 CL   UNL     1      -3.843  11.967 -10.750  0.00  0.00    -0.083 Cl
ATOM     33 CL   UNL     1      -4.015   8.325 -14.735  0.00  0.00    -0.083 Cl
ENDBRANCH  23  26
ENDBRANCH  20  21
ENDBRANCH   5  20
TORSDOF 6
