REMARK  Name = ZINC24496223
REMARK  17 active torsions:
REMARK  status: ('A' for Active; 'I' for Inactive)
REMARK    1  A    between atoms: C_1  and  C_2
REMARK    2  A    between atoms: C_1  and  C_27
REMARK    3  A    between atoms: C_2  and  C_3
REMARK    4  A    between atoms: C_3  and  C_4
REMARK    5  A    between atoms: C_5  and  N_14
REMARK    6  A    between atoms: N_14  and  C_15
REMARK    7  A    between atoms: C_15  and  C_16
REMARK    8  A    between atoms: C_16  and  C_18
REMARK    9  A    between atoms: C_16  and  O_26
REMARK   10  A    between atoms: C_18  and  C_20
REMARK   11  A    between atoms: C_18  and  O_25
REMARK   12  A    between atoms: C_20  and  C_22
REMARK   13  A    between atoms: C_20  and  O_24
REMARK   14  A    between atoms: C_22  and  O_23
REMARK   15  A    between atoms: C_27  and  C_28
REMARK   16  A    between atoms: C_28  and  P_29
REMARK   17  A    between atoms: P_29  and  O_32
REMARK                            x       y       z     vdW  Elec       q    Type
REMARK                         _______ _______ _______ _____ _____    ______ ____
ROOT
ATOM      1  C   UNL     1       4.627   9.505  -0.347  0.00  0.00    +0.055 A 
ATOM      2  C   UNL     1       4.746   8.143  -0.354  0.00  0.00    +0.108 A 
ATOM      3  N   UNL     1       5.992   7.576  -0.468  0.00  0.00    -0.296 N 
ATOM      4  H   UNL     1       6.101   6.481  -0.467  0.00  0.00    +0.172 HD
ATOM      5  C   UNL     1       7.086   8.352  -0.580  0.00  0.00    +0.328 A 
ATOM      6  O   UNL     1       8.181   7.833  -0.684  0.00  0.00    -0.247 OA
ATOM      7  N   UNL     1       6.987   9.694  -0.575  0.00  0.00    -0.275 N 
ATOM      8  H   UNL     1       7.891  10.313  -0.664  0.00  0.00    +0.173 HD
ATOM      9  C   UNL     1       5.784  10.291  -0.460  0.00  0.00    +0.259 A 
ATOM     10  O   UNL     1       5.702  11.508  -0.456  0.00  0.00    -0.267 OA
ENDROOT
BRANCH   2  11
ATOM     11  N   UNL     1       3.633   7.350  -0.245  0.00  0.00    -0.328 N 
ATOM     12  H   UNL     1       2.638   7.810  -0.150  0.00  0.00    +0.148 HD
BRANCH  11  13
ATOM     13  C   UNL     1       3.768   5.891  -0.254  0.00  0.00    +0.136 C 
BRANCH  13  14
ATOM     14  C   UNL     1       2.386   5.250  -0.118  0.00  0.00    +0.162 C 
BRANCH  14  15
ATOM     15  O   UNL     1       1.786   5.665   1.111  0.00  0.00    -0.388 OA
ATOM     16  H   UNL     1       0.784   5.303   1.384  0.00  0.00    +0.210 HD
ENDBRANCH  14  15
BRANCH  14  17
ATOM     17  C   UNL     1       2.527   3.727  -0.128  0.00  0.00    +0.175 C 
BRANCH  17  18
ATOM     18  O   UNL     1       3.127   3.312  -1.357  0.00  0.00    -0.387 OA
ATOM     19  H   UNL     1       3.309   2.244  -1.547  0.00  0.00    +0.210 HD
ENDBRANCH  17  18
BRANCH  17  20
ATOM     20  C   UNL     1       1.145   3.085   0.008  0.00  0.00    +0.171 C 
BRANCH  20  21
ATOM     21  O   UNL     1       0.546   3.500   1.237  0.00  0.00    -0.387 OA
ATOM     22  H   UNL     1      -0.457   3.139   1.510  0.00  0.00    +0.210 HD
ENDBRANCH  20  21
BRANCH  20  23
ATOM     23  C   UNL     1       1.286   1.562  -0.002  0.00  0.00    +0.189 C 
BRANCH  23  24
ATOM     24  O   UNL     1      -0.011   0.963   0.007  0.00  0.00    -0.392 OA
ATOM     25  H   UNL     1      -0.111  -0.133   0.002  0.00  0.00    +0.210 HD
ENDBRANCH  23  24
ENDBRANCH  20  23
ENDBRANCH  17  20
ENDBRANCH  14  17
ENDBRANCH  13  14
ENDBRANCH  11  13
ENDBRANCH   2  11
BRANCH   1  26
ATOM     26  C   UNL     1       3.272  10.152  -0.217  0.00  0.00    +0.044 C 
BRANCH  26  27
ATOM     27  C   UNL     1       3.006  10.489   1.251  0.00  0.00    +0.005 C 
BRANCH  27  28
ATOM     28  C   UNL     1       1.631  11.147   1.382  0.00  0.00    +0.001 C 
BRANCH  28  29
ATOM     29  C   UNL     1       1.365  11.483   2.851  0.00  0.00    +0.012 C 
BRANCH  29  30
ATOM     30  C   UNL     1      -0.011  12.141   2.982  0.00  0.00    +0.129 C 
BRANCH  30  31
ATOM     31  P   UNL     1      -0.328  12.542   4.732  0.00  0.00    +0.358 P 
ATOM     32  O   UNL     1      -0.177  11.320   5.553  0.00  0.00    -0.256 OA
ATOM     33  O   UNL     1       0.725  13.654   5.227  0.00  0.00    -0.141 OA
BRANCH  31  34
ATOM     34  O   UNL     1      -1.825  13.113   4.889  0.00  0.00    -0.322 OA
ATOM     35  H   UNL     1      -2.200  13.410   5.879  0.00  0.00    +0.220 HD
ENDBRANCH  31  34
ENDBRANCH  30  31
ENDBRANCH  29  30
ENDBRANCH  28  29
ENDBRANCH  27  28
ENDBRANCH  26  27
ENDBRANCH   1  26
TORSDOF 17
