REMARK  Name = ZINC01789735
REMARK  4 active torsions:
REMARK  status: ('A' for Active; 'I' for Inactive)
REMARK    1  A    between atoms: C_1  and  C_2
REMARK    2  A    between atoms: C_2  and  C_3
REMARK    3  A    between atoms: C_3  and  N_4
REMARK    4  A    between atoms: C_14  and  C_16
REMARK                            x       y       z     vdW  Elec       q    Type
REMARK                         _______ _______ _______ _____ _____    ______ ____
ROOT
ATOM      1  N   UNL     1      -1.413  -2.002   0.005  0.00  0.00    +0.380 N 
ATOM      2  C   UNL     1      -0.802  -2.489   1.248  0.00  0.00    -0.074 C 
ATOM      3  C   UNL     1      -0.708  -4.016   1.211  0.00  0.00    +0.048 C 
ATOM      4  C   UNL     1      -2.116  -4.606   1.072  0.00  0.00    +0.177 C 
ATOM      5  C   UNL     1      -2.767  -4.036  -0.194  0.00  0.00    +0.048 C 
ATOM      6  C   UNL     1      -2.787  -2.509  -0.105  0.00  0.00    -0.074 C 
ATOM      7  N   UNL     1      -2.055  -6.045   1.004  0.00  0.00    -0.177 NA
ATOM      8  C   UNL     1      -3.433  -6.623   1.067  0.00  0.00    +0.138 C 
ATOM      9  C   UNL     1      -3.158  -8.054   0.697  0.00  0.00    +0.023 C 
ATOM     10  C   UNL     1      -1.969  -8.037   0.064  0.00  0.00    +0.047 C 
ATOM     11  N   UNL     1      -1.482  -6.716  -0.009  0.00  0.00    -0.273 N 
ATOM     12  C   UNL     1      -3.846  -6.376   2.487  0.00  0.00    +0.018 A 
ATOM     13  C   UNL     1      -4.502  -7.294   3.263  0.00  0.00    +0.024 A 
ATOM     14  C   UNL     1      -4.830  -6.976   4.572  0.00  0.00    +0.018 A 
ATOM     15  C   UNL     1      -4.490  -5.737   5.085  0.00  0.00    +0.019 A 
ATOM     16  C   UNL     1      -3.834  -4.809   4.301  0.00  0.00    +0.047 A 
ATOM     17  C   UNL     1      -3.508  -5.113   2.988  0.00  0.00    +0.128 A 
ATOM     18  O   UNL     1      -2.896  -4.210   2.209  0.00  0.00    -0.469 OA
ATOM     19 BR   UNL     1      -5.738  -8.234   5.654  0.00  0.00    -0.050 Br
ATOM     20  H   UNL     1      -0.856  -6.362  -0.660  0.00  0.00    +0.167 HD
ATOM     21  H   UNL     1      -0.872  -2.326  -0.783  0.00  0.00    -0.082 HD
ENDROOT
BRANCH  10  22
ATOM     22  C   UNL     1      -1.276  -9.229  -0.475  0.00  0.00    -0.003 A 
ATOM     23  C   UNL     1      -1.867 -10.498  -0.346  0.00  0.00    +0.010 A 
ATOM     24  C   UNL     1      -1.252 -11.606  -0.832  0.00  0.00    +0.009 A 
ATOM     25  C   UNL     1      -0.006 -11.494  -1.475  0.00  0.00    -0.018 A 
ATOM     26  C   UNL     1       0.650 -12.626  -1.986  0.00  0.00    +0.008 A 
ATOM     27  C   UNL     1       1.855 -12.486  -2.604  0.00  0.00    +0.001 A 
ATOM     28  C   UNL     1       2.452 -11.234  -2.738  0.00  0.00    +0.001 A 
ATOM     29  C   UNL     1       1.847 -10.114  -2.255  0.00  0.00    +0.008 A 
ATOM     30  C   UNL     1       0.600 -10.220  -1.612  0.00  0.00    -0.017 A 
ATOM     31  C   UNL     1      -0.054  -9.085  -1.108  0.00  0.00    +0.018 A 
ENDBRANCH  10  22
BRANCH   1  32
ATOM     32  C   UNL     1      -1.433  -0.534   0.013  0.00  0.00    -0.079 C 
BRANCH  32  34
ATOM     33  C   UNL     1      -0.019   1.526   0.010  0.00  0.00    +0.002 C 
ATOM     34  C   UNL     1       0.002  -0.004   0.002  0.00  0.00    -0.022 C 
ENDBRANCH  32  34
ENDBRANCH   1  32
TORSDOF 3
