REMARK  Name = ZINC08753925
REMARK  9 active torsions:
REMARK  status: ('A' for Active; 'I' for Inactive)
REMARK    1  A    between atoms: C_1  and  O_2
REMARK    2  A    between atoms: O_2  and  C_3
REMARK    3  A    between atoms: C_6  and  C_11
REMARK    4  A    between atoms: C_7  and  O_9
REMARK    5  A    between atoms: O_9  and  C_10
REMARK    6  A    between atoms: C_14  and  C_16
REMARK    7  A    between atoms: C_14  and  O_20
REMARK    8  A    between atoms: C_23  and  C_26
REMARK    9  A    between atoms: C_30  and  O_32
REMARK                            x       y       z     vdW  Elec       q    Type
REMARK                         _______ _______ _______ _____ _____    ______ ____
ROOT
ATOM      1  C   UNL     1       2.186   1.005  -0.013  0.00  0.00    +0.075 C 
ATOM      2  N   UNL     1       1.294   1.936   0.000  0.00  0.00    -0.179 NA
ATOM      3  N   UNL     1      -0.018   1.467   0.010  0.00  0.00    -0.160 N 
ATOM      4  C   UNL     1       0.002  -0.004   0.002  0.00  0.00    +0.256 C 
ATOM      5  C   UNL     1       1.505  -0.346  -0.014  0.00  0.00    +0.124 C 
ATOM      6  C   UNL     1      -1.155   2.257   0.020  0.00  0.00    +0.184 A 
ATOM      7  N   UNL     1      -1.258   3.574   0.033  0.00  0.00    -0.223 NA
ATOM      8  C   UNL     1      -2.441   4.171   0.036  0.00  0.00    +0.080 A 
ATOM      9  C   UNL     1      -3.576   3.410   0.038  0.00  0.00    +0.077 A 
ATOM     10  S   UNL     1      -2.873   1.766   0.026  0.00  0.00    -0.058 S 
ENDROOT
BRANCH   1  14
ATOM     11  C   UNL     1       6.387   1.632  -0.053  0.00  0.00    +0.124 A 
ATOM     12  C   UNL     1       5.877   0.339  -0.056  0.00  0.00    +0.046 A 
ATOM     13  C   UNL     1       4.515   0.131  -0.042  0.00  0.00    +0.017 A 
ATOM     14  C   UNL     1       3.643   1.222  -0.027  0.00  0.00    +0.040 A 
ATOM     15  C   UNL     1       4.160   2.526  -0.031  0.00  0.00    +0.132 A 
ATOM     16  C   UNL     1       5.529   2.722  -0.038  0.00  0.00    +0.091 A 
BRANCH  11  18
ATOM     17  C   UNL     1       8.558   0.663  -0.082  0.00  0.00    +0.277 C 
ATOM     18  O   UNL     1       7.731   1.829  -0.067  0.00  0.00    -0.495 OA
ENDBRANCH  11  18
BRANCH  15  19
ATOM     19  O   UNL     1       3.318   3.592  -0.021  0.00  0.00    -0.494 OA
ATOM     20  C   UNL     1       3.917   4.890  -0.026  0.00  0.00    +0.277 C 
ENDBRANCH  15  19
ENDBRANCH   1  14
BRANCH   8  21
ATOM     21  C   UNL     1      -2.532   5.651   0.045  0.00  0.00    +0.004 A 
ATOM     22  C   UNL     1      -1.371   6.423   0.043  0.00  0.00    +0.010 A 
ATOM     23  C   UNL     1      -1.459   7.801   0.051  0.00  0.00    +0.004 A 
ATOM     24  C   UNL     1      -2.696   8.418   0.060  0.00  0.00    +0.045 A 
ATOM     25  C   UNL     1      -3.857   7.657   0.061  0.00  0.00    +0.117 A 
ATOM     26  C   UNL     1      -3.778   6.274   0.049  0.00  0.00    +0.055 A 
BRANCH  25  27
ATOM     27  O   UNL     1      -5.070   8.268   0.071  0.00  0.00    -0.507 OA
ATOM     28  H   UNL     1      -5.426   8.450  -0.810  0.00  0.00    +0.292 HD
ENDBRANCH  25  27
ENDBRANCH   8  21
BRANCH   4  29
ATOM     29  C   UNL     1      -0.666  -0.558   1.262  0.00  0.00    +0.438 C 
ATOM     30  F   UNL     1      -2.004  -0.151   1.298  0.00  0.00    -0.166 F 
ATOM     31  F   UNL     1      -0.604  -1.956   1.246  0.00  0.00    -0.166 F 
ATOM     32  F   UNL     1      -0.000  -0.075   2.394  0.00  0.00    -0.166 F 
ENDBRANCH   4  29
BRANCH   4  33
ATOM     33  O   UNL     1      -0.641  -0.509  -1.170  0.00  0.00    -0.363 OA
ATOM     34  H   UNL     1      -1.574  -0.265  -1.243  0.00  0.00    +0.212 HD
ENDBRANCH   4  33
TORSDOF 7
