REMARK  Name = ZINC07754548
REMARK  4 active torsions:
REMARK  status: ('A' for Active; 'I' for Inactive)
REMARK    1  A    between atoms: C_1  and  C_2
REMARK    2  A    between atoms: C_13  and  C_15
REMARK    3  A    between atoms: C_15  and  C_16
REMARK    4  A    between atoms: N_18  and  C_19
REMARK                            x       y       z     vdW  Elec       q    Type
REMARK                         _______ _______ _______ _____ _____    ______ ____
ROOT
ATOM      1  C   UNL     1      -1.016  -0.918  -0.054  0.00  0.00    +0.123 C 
ENDROOT
BRANCH   1  14
ATOM      2  C   UNL     1       1.687  -2.662  -3.402  0.00  0.00    +0.109 C 
ATOM      3  C   UNL     1       1.224  -2.528  -1.974  0.00  0.00    +0.217 C 
ATOM      4  O   UNL     1       2.037  -2.458  -1.077  0.00  0.00    -0.276 OA
ATOM      5  N   UNL     1      -0.094  -2.485  -1.695  0.00  0.00    -0.270 N 
ATOM      6  C   UNL     1      -1.028  -2.564  -2.721  0.00  0.00    +0.079 C 
ATOM      7  C   UNL     1      -2.209  -3.151  -2.494  0.00  0.00    +0.023 C 
ATOM      8  C   UNL     1      -2.506  -3.679  -1.149  0.00  0.00    -0.019 A 
ATOM      9  C   UNL     1      -3.594  -4.524  -0.936  0.00  0.00    +0.008 A 
ATOM     10  C   UNL     1      -3.843  -5.012   0.331  0.00  0.00    +0.001 A 
ATOM     11  C   UNL     1      -3.021  -4.658   1.387  0.00  0.00    +0.000 A 
ATOM     12  C   UNL     1      -1.951  -3.803   1.185  0.00  0.00    +0.006 A 
ATOM     13  C   UNL     1      -1.695  -3.305  -0.071  0.00  0.00    -0.019 A 
ATOM     14  C   UNL     1      -0.549  -2.353  -0.306  0.00  0.00    +0.120 C 
ENDBRANCH   1  14
BRANCH   1  15
ATOM     15  C   UNL     1       0.158   0.020  -0.174  0.00  0.00    +0.219 C 
ATOM     16  O   UNL     1       1.259  -0.417  -0.436  0.00  0.00    -0.275 OA
ATOM     17  N   UNL     1      -0.016   1.344   0.009  0.00  0.00    -0.285 N 
ATOM     18  H   UNL     1      -0.908   1.702   0.139  0.00  0.00    +0.155 HD
BRANCH  17  19
ATOM     19  C   UNL     1       1.091   2.202   0.007  0.00  0.00    +0.037 A 
ATOM     20  C   UNL     1       0.966   3.495  -0.485  0.00  0.00    +0.027 A 
ATOM     21  C   UNL     1       2.056   4.343  -0.487  0.00  0.00    +0.051 A 
ATOM     22  C   UNL     1       3.277   3.907   0.002  0.00  0.00    +0.166 A 
ATOM     23  C   UNL     1       3.406   2.611   0.496  0.00  0.00    +0.168 A 
ATOM     24  C   UNL     1       2.311   1.763   0.503  0.00  0.00    +0.072 A 
ATOM     25  O   UNL     1       4.693   2.428   0.912  0.00  0.00    -0.453 OA
ATOM     26  C   UNL     1       5.245   3.751   1.046  0.00  0.00    +0.466 C 
ATOM     27  O   UNL     1       4.485   4.536   0.109  0.00  0.00    -0.453 OA
ENDBRANCH  17  19
ENDBRANCH   1  15
TORSDOF 3
