REMARK  Name = ZINC39694381
REMARK  5 active torsions:
REMARK  status: ('A' for Active; 'I' for Inactive)
REMARK    1  A    between atoms: C_4  and  N_31
REMARK    2  A    between atoms: C_5  and  C_7
REMARK    3  A    between atoms: C_7  and  N_8
REMARK    4  A    between atoms: C_9  and  C_11
REMARK    5  A    between atoms: C_22  and  C_24
REMARK                            x       y       z     vdW  Elec       q    Type
REMARK                         _______ _______ _______ _____ _____    ______ ____
ROOT
ATOM      1  C   UNL     1       1.221  -4.248   1.910  0.00  0.00    +0.100 C 
ATOM      2  C   UNL     1       0.628  -3.998   3.315  0.00  0.00    +0.121 C 
ATOM      3  N   UNL     1      -0.395  -5.058   3.483  0.00  0.00    -0.300 N 
ATOM      4  C   UNL     1       0.219  -6.263   2.877  0.00  0.00    +0.115 C 
ATOM      5  C   UNL     1       0.954  -5.736   1.628  0.00  0.00    -0.004 C 
ATOM      6  C   UNL     1       2.271  -6.482   1.436  0.00  0.00    -0.010 C 
ATOM      7  C   UNL     1       1.978  -7.947   1.099  0.00  0.00    -0.082 C 
ATOM      8  N   UNL     1       1.170  -8.017  -0.125  0.00  0.00    +0.379 N 
ATOM      9  C   UNL     1      -0.132  -7.378   0.098  0.00  0.00    -0.082 C 
ATOM     10  C   UNL     1       0.071  -5.889   0.393  0.00  0.00    -0.010 C 
ATOM     11  C   UNL     1      -1.609  -4.950   4.059  0.00  0.00    +0.219 C 
ATOM     12  O   UNL     1      -2.009  -3.868   4.433  0.00  0.00    -0.275 OA
ATOM     13  H   UNL     1       1.653  -7.542  -0.873  0.00  0.00    -0.086 HD
ATOM     14  H   UNL     1       1.030  -8.984  -0.379  0.00  0.00    -0.086 HD
ENDROOT
BRANCH  11  15
ATOM     15  C   UNL     1      -2.470  -6.174   4.237  0.00  0.00    +0.079 C 
ATOM     16  C   UNL     1      -3.950  -5.780   4.149  0.00  0.00    +0.017 C 
ATOM     17  C   UNL     1      -4.791  -7.059   4.154  0.00  0.00    +0.027 C 
ATOM     18  C   UNL     1      -4.365  -7.954   5.280  0.00  0.00    -0.031 C 
ATOM     19  C   UNL     1      -3.242  -7.838   5.913  0.00  0.00    -0.030 C 
ATOM     20  C   UNL     1      -2.209  -6.790   5.613  0.00  0.00    +0.039 C 
ENDBRANCH  11  15
BRANCH   1  22
ATOM     21  N   UNL     1       1.247  -2.744  -0.053  0.00  0.00    -0.311 N 
ATOM     22  C   UNL     1       0.526  -3.387   0.887  0.00  0.00    +0.218 C 
ATOM     23  O   UNL     1      -0.681  -3.273   0.909  0.00  0.00    -0.275 OA
ATOM     24  H   UNL     1       2.212  -2.835  -0.071  0.00  0.00    +0.149 HD
BRANCH  21  25
ATOM     25  C   UNL     1       0.572  -1.907  -1.048  0.00  0.00    +0.141 C 
BRANCH  25  30
ATOM     26  C   UNL     1       2.954   0.550  -2.644  0.00  0.00    +0.000 A 
ATOM     27  C   UNL     1       3.476  -0.199  -3.682  0.00  0.00    +0.002 A 
ATOM     28  C   UNL     1       3.061  -1.503  -3.872  0.00  0.00    +0.023 A 
ATOM     29  C   UNL     1       2.118  -2.061  -3.018  0.00  0.00    +0.035 A 
ATOM     30  C   UNL     1       1.596  -1.305  -1.976  0.00  0.00    -0.009 A 
ATOM     31  C   UNL     1       2.015  -0.002  -1.792  0.00  0.00    +0.007 A 
BRANCH  29  32
ATOM     32  N   UNL     1       1.696  -3.379  -3.207  0.00  0.00    -0.325 N 
ATOM     33  C   UNL     1       0.546  -3.689  -4.071  0.00  0.00    +0.133 C 
ATOM     34  C   UNL     1       0.965  -4.785  -5.058  0.00  0.00    +0.178 C 
ATOM     35  O   UNL     1       1.529  -5.881  -4.333  0.00  0.00    -0.377 OA
ATOM     36  C   UNL     1       2.717  -5.554  -3.609  0.00  0.00    +0.178 C 
ATOM     37  C   UNL     1       2.392  -4.498  -2.553  0.00  0.00    +0.133 C 
ENDBRANCH  29  32
ENDBRANCH  25  30
ENDBRANCH  21  25
ENDBRANCH   1  22
TORSDOF 5
