REMARK  Name = ZINC13894800
REMARK  8 active torsions:
REMARK  status: ('A' for Active; 'I' for Inactive)
REMARK    1  A    between atoms: C_1  and  O_2
REMARK    2  A    between atoms: O_2  and  C_3
REMARK    3  A    between atoms: C_5  and  C_20
REMARK    4  A    between atoms: C_8  and  O_9
REMARK    5  A    between atoms: O_9  and  C_10
REMARK    6  A    between atoms: C_10  and  C_11
REMARK    7  A    between atoms: C_16  and  C_17
REMARK    8  A    between atoms: N_21  and  N_22
REMARK                            x       y       z     vdW  Elec       q    Type
REMARK                         _______ _______ _______ _____ _____    ______ ____
ROOT
ATOM      1  C   UNL     1      -0.787   2.893   1.346  0.00  0.00    +0.163 A 
ATOM      2  C   UNL     1      -0.255   3.747   0.399  0.00  0.00    +0.059 A 
ATOM      3  C   UNL     1      -0.371   5.130   0.566  0.00  0.00    -0.001 A 
ATOM      4  C   UNL     1      -1.014   5.642   1.695  0.00  0.00    +0.027 A 
ATOM      5  C   UNL     1      -1.538   4.783   2.639  0.00  0.00    +0.059 A 
ATOM      6  C   UNL     1      -1.427   3.410   2.470  0.00  0.00    +0.175 A 
ATOM      7  I   UNL     1      -2.503   5.553   4.332  0.00  0.00    -0.040 I 
ENDROOT
BRANCH   1   9
ATOM      8  C   UNL     1      -0.013   1.086   0.008  0.00  0.00    +0.277 C 
ATOM      9  O   UNL     1      -0.682   1.547   1.184  0.00  0.00    -0.491 OA
ENDBRANCH   1   9
BRANCH   3  10
ATOM     10  C   UNL     1       0.190   6.045  -0.445  0.00  0.00    +0.138 C 
ATOM     11  N   UNL     1       0.086   7.329  -0.286  0.00  0.00    -0.186 NA
BRANCH  11  12
ATOM     12  N   UNL     1       0.618   8.199  -1.246  0.00  0.00    -0.191 N 
ATOM     13  C   UNL     1       0.510   9.533  -1.081  0.00  0.00    +0.317 C 
ATOM     14  O   UNL     1       0.973  10.288  -1.914  0.00  0.00    -0.251 OA
ATOM     15  N   UNL     1      -0.110  10.028   0.008  0.00  0.00    -0.312 N 
ATOM     16  H   UNL     1       1.065   7.842  -2.029  0.00  0.00    +0.179 HD
ATOM     17  H   UNL     1      -0.479   9.426   0.673  0.00  0.00    +0.147 HD
ATOM     18  H   UNL     1      -0.188  10.988   0.127  0.00  0.00    +0.147 HD
ENDBRANCH  11  12
ENDBRANCH   3  10
BRANCH   6  19
ATOM     19  O   UNL     1      -1.946   2.568   3.403  0.00  0.00    -0.483 OA
BRANCH  19  20
ATOM     20  C   UNL     1      -1.084   2.178   4.474  0.00  0.00    +0.266 C 
BRANCH  20  21
ATOM     21  C   UNL     1      -1.826   1.251   5.403  0.00  0.00    +0.007 A 
ATOM     22  C   UNL     1      -3.139   0.916   5.142  0.00  0.00    +0.008 A 
ATOM     23  C   UNL     1      -3.819   0.061   5.991  0.00  0.00    +0.000 A 
ATOM     24  C   UNL     1      -3.193  -0.456   7.111  0.00  0.00    +0.001 A 
ATOM     25  C   UNL     1      -1.882  -0.125   7.387  0.00  0.00    +0.019 A 
ATOM     26  C   UNL     1      -1.188   0.733   6.531  0.00  0.00    +0.058 A 
BRANCH  26  27
ATOM     27  C   UNL     1       0.173   1.081   6.811  0.00  0.00    +0.100 C 
ATOM     28  N   UNL     1       1.252   1.357   7.033  0.00  0.00    -0.191 NA
ENDBRANCH  26  27
ENDBRANCH  20  21
ENDBRANCH  19  20
ENDBRANCH   6  19
TORSDOF 7
