REMARK  Name = ZINC39344639
REMARK  6 active torsions:
REMARK  status: ('A' for Active; 'I' for Inactive)
REMARK    1  A    between atoms: C_3  and  C_7
REMARK    2  A    between atoms: C_14  and  C_16
REMARK    3  A    between atoms: C_18  and  C_32
REMARK    4  A    between atoms: C_20  and  S_22
REMARK    5  A    between atoms: S_22  and  N_25
REMARK    6  A    between atoms: N_25  and  C_26
REMARK                            x       y       z     vdW  Elec       q    Type
REMARK                         _______ _______ _______ _____ _____    ______ ____
ROOT
ATOM      1  C   UNL     1       5.047  -0.125   2.797  0.00  0.00    +0.039 A 
ATOM      2  C   UNL     1       4.625  -1.204   3.576  0.00  0.00    +0.019 A 
ATOM      3  C   UNL     1       5.463  -1.723   4.542  0.00  0.00    -0.017 A 
ATOM      4  C   UNL     1       6.718  -1.175   4.740  0.00  0.00    +0.034 A 
ATOM      5  C   UNL     1       7.142  -0.105   3.971  0.00  0.00    +0.106 A 
ATOM      6  C   UNL     1       6.316   0.419   2.998  0.00  0.00    +0.041 A 
ENDROOT
BRANCH   1  13
ATOM      7  C   UNL     1       3.791   1.860  -0.197  0.00  0.00    +0.108 C 
ATOM      8  C   UNL     1       4.146   1.439  -1.626  0.00  0.00    +0.027 C 
ATOM      9  C   UNL     1       5.640   1.672  -1.866  0.00  0.00    +0.004 C 
ATOM     10  C   UNL     1       6.454   0.816  -0.894  0.00  0.00    +0.019 C 
ATOM     11  C   UNL     1       6.125   1.230   0.544  0.00  0.00    +0.109 C 
ATOM     12  N   UNL     1       4.671   1.150   0.741  0.00  0.00    -0.290 N 
ATOM     13  C   UNL     1       4.154   0.435   1.760  0.00  0.00    +0.247 C 
ATOM     14  O   UNL     1       2.955   0.252   1.827  0.00  0.00    -0.270 OA
BRANCH   7  17
ATOM     15  C   UNL     1       0.238   2.005   1.064  0.00  0.00    +0.020 A 
ATOM     16  C   UNL     1       1.553   2.370   0.823  0.00  0.00    +0.008 A 
ATOM     17  C   UNL     1       2.355   1.507   0.092  0.00  0.00    -0.009 A 
ATOM     18  C   UNL     1       1.820   0.319  -0.369  0.00  0.00    +0.116 A 
ATOM     19  N   UNL     1       0.564   0.004  -0.121  0.00  0.00    -0.263 NA
ATOM     20  C   UNL     1      -0.227   0.800   0.571  0.00  0.00    +0.111 A 
ENDBRANCH   7  17
ENDBRANCH   1  13
BRANCH   3  21
ATOM     21  C   UNL     1       5.010  -2.888   5.384  0.00  0.00    +0.153 C 
ATOM     22  C   UNL     1       5.112  -4.186   4.603  0.00  0.00    +0.025 C 
ATOM     23  C   UNL     1       3.853  -4.628   4.548  0.00  0.00    +0.130 C 
ATOM     24  N   UNL     1       3.018  -3.777   5.185  0.00  0.00    -0.186 NA
ATOM     25  N   UNL     1       3.571  -2.787   5.680  0.00  0.00    -0.298 N 
ATOM     26  H   UNL     1       3.137  -2.074   6.174  0.00  0.00    +0.183 HD
ENDBRANCH   3  21
BRANCH   5  27
ATOM     27  S   UNL     1       8.742   0.585   4.232  0.00  0.00    +0.059 S 
ATOM     28  O   UNL     1       8.689   1.923   3.758  0.00  0.00    -0.153 OA
ATOM     29  O   UNL     1       9.111   0.263   5.566  0.00  0.00    -0.153 OA
BRANCH  27  30
ATOM     30  N   UNL     1       9.793  -0.227   3.242  0.00  0.00    -0.187 NA
ATOM     31  H   UNL     1      10.497  -0.772   3.625  0.00  0.00    +0.148 HD
BRANCH  30  32
ATOM     32  C   UNL     1       9.658  -0.120   1.787  0.00  0.00    +0.077 C 
ATOM     33  C   UNL     1       8.830  -1.296   1.264  0.00  0.00    +0.020 C 
ATOM     34  C   UNL     1       8.690  -1.185  -0.256  0.00  0.00    +0.002 C 
ATOM     35  C   UNL     1      10.078  -1.212  -0.899  0.00  0.00    +0.000 C 
ATOM     36  C   UNL     1      10.905  -0.036  -0.376  0.00  0.00    +0.002 C 
ATOM     37  C   UNL     1      11.046  -0.147   1.143  0.00  0.00    +0.020 C 
ENDBRANCH  30  32
ENDBRANCH  27  30
ENDBRANCH   5  27
TORSDOF 6
