REMARK  Name = ZINC41223871
REMARK  7 active torsions:
REMARK  status: ('A' for Active; 'I' for Inactive)
REMARK    1  A    between atoms: C_1  and  O_2
REMARK    2  A    between atoms: O_2  and  C_3
REMARK    3  A    between atoms: C_7  and  C_18
REMARK    4  A    between atoms: C_8  and  O_9
REMARK    5  A    between atoms: O_9  and  C_10
REMARK    6  A    between atoms: C_10  and  C_11
REMARK    7  A    between atoms: N_19  and  N_20
REMARK                            x       y       z     vdW  Elec       q    Type
REMARK                         _______ _______ _______ _____ _____    ______ ____
ROOT
ATOM      1  C   UNL     1      -1.315  -0.710   0.092  0.00  0.00    +0.162 A 
ATOM      2  C   UNL     1      -2.523  -0.030   0.100  0.00  0.00    +0.049 A 
ATOM      3  C   UNL     1      -3.718  -0.728   0.073  0.00  0.00    +0.004 A 
ATOM      4  C   UNL     1      -3.718  -2.107   0.037  0.00  0.00    +0.013 A 
ATOM      5  C   UNL     1      -2.508  -2.805   0.028  0.00  0.00    +0.040 A 
ATOM      6  C   UNL     1      -1.300  -2.099   0.050  0.00  0.00    +0.171 A 
ENDROOT
BRANCH   1   8
ATOM      7  C   UNL     1      -0.236   1.408   0.162  0.00  0.00    +0.277 C 
ATOM      8  O   UNL     1      -0.145  -0.017   0.119  0.00  0.00    -0.491 OA
ENDBRANCH   1   8
BRANCH   5   9
ATOM      9  C   UNL     1      -2.503  -4.279  -0.011  0.00  0.00    +0.142 C 
ATOM     10  N   UNL     1      -3.621  -4.933   0.069  0.00  0.00    -0.186 NA
BRANCH  10  11
ATOM     11  N   UNL     1      -3.610  -6.333   0.138  0.00  0.00    -0.191 N 
ATOM     12  C   UNL     1      -4.771  -7.018   0.119  0.00  0.00    +0.317 C 
ATOM     13  O   UNL     1      -4.768  -8.224   0.275  0.00  0.00    -0.251 OA
ATOM     14  N   UNL     1      -5.934  -6.366  -0.073  0.00  0.00    -0.312 N 
ATOM     15  H   UNL     1      -2.767  -6.809   0.201  0.00  0.00    +0.179 HD
ATOM     16  H   UNL     1      -5.932  -5.416  -0.272  0.00  0.00    +0.147 HD
ATOM     17  H   UNL     1      -6.775  -6.846  -0.013  0.00  0.00    +0.147 HD
ENDBRANCH  10  11
ENDBRANCH   5   9
BRANCH   6  18
ATOM     18  O   UNL     1      -0.117  -2.768   0.035  0.00  0.00    -0.483 OA
BRANCH  18  19
ATOM     19  C   UNL     1       0.402  -3.197   1.296  0.00  0.00    +0.264 C 
BRANCH  19  20
ATOM     20  C   UNL     1       1.765  -3.807   1.097  0.00  0.00    -0.010 A 
ATOM     21  C   UNL     1       1.895  -5.175   0.943  0.00  0.00    +0.008 A 
ATOM     22  C   UNL     1       3.145  -5.734   0.760  0.00  0.00    +0.015 A 
ATOM     23  C   UNL     1       4.267  -4.926   0.732  0.00  0.00    +0.018 A 
ATOM     24  C   UNL     1       4.137  -3.557   0.886  0.00  0.00    +0.015 A 
ATOM     25  C   UNL     1       2.886  -2.998   1.063  0.00  0.00    +0.008 A 
ATOM     26 BR   UNL     1       5.978  -5.691   0.482  0.00  0.00    -0.050 Br
ENDBRANCH  19  20
ENDBRANCH  18  19
ENDBRANCH   6  18
TORSDOF 6
