REMARK  Name = ZINC12665433
REMARK  11 active torsions:
REMARK  status: ('A' for Active; 'I' for Inactive)
REMARK    1  A    between atoms: C_1  and  C_2
REMARK    2  A    between atoms: C_5  and  S_8
REMARK    3  A    between atoms: S_8  and  N_11
REMARK    4  A    between atoms: C_15  and  C_18
REMARK    5  A    between atoms: C_18  and  N_20
REMARK    6  A    between atoms: N_22  and  C_32
REMARK    7  A    between atoms: C_25  and  C_31
REMARK    8  A    between atoms: C_27  and  C_30
REMARK    9  A    between atoms: C_32  and  C_33
REMARK   10  A    between atoms: C_33  and  O_35
REMARK   11  A    between atoms: O_35  and  C_36
REMARK                            x       y       z     vdW  Elec       q    Type
REMARK                         _______ _______ _______ _____ _____    ______ ____
ROOT
ATOM      1  C   UNL     1       0.839   0.998  -3.165  0.00  0.00    +0.243 C 
ATOM      2  O   UNL     1       1.757   0.223  -2.979  0.00  0.00    -0.273 OA
ENDROOT
BRANCH   1   3
ATOM      3  N   UNL     1       0.298   1.109  -4.374  0.00  0.00    -0.156 NA
ATOM      4  C   UNL     1      -0.340   0.073  -4.915  0.00  0.00    +0.167 A 
ATOM      5  N   UNL     1      -0.669  -1.111  -4.335  0.00  0.00    -0.310 N 
ATOM      6  C   UNL     1      -1.342  -2.076  -5.062  0.00  0.00    +0.059 A 
ATOM      7  C   UNL     1      -1.767  -3.345  -4.639  0.00  0.00    +0.030 A 
ATOM      8  C   UNL     1      -2.424  -4.190  -5.503  0.00  0.00    -0.048 A 
ATOM      9  C   UNL     1      -2.687  -3.817  -6.810  0.00  0.00    +0.008 A 
ATOM     10  C   UNL     1      -2.280  -2.571  -7.253  0.00  0.00    -0.034 A 
ATOM     11  C   UNL     1      -1.622  -1.726  -6.391  0.00  0.00    +0.042 A 
ATOM     12  S   UNL     1      -0.943  -0.092  -6.533  0.00  0.00    -0.052 S 
ATOM     13  C   UNL     1      -2.555  -2.143  -8.671  0.00  0.00    +0.045 C 
ATOM     14  C   UNL     1      -2.867  -5.546  -5.017  0.00  0.00    +0.044 C 
BRANCH   5  15
ATOM     15  C   UNL     1      -0.314  -1.364  -2.937  0.00  0.00    +0.244 C 
BRANCH  15  16
ATOM     16  C   UNL     1      -1.466  -2.042  -2.241  0.00  0.00    +0.327 C 
ATOM     17  O   UNL     1      -2.514  -2.198  -2.820  0.00  0.00    -0.249 OA
BRANCH  16  18
ATOM     18  O   UNL     1      -1.326  -2.474  -0.978  0.00  0.00    -0.467 OA
ATOM     19  C   UNL     1      -2.429  -3.232  -0.415  0.00  0.00    +0.280 C 
ENDBRANCH  16  18
ENDBRANCH  15  16
ENDBRANCH   5  15
ENDBRANCH   1   3
BRANCH   1  24
ATOM     20  N   UNL     1       0.543   2.277   0.365  0.00  0.00    -0.176 NA
ATOM     21  C   UNL     1       0.738   3.723   0.191  0.00  0.00    +0.109 C 
ATOM     22  C   UNL     1       0.092   4.155  -1.129  0.00  0.00    +0.018 C 
ATOM     23  C   UNL     1       0.654   3.304  -2.270  0.00  0.00    +0.015 C 
ATOM     24  C   UNL     1       0.314   1.832  -2.025  0.00  0.00    +0.093 C 
ATOM     25  C   UNL     1       0.962   1.373  -0.715  0.00  0.00    +0.122 C 
BRANCH  20  26
ATOM     26  S   UNL     1      -0.140   1.678   1.750  0.00  0.00    +0.061 S 
ATOM     27  O   UNL     1      -0.915   2.729   2.308  0.00  0.00    -0.153 OA
ATOM     28  O   UNL     1      -0.698   0.415   1.413  0.00  0.00    -0.153 OA
BRANCH  26  33
ATOM     29  C   UNL     1       4.351   0.598   5.632  0.00  0.00    +0.044 C 
ATOM     30  C   UNL     1       3.229   0.868   4.662  0.00  0.00    -0.050 A 
ATOM     31  C   UNL     1       2.611   2.104   4.647  0.00  0.00    +0.005 A 
ATOM     32  C   UNL     1       1.582   2.351   3.758  0.00  0.00    +0.029 A 
ATOM     33  C   UNL     1       1.172   1.363   2.883  0.00  0.00    +0.105 A 
ATOM     34  C   UNL     1       1.787   0.125   2.901  0.00  0.00    +0.029 A 
ATOM     35  C   UNL     1       2.819  -0.121   3.788  0.00  0.00    +0.005 A 
ENDBRANCH  26  33
ENDBRANCH  20  26
ENDBRANCH   1  24
TORSDOF 7
