REMARK  Name = ZINC49741097
REMARK  2 active torsions:
REMARK  status: ('A' for Active; 'I' for Inactive)
REMARK    1  A    between atoms: C_6  and  N_7
REMARK    2  A    between atoms: N_10  and  C_11
REMARK                            x       y       z     vdW  Elec       q    Type
REMARK                         _______ _______ _______ _____ _____    ______ ____
ROOT
ATOM      1  C   UNL     1      -2.431  -4.150  -0.167  0.00  0.00    +0.035 A 
ATOM      2  C   UNL     1      -1.224  -4.837  -0.174  0.00  0.00    +0.025 A 
ATOM      3  C   UNL     1      -1.209  -6.216  -0.178  0.00  0.00    +0.025 A 
ATOM      4  C   UNL     1      -2.404  -6.931  -0.173  0.00  0.00    +0.038 A 
ATOM      5  C   UNL     1      -3.609  -6.235  -0.164  0.00  0.00    -0.009 A 
ATOM      6  C   UNL     1      -3.626  -4.859  -0.156  0.00  0.00    +0.029 A 
ATOM      7  C   UNL     1      -4.691  -7.280  -0.157  0.00  0.00    +0.074 C 
ATOM      8  C   UNL     1      -5.598  -7.144  -1.388  0.00  0.00    +0.021 C 
ATOM      9  C   UNL     1      -7.004  -7.534  -0.863  0.00  0.00    +0.001 C 
ATOM     10  C   UNL     1      -7.018  -6.932   0.565  0.00  0.00    +0.001 C 
ATOM     11  C   UNL     1      -5.580  -7.152   1.083  0.00  0.00    +0.021 C 
ATOM     12  C   UNL     1      -3.958  -8.596  -0.168  0.00  0.00    +0.228 C 
ATOM     13  O   UNL     1      -4.457  -9.701  -0.170  0.00  0.00    -0.274 OA
ATOM     14  N   UNL     1      -2.643  -8.309  -0.177  0.00  0.00    -0.284 N 
ATOM     15  H   UNL     1      -1.942  -8.980  -0.185  0.00  0.00    +0.155 HD
ENDROOT
BRANCH   1  19
ATOM     16  N   UNL     1      -1.426  -0.721  -0.714  0.00  0.00    -0.269 N 
ATOM     17  C   UNL     1      -1.474  -2.065  -0.804  0.00  0.00    +0.308 C 
ATOM     18  O   UNL     1      -0.644  -2.661  -1.463  0.00  0.00    -0.252 OA
ATOM     19  N   UNL     1      -2.443  -2.749  -0.163  0.00  0.00    -0.269 N 
ATOM     20  H   UNL     1      -2.042  -0.252  -0.130  0.00  0.00    +0.156 HD
ATOM     21  H   UNL     1      -3.149  -2.271   0.300  0.00  0.00    +0.156 HD
BRANCH  16  27
ATOM     22  C   UNL     1      -0.106  -0.458  -2.720  0.00  0.00    +0.025 A 
ATOM     23  C   UNL     1       0.820   0.253  -3.459  0.00  0.00    +0.022 A 
ATOM     24  C   UNL     1       1.366   1.418  -2.949  0.00  0.00    +0.041 A 
ATOM     25  C   UNL     1       0.987   1.874  -1.699  0.00  0.00    +0.022 A 
ATOM     26  C   UNL     1       0.062   1.166  -0.956  0.00  0.00    +0.025 A 
ATOM     27  C   UNL     1      -0.488  -0.003  -1.465  0.00  0.00    +0.035 A 
ATOM     28 CL   UNL     1       2.529   2.309  -3.880  0.00  0.00    -0.084 Cl
ENDBRANCH  16  27
ENDBRANCH   1  19
TORSDOF 2
