REMARK  Name = ZINC08860078
REMARK  10 active torsions:
REMARK  status: ('A' for Active; 'I' for Inactive)
REMARK    1  A    between atoms: C_1  and  C_2
REMARK    2  A    between atoms: C_2  and  O_3
REMARK    3  A    between atoms: O_3  and  C_4
REMARK    4  A    between atoms: C_4  and  C_6
REMARK    5  A    between atoms: C_10  and  N_11
REMARK    6  A    between atoms: C_12  and  C_14
REMARK    7  A    between atoms: C_25  and  C_31
REMARK    8  A    between atoms: C_25  and  C_32
REMARK    9  A    between atoms: C_27  and  C_29
REMARK   10  A    between atoms: C_27  and  C_30
REMARK                            x       y       z     vdW  Elec       q    Type
REMARK                         _______ _______ _______ _____ _____    ______ ____
ROOT
ATOM      1  C   UNL     1       1.449  -2.344  -2.516  0.00  0.00    +0.091 A 
ATOM      2  C   UNL     1       2.870  -2.610  -2.535  0.00  0.00    -0.024 A 
ATOM      3  C   UNL     1       3.335  -3.109  -3.704  0.00  0.00    -0.016 A 
ATOM      4  S   UNL     1       1.903  -3.227  -4.732  0.00  0.00    -0.079 S 
ATOM      5  C   UNL     1       0.742  -2.622  -3.680  0.00  0.00    +0.086 A 
ATOM      6  C   UNL     1       4.752  -3.458  -4.016  0.00  0.00    -0.041 C 
ATOM      7  N   UNL     1       5.612  -3.390  -2.835  0.00  0.00    +0.389 N 
ATOM      8  C   UNL     1       4.949  -3.459  -1.541  0.00  0.00    -0.069 C 
ATOM      9  C   UNL     1       3.856  -2.393  -1.397  0.00  0.00    +0.024 C 
ATOM     10  C   UNL     1       5.999  -3.209  -0.443  0.00  0.00    -0.010 C 
ATOM     11  C   UNL     1       4.343  -4.844  -1.303  0.00  0.00    -0.010 C 
ATOM     12  C   UNL     1       4.811  -4.861  -4.635  0.00  0.00    -0.005 C 
ATOM     13  C   UNL     1       5.275  -2.457  -5.065  0.00  0.00    -0.005 C 
ATOM     14  H   UNL     1       6.296  -4.148  -2.890  0.00  0.00    -0.084 HD
ATOM     15  H   UNL     1       6.154  -2.525  -2.877  0.00  0.00    -0.084 HD
ENDROOT
BRANCH   5  16
ATOM     16  N   UNL     1      -0.611  -2.437  -3.918  0.00  0.00    -0.276 N 
ATOM     17  C   UNL     1      -1.135  -2.764  -5.116  0.00  0.00    +0.262 C 
ATOM     18  O   UNL     1      -0.424  -3.219  -5.986  0.00  0.00    -0.271 OA
ATOM     19  H   UNL     1      -1.180  -2.073  -3.222  0.00  0.00    +0.155 HD
BRANCH  17  20
ATOM     20  C   UNL     1      -2.607  -2.563  -5.374  0.00  0.00    +0.296 C 
ATOM     21  C   UNL     1      -2.937  -1.064  -5.347  0.00  0.00    +0.283 C 
ATOM     22  O   UNL     1      -4.336  -0.909  -5.609  0.00  0.00    -0.484 OA
ATOM     23  C   UNL     1      -4.846  -1.624  -6.649  0.00  0.00    +0.162 A 
ATOM     24  C   UNL     1      -6.073  -1.264  -7.186  0.00  0.00    +0.049 A 
ATOM     25  C   UNL     1      -6.606  -1.982  -8.239  0.00  0.00    +0.004 A 
ATOM     26  C   UNL     1      -5.918  -3.062  -8.760  0.00  0.00    +0.004 A 
ATOM     27  C   UNL     1      -4.694  -3.426  -8.231  0.00  0.00    +0.049 A 
ATOM     28  C   UNL     1      -4.153  -2.708  -7.174  0.00  0.00    +0.163 A 
ATOM     29  O   UNL     1      -2.943  -3.074  -6.668  0.00  0.00    -0.473 OA
ENDBRANCH  17  20
ENDBRANCH   5  16
BRANCH   1  30
ATOM     30  C   UNL     1       0.776  -1.800  -1.335  0.00  0.00    +0.342 C 
ATOM     31  O   UNL     1       0.312  -2.552  -0.499  0.00  0.00    -0.245 OA
BRANCH  30  32
ATOM     32  O   UNL     1       0.671  -0.465  -1.174  0.00  0.00    -0.461 OA
BRANCH  32  34
ATOM     33  C   UNL     1      -0.019   1.526   0.010  0.00  0.00    +0.048 C 
ATOM     34  C   UNL     1       0.002  -0.004   0.002  0.00  0.00    +0.229 C 
ENDBRANCH  32  34
ENDBRANCH  30  32
ENDBRANCH   1  30
TORSDOF 5
