REMARK  Name = ZINC17656002
REMARK  12 active torsions:
REMARK  status: ('A' for Active; 'I' for Inactive)
REMARK    1  A    between atoms: C_1  and  C_2
REMARK    2  A    between atoms: C_2  and  C_3
REMARK    3  A    between atoms: C_3  and  C_31
REMARK    4  A    between atoms: N_6  and  C_10
REMARK    5  A    between atoms: C_10  and  C_11
REMARK    6  A    between atoms: N_13  and  C_14
REMARK    7  A    between atoms: C_14  and  C_15
REMARK    8  A    between atoms: C_14  and  C_23
REMARK    9  A    between atoms: C_18  and  O_21
REMARK   10  A    between atoms: O_21  and  C_22
REMARK   11  A    between atoms: C_26  and  O_29
REMARK   12  A    between atoms: O_29  and  C_30
REMARK                            x       y       z     vdW  Elec       q    Type
REMARK                         _______ _______ _______ _____ _____    ______ ____
ROOT
ATOM      1  C   UNL     1      -1.652   2.419   1.444  0.00  0.00    +0.232 C 
ATOM      2  O   UNL     1      -0.989   1.980   2.360  0.00  0.00    -0.274 OA
ATOM      3  N   UNL     1      -2.757   3.147   1.700  0.00  0.00    -0.303 N 
ATOM      4  H   UNL     1      -3.287   3.498   0.967  0.00  0.00    +0.150 HD
ENDROOT
BRANCH   1   5
ATOM      5  C   UNL     1      -1.239   2.150   0.020  0.00  0.00    +0.213 C 
BRANCH   5   9
ATOM      6  C   UNL     1       1.467  -0.394  -0.014  0.00  0.00    +0.138 C 
ATOM      7  C   UNL     1       0.002  -0.004   0.002  0.00  0.00    +0.251 C 
ATOM      8  O   UNL     1      -0.954  -0.749   0.008  0.00  0.00    -0.272 OA
ATOM      9  N   UNL     1      -0.016   1.343   0.009  0.00  0.00    -0.215 N 
ATOM     10  C   UNL     1       1.220   1.854   0.000  0.00  0.00    +0.310 C 
ATOM     11  O   UNL     1       1.460   3.045   0.005  0.00  0.00    -0.252 OA
ATOM     12  N   UNL     1       2.170   0.901  -0.014  0.00  0.00    -0.281 N 
ATOM     13  H   UNL     1       3.130   1.039  -0.022  0.00  0.00    +0.152 HD
BRANCH   6  14
ATOM     14  C   UNL     1       1.793  -1.178  -1.259  0.00  0.00    -0.015 A 
ATOM     15  C   UNL     1       1.698  -2.557  -1.252  0.00  0.00    +0.006 A 
ATOM     16  C   UNL     1       1.992  -3.276  -2.396  0.00  0.00    +0.000 A 
ATOM     17  C   UNL     1       2.392  -2.616  -3.543  0.00  0.00    +0.000 A 
ATOM     18  C   UNL     1       2.493  -1.238  -3.548  0.00  0.00    +0.000 A 
ATOM     19  C   UNL     1       2.194  -0.518  -2.406  0.00  0.00    +0.006 A 
ENDBRANCH   6  14
BRANCH   6  21
ATOM     20  C   UNL     1       1.532  -0.362   2.483  0.00  0.00    +0.007 C 
ATOM     21  C   UNL     1       1.823  -1.200   1.237  0.00  0.00    +0.037 C 
ENDBRANCH   6  21
ENDBRANCH   5   9
ENDBRANCH   1   5
BRANCH   3  22
ATOM     22  C   UNL     1      -3.158   3.408   3.084  0.00  0.00    +0.134 C 
BRANCH  22  23
ATOM     23  C   UNL     1      -3.980   4.670   3.139  0.00  0.00    -0.023 A 
ATOM     24  C   UNL     1      -4.904   4.935   2.146  0.00  0.00    +0.009 A 
ATOM     25  C   UNL     1      -5.664   6.088   2.197  0.00  0.00    +0.046 A 
ATOM     26  C   UNL     1      -5.490   6.986   3.241  0.00  0.00    +0.120 A 
ATOM     27  C   UNL     1      -4.558   6.720   4.233  0.00  0.00    +0.046 A 
ATOM     28  C   UNL     1      -3.805   5.562   4.181  0.00  0.00    +0.009 A 
BRANCH  26  29
ATOM     29  O   UNL     1      -6.231   8.124   3.290  0.00  0.00    -0.495 OA
ATOM     30  C   UNL     1      -7.171   8.332   2.234  0.00  0.00    +0.277 C 
ENDBRANCH  26  29
ENDBRANCH  22  23
BRANCH  22  31
ATOM     31  C   UNL     1      -3.977   2.252   3.597  0.00  0.00    -0.023 A 
ATOM     32  C   UNL     1      -4.908   1.646   2.773  0.00  0.00    +0.009 A 
ATOM     33  C   UNL     1      -5.656   0.582   3.239  0.00  0.00    +0.046 A 
ATOM     34  C   UNL     1      -5.480   0.129   4.538  0.00  0.00    +0.120 A 
ATOM     35  C   UNL     1      -4.550   0.741   5.364  0.00  0.00    +0.046 A 
ATOM     36  C   UNL     1      -3.800   1.801   4.892  0.00  0.00    +0.009 A 
BRANCH  34  37
ATOM     37  O   UNL     1      -6.220  -0.914   5.001  0.00  0.00    -0.495 OA
ATOM     38  C   UNL     1      -7.159  -1.496   4.094  0.00  0.00    +0.277 C 
ENDBRANCH  34  37
ENDBRANCH  22  31
ENDBRANCH   3  22
TORSDOF 9
