REMARK  Name = ZINC64653788
REMARK  4 active torsions:
REMARK  status: ('A' for Active; 'I' for Inactive)
REMARK    1  A    between atoms: C_4  and  C_7
REMARK    2  A    between atoms: N_20  and  C_21
REMARK    3  A    between atoms: C_21  and  C_22
REMARK    4  A    between atoms: C_22  and  C_23
REMARK                            x       y       z     vdW  Elec       q    Type
REMARK                         _______ _______ _______ _____ _____    ______ ____
ROOT
ATOM      1  C   UNL     1       3.697  -0.686  -0.038  0.00  0.00    +0.139 A 
ATOM      2  C   UNL     1       3.967  -1.900   0.597  0.00  0.00    +0.186 A 
ATOM      3  N   UNL     1       3.209  -2.712   1.348  0.00  0.00    -0.210 NA
ATOM      4  C   UNL     1       3.678  -3.832   1.857  0.00  0.00    +0.130 A 
ATOM      5  C   UNL     1       5.076  -4.203   1.594  0.00  0.00    +0.040 A 
ATOM      6  C   UNL     1       5.632  -5.376   2.104  0.00  0.00    +0.013 A 
ATOM      7  C   UNL     1       6.947  -5.680   1.828  0.00  0.00    +0.001 A 
ATOM      8  C   UNL     1       7.718  -4.828   1.050  0.00  0.00    +0.002 A 
ATOM      9  C   UNL     1       7.181  -3.664   0.539  0.00  0.00    +0.028 A 
ATOM     10  C   UNL     1       5.859  -3.341   0.804  0.00  0.00    +0.080 A 
ATOM     11  N   UNL     1       5.277  -2.186   0.313  0.00  0.00    -0.193 N 
ATOM     12  N   UNL     1       5.755  -1.138  -0.482  0.00  0.00    -0.058 NA
ATOM     13  N   UNL     1       4.806  -0.289  -0.669  0.00  0.00    -0.127 NA
ATOM     14  N   UNL     1       2.871  -4.644   2.626  0.00  0.00    -0.328 N 
ATOM     15  H   UNL     1       3.224  -5.467   2.997  0.00  0.00    +0.147 HD
ENDROOT
BRANCH   1  19
ATOM     16  C   UNL     1      -0.017   1.379   0.010  0.00  0.00    +0.000 A 
ATOM     17  C   UNL     1       1.169   2.093   0.002  0.00  0.00    +0.001 A 
ATOM     18  C   UNL     1       2.377   1.428  -0.013  0.00  0.00    +0.010 A 
ATOM     19  C   UNL     1       2.403   0.034  -0.021  0.00  0.00    +0.006 A 
ATOM     20  C   UNL     1       1.204  -0.680  -0.013  0.00  0.00    +0.010 A 
ATOM     21  C   UNL     1       0.002  -0.004   0.002  0.00  0.00    +0.001 A 
ENDBRANCH   1  19
BRANCH  14  22
ATOM     22  C   UNL     1       1.480  -4.263   2.881  0.00  0.00    +0.107 C 
BRANCH  22  23
ATOM     23  C   UNL     1       0.811  -5.327   3.753  0.00  0.00    +0.052 C 
BRANCH  23  24
ATOM     24  C   UNL     1      -0.620  -4.936   4.017  0.00  0.00    -0.040 C 
ATOM     25  C   UNL     1      -1.713  -5.338   3.329  0.00  0.00    -0.001 A 
ATOM     26  C   UNL     1      -1.889  -6.225   2.173  0.00  0.00    +0.010 A 
ATOM     27  C   UNL     1      -3.136  -6.441   1.696  0.00  0.00    +0.001 A 
ATOM     28  C   UNL     1      -4.261  -5.838   2.275  0.00  0.00    +0.002 A 
ATOM     29  C   UNL     1      -4.179  -5.011   3.339  0.00  0.00    +0.026 A 
ATOM     30  C   UNL     1      -2.917  -4.714   3.923  0.00  0.00    +0.043 A 
ATOM     31  N   UNL     1      -2.582  -3.956   4.938  0.00  0.00    -0.380 N 
ATOM     32  C   UNL     1      -1.125  -4.018   5.107  0.00  0.00    +0.144 C 
ATOM     33  H   UNL     1      -3.194  -3.444   5.489  0.00  0.00    +0.160 HD
ENDBRANCH  23  24
ENDBRANCH  22  23
ENDBRANCH  14  22
TORSDOF 4
