REMARK  Name = ZINC02381356
REMARK  5 active torsions:
REMARK  status: ('A' for Active; 'I' for Inactive)
REMARK    1  A    between atoms: C_10  and  N_11
REMARK    2  A    between atoms: C_12  and  C_14
REMARK    3  A    between atoms: N_16  and  N_17
REMARK    4  A    between atoms: C_18  and  C_19
REMARK    5  A    between atoms: C_28  and  O_29
REMARK                            x       y       z     vdW  Elec       q    Type
REMARK                         _______ _______ _______ _____ _____    ______ ____
ROOT
ATOM      1  C   UNL     1       7.318   0.210   0.146  0.00  0.00    +0.318 C 
ATOM      2  O   UNL     1       7.297   1.424   0.153  0.00  0.00    -0.263 OA
ATOM      3  N   UNL     1       8.494  -0.444   0.234  0.00  0.00    -0.199 N 
ATOM      4  H   UNL     1       8.511  -1.414   0.229  0.00  0.00    +0.178 HD
ENDROOT
BRANCH   1   6
ATOM      5  N   UNL     1       4.870   0.096  -0.044  0.00  0.00    -0.277 N 
ATOM      6  C   UNL     1       6.045  -0.557   0.043  0.00  0.00    +0.305 C 
ATOM      7  O   UNL     1       6.066  -1.772   0.036  0.00  0.00    -0.265 OA
ATOM      8  H   UNL     1       4.857   1.063  -0.120  0.00  0.00    +0.155 HD
BRANCH   5  18
ATOM      9  C   UNL     1       0.203   0.948  -1.764  0.00  0.00    +0.001 A 
ATOM     10  C   UNL     1       1.389   1.677  -1.794  0.00  0.00    +0.001 A 
ATOM     11  C   UNL     1       2.528   1.185  -1.234  0.00  0.00    +0.010 A 
ATOM     12  C   UNL     1       2.511  -0.075  -0.617  0.00  0.00    +0.003 A 
ATOM     13  C   UNL     1       1.305  -0.818  -0.586  0.00  0.00    -0.016 A 
ATOM     14  C   UNL     1       0.149  -0.278  -1.175  0.00  0.00    +0.008 A 
ATOM     15  C   UNL     1       1.286  -2.080   0.033  0.00  0.00    +0.008 A 
ATOM     16  C   UNL     1       2.421  -2.579   0.596  0.00  0.00    +0.002 A 
ATOM     17  C   UNL     1       3.611  -1.858   0.572  0.00  0.00    +0.024 A 
ATOM     18  C   UNL     1       3.672  -0.617  -0.026  0.00  0.00    +0.042 A 
ENDBRANCH   5  18
ENDBRANCH   1   6
BRANCH   3  19
ATOM     19  N   UNL     1       9.691   0.277   0.331  0.00  0.00    -0.187 NA
ATOM     20  C   UNL     1      10.826  -0.354   0.415  0.00  0.00    +0.142 C 
BRANCH  20  21
ATOM     21  C   UNL     1      12.080   0.402   0.518  0.00  0.00    +0.044 A 
ATOM     22  C   UNL     1      13.365  -0.291   0.607  0.00  0.00    -0.006 A 
ATOM     23  C   UNL     1      13.443  -1.689   0.597  0.00  0.00    +0.009 A 
ATOM     24  C   UNL     1      14.661  -2.296   0.682  0.00  0.00    +0.001 A 
ATOM     25  C   UNL     1      15.829  -1.545   0.778  0.00  0.00    +0.001 A 
ATOM     26  C   UNL     1      15.789  -0.184   0.790  0.00  0.00    +0.008 A 
ATOM     27  C   UNL     1      14.551   0.476   0.704  0.00  0.00    -0.017 A 
ATOM     28  C   UNL     1      14.471   1.880   0.713  0.00  0.00    +0.012 A 
ATOM     29  C   UNL     1      13.268   2.508   0.628  0.00  0.00    +0.046 A 
ATOM     30  C   UNL     1      12.073   1.797   0.526  0.00  0.00    +0.126 A 
BRANCH  30  31
ATOM     31  O   UNL     1      10.896   2.467   0.438  0.00  0.00    -0.506 OA
ATOM     32  H   UNL     1      10.486   2.655   1.294  0.00  0.00    +0.292 HD
ENDBRANCH  30  31
ENDBRANCH  20  21
ENDBRANCH   3  19
TORSDOF 5
