REMARK  Name = ZINC10490994
REMARK  8 active torsions:
REMARK  status: ('A' for Active; 'I' for Inactive)
REMARK    1  A    between atoms: C_9  and  C_12
REMARK    2  A    between atoms: C_10  and  O_11
REMARK    3  A    between atoms: C_12  and  O_14
REMARK    4  A    between atoms: O_14  and  C_15
REMARK    5  A    between atoms: C_15  and  C_16
REMARK    6  A    between atoms: N_18  and  C_19
REMARK    7  A    between atoms: C_23  and  S_25
REMARK    8  A    between atoms: S_25  and  N_28
REMARK                            x       y       z     vdW  Elec       q    Type
REMARK                         _______ _______ _______ _____ _____    ______ ____
ROOT
ATOM      1  C   UNL     1       3.474  10.369  -0.703  0.00  0.00    +0.255 C 
ATOM      2  O   UNL     1       4.353   9.856  -1.364  0.00  0.00    -0.272 OA
ATOM      3  N   UNL     1       3.735  11.473   0.025  0.00  0.00    -0.283 N 
ATOM      4  H   UNL     1       3.016  11.927   0.491  0.00  0.00    +0.155 HD
ENDROOT
BRANCH   3   5
ATOM      5  C   UNL     1       5.043  11.963   0.107  0.00  0.00    +0.035 A 
ATOM      6  C   UNL     1       6.118  11.085   0.090  0.00  0.00    +0.023 A 
ATOM      7  C   UNL     1       7.408  11.572   0.166  0.00  0.00    +0.004 A 
ATOM      8  C   UNL     1       7.629  12.934   0.270  0.00  0.00    +0.029 A 
ATOM      9  C   UNL     1       6.560  13.811   0.292  0.00  0.00    +0.114 A 
ATOM     10  C   UNL     1       5.268  13.329   0.211  0.00  0.00    +0.052 A 
BRANCH   9  11
ATOM     11  S   UNL     1       6.847  15.544   0.425  0.00  0.00    +0.100 S 
ATOM     12  O   UNL     1       8.161  15.777  -0.063  0.00  0.00    -0.146 OA
ATOM     13  O   UNL     1       5.705  16.188  -0.124  0.00  0.00    -0.146 OA
BRANCH  11  14
ATOM     14  N   UNL     1       6.869  15.915   2.039  0.00  0.00    -0.118 NA
ATOM     15  C   UNL     1       7.064  17.135   2.419  0.00  0.00    +0.117 C 
ATOM     16  C   UNL     1       7.280  18.235   1.383  0.00  0.00    +0.073 C 
ATOM     17  C   UNL     1       6.050  19.126   1.417  0.00  0.00    +0.008 C 
ATOM     18  C   UNL     1       6.150  20.262   2.436  0.00  0.00    +0.002 C 
ATOM     19  C   UNL     1       6.737  19.815   3.776  0.00  0.00    +0.019 C 
ATOM     20  C   UNL     1       6.195  18.485   4.251  0.00  0.00    +0.102 C 
ATOM     21  N   UNL     1       7.082  17.433   3.704  0.00  0.00    -0.331 N 
ATOM     22  H   UNL     1       7.683  16.956   4.297  0.00  0.00    +0.147 HD
ENDBRANCH  11  14
ENDBRANCH   9  11
ENDBRANCH   3   5
BRANCH   1  23
ATOM     23  C   UNL     1       2.091   9.771  -0.697  0.00  0.00    +0.328 C 
BRANCH  23  24
ATOM     24  O   UNL     1       2.066   8.598  -1.552  0.00  0.00    -0.452 OA
BRANCH  24  25
ATOM     25  C   UNL     1       0.893   7.942  -1.657  0.00  0.00    +0.343 C 
ATOM     26  O   UNL     1      -0.082   8.340  -1.050  0.00  0.00    -0.245 OA
BRANCH  25  35
ATOM     27  C   UNL     1      -0.624   2.673  -5.045  0.00  0.00    +0.001 A 
ATOM     28  C   UNL     1      -1.756   3.112  -4.364  0.00  0.00    +0.001 A 
ATOM     29  C   UNL     1      -1.708   4.213  -3.563  0.00  0.00    +0.012 A 
ATOM     30  C   UNL     1      -0.503   4.922  -3.428  0.00  0.00    +0.024 A 
ATOM     31  C   UNL     1       0.647   4.479  -4.125  0.00  0.00    -0.014 A 
ATOM     32  C   UNL     1       0.561   3.337  -4.938  0.00  0.00    +0.008 A 
ATOM     33  C   UNL     1       1.859   5.186  -3.995  0.00  0.00    +0.009 A 
ATOM     34  C   UNL     1       1.925   6.287  -3.207  0.00  0.00    +0.019 A 
ATOM     35  C   UNL     1       0.794   6.744  -2.506  0.00  0.00    +0.101 A 
ATOM     36  C   UNL     1      -0.421   6.068  -2.612  0.00  0.00    +0.138 A 
BRANCH  36  37
ATOM     37  O   UNL     1      -1.510   6.508  -1.937  0.00  0.00    -0.505 OA
ATOM     38  H   UNL     1      -1.605   6.130  -1.053  0.00  0.00    +0.292 HD
ENDBRANCH  36  37
ENDBRANCH  25  35
ENDBRANCH  24  25
ENDBRANCH  23  24
ENDBRANCH   1  23
TORSDOF 8
