REMARK  Name = ZINC22148600
REMARK  9 active torsions:
REMARK  status: ('A' for Active; 'I' for Inactive)
REMARK    1  A    between atoms: C_1  and  C_2
REMARK    2  A    between atoms: C_15  and  C_17
REMARK    3  A    between atoms: C_17  and  C_19
REMARK    4  A    between atoms: C_17  and  S_20
REMARK    5  A    between atoms: S_20  and  C_21
REMARK    6  A    between atoms: C_24  and  C_27
REMARK    7  A    between atoms: N_25  and  N_26
REMARK    8  A    between atoms: C_32  and  O_33
REMARK    9  A    between atoms: O_33  and  C_34
REMARK                            x       y       z     vdW  Elec       q    Type
REMARK                         _______ _______ _______ _____ _____    ______ ____
ROOT
ATOM      1  C   UNL     1       2.256  -8.147   0.770  0.00  0.00    +0.117 C 
ATOM      2  C   UNL     1       1.107  -8.922   1.417  0.00  0.00    +0.027 C 
ENDROOT
BRANCH   1  16
ATOM      3  C   UNL     1      -0.488   1.380  -0.150  0.00  0.00    +0.008 C 
ATOM      4  C   UNL     1      -0.411  -0.147  -0.096  0.00  0.00    -0.009 C 
ATOM      5  C   UNL     1       0.199  -0.677  -1.397  0.00  0.00    +0.008 C 
ATOM      6  C   UNL     1       0.052  -2.198  -1.458  0.00  0.00    +0.037 C 
ATOM      7  C   UNL     1       0.621  -2.801  -0.176  0.00  0.00    -0.023 A 
ATOM      8  C   UNL     1       0.793  -2.034   0.927  0.00  0.00    -0.004 A 
ATOM      9  S   UNL     1       1.465  -3.128   2.153  0.00  0.00    -0.073 S 
ATOM     10  C   UNL     1       1.514  -4.605   1.188  0.00  0.00    +0.116 A 
ATOM     11  C   UNL     1       1.003  -4.197  -0.064  0.00  0.00    +0.075 A 
ATOM     12  C   UNL     1       0.915  -5.197  -1.090  0.00  0.00    +0.260 A 
ATOM     13  O   UNL     1       0.488  -4.948  -2.204  0.00  0.00    -0.267 OA
ATOM     14  N   UNL     1       1.337  -6.436  -0.740  0.00  0.00    -0.309 N 
ATOM     15  H   UNL     1       1.295  -7.143  -1.403  0.00  0.00    +0.170 HD
ATOM     16  C   UNL     1       1.815  -6.733   0.492  0.00  0.00    +0.124 A 
ATOM     17  N   UNL     1       1.910  -5.845   1.457  0.00  0.00    -0.225 NA
ATOM     18  C   UNL     1       0.479  -0.577   1.079  0.00  0.00    +0.046 C 
ENDBRANCH   1  16
BRANCH   1  19
ATOM     19  S   UNL     1       2.726  -8.951  -0.787  0.00  0.00    -0.074 S 
BRANCH  19  20
ATOM     20  C   UNL     1       3.350 -10.520  -0.285  0.00  0.00    +0.209 A 
ATOM     21  N   UNL     1       3.432 -10.969   0.947  0.00  0.00    -0.121 NA
ATOM     22  N   UNL     1       3.934 -12.152   0.954  0.00  0.00    -0.127 NA
ATOM     23  C   UNL     1       4.205 -12.531  -0.273  0.00  0.00    +0.185 A 
ATOM     24  N   UNL     1       3.834 -11.500  -1.105  0.00  0.00    -0.224 N 
BRANCH  23  25
ATOM     25  C   UNL     1       4.792 -13.824  -0.684  0.00  0.00    +0.062 A 
ATOM     26  C   UNL     1       5.847 -13.856  -1.596  0.00  0.00    +0.015 A 
ATOM     27  C   UNL     1       6.391 -15.066  -1.975  0.00  0.00    +0.001 A 
ATOM     28  C   UNL     1       5.894 -16.248  -1.455  0.00  0.00    +0.004 A 
ATOM     29  C   UNL     1       4.848 -16.229  -0.552  0.00  0.00    +0.046 A 
ATOM     30  C   UNL     1       4.295 -15.021  -0.155  0.00  0.00    +0.131 A 
BRANCH  30  31
ATOM     31  O   UNL     1       3.272 -15.001   0.738  0.00  0.00    -0.494 OA
ATOM     32  C   UNL     1       2.818 -16.262   1.234  0.00  0.00    +0.277 C 
ENDBRANCH  30  31
ENDBRANCH  23  25
BRANCH  24  33
ATOM     33  N   UNL     1       3.931 -11.463  -2.467  0.00  0.00    -0.295 N 
ATOM     34  H   UNL     1       4.852 -11.167  -2.756  0.00  0.00    +0.163 HD
ATOM     35  H   UNL     1       3.696 -12.357  -2.872  0.00  0.00    +0.163 HD
ENDBRANCH  24  33
ENDBRANCH  19  20
ENDBRANCH   1  19
TORSDOF 6
