REMARK  Name = ZINC00707850
REMARK  4 active torsions:
REMARK  status: ('A' for Active; 'I' for Inactive)
REMARK    1  A    between atoms: C_1  and  O_2
REMARK    2  A    between atoms: O_2  and  C_3
REMARK    3  A    between atoms: C_6  and  N_9
REMARK    4  A    between atoms: C_10  and  C_21
REMARK                            x       y       z     vdW  Elec       q    Type
REMARK                         _______ _______ _______ _____ _____    ______ ____
ROOT
ATOM      1  N   UNL     1       3.461   3.476  -0.698  0.00  0.00    -0.244 N 
ATOM      2  C   UNL     1       3.600   2.180  -0.034  0.00  0.00    +0.198 C 
ATOM      3  N   UNL     1       4.636   1.380  -0.696  0.00  0.00    -0.321 N 
ATOM      4  C   UNL     1       4.674   1.353  -2.086  0.00  0.00    +0.041 A 
ATOM      5  C   UNL     1       5.164   0.259  -2.780  0.00  0.00    +0.024 A 
ATOM      6  C   UNL     1       5.191   0.282  -4.161  0.00  0.00    +0.002 A 
ATOM      7  C   UNL     1       4.734   1.390  -4.857  0.00  0.00    +0.001 A 
ATOM      8  C   UNL     1       4.238   2.486  -4.181  0.00  0.00    +0.015 A 
ATOM      9  C   UNL     1       4.201   2.474  -2.788  0.00  0.00    +0.058 A 
ATOM     10  C   UNL     1       3.659   3.610  -2.021  0.00  0.00    +0.254 C 
ATOM     11  O   UNL     1       3.394   4.657  -2.580  0.00  0.00    -0.270 OA
ATOM     12  H   UNL     1       5.283   0.880  -0.175  0.00  0.00    +0.148 HD
ENDROOT
BRANCH   2  13
ATOM     13  C   UNL     1       2.286   1.444  -0.096  0.00  0.00    -0.005 A 
ATOM     14  C   UNL     1       1.099   2.152  -0.124  0.00  0.00    +0.011 A 
ATOM     15  C   UNL     1      -0.108   1.481  -0.182  0.00  0.00    +0.050 A 
ATOM     16  C   UNL     1      -0.131   0.096  -0.209  0.00  0.00    +0.166 A 
ATOM     17  C   UNL     1       1.065  -0.617  -0.179  0.00  0.00    +0.167 A 
ATOM     18  C   UNL     1       2.271   0.062  -0.122  0.00  0.00    +0.056 A 
ATOM     19  O   UNL     1       0.777  -1.951  -0.215  0.00  0.00    -0.453 OA
ATOM     20  C   UNL     1      -0.583  -2.039  -0.679  0.00  0.00    +0.466 C 
ATOM     21  O   UNL     1      -1.167  -0.791  -0.264  0.00  0.00    -0.453 OA
ENDBRANCH   2  13
BRANCH   1  25
ATOM     22  C   UNL     1       2.422   6.829   1.550  0.00  0.00    +0.120 A 
ATOM     23  C   UNL     1       3.564   6.109   1.867  0.00  0.00    +0.047 A 
ATOM     24  C   UNL     1       3.909   4.998   1.123  0.00  0.00    +0.027 A 
ATOM     25  C   UNL     1       3.111   4.602   0.057  0.00  0.00    +0.039 A 
ATOM     26  C   UNL     1       1.971   5.327  -0.263  0.00  0.00    +0.027 A 
ATOM     27  C   UNL     1       1.625   6.435   0.486  0.00  0.00    +0.047 A 
BRANCH  22  29
ATOM     28  C   UNL     1       0.894   8.618   1.901  0.00  0.00    +0.277 C 
ATOM     29  O   UNL     1       2.083   7.924   2.283  0.00  0.00    -0.495 OA
ENDBRANCH  22  29
ENDBRANCH   1  25
TORSDOF 3
