REMARK  Name = ZINC02546700
REMARK  4 active torsions:
REMARK  status: ('A' for Active; 'I' for Inactive)
REMARK    1  A    between atoms: C_3  and  O_22
REMARK    2  A    between atoms: C_6  and  C_7
REMARK    3  A    between atoms: N_8  and  N_9
REMARK    4  A    between atoms: C_10  and  C_15
REMARK                            x       y       z     vdW  Elec       q    Type
REMARK                         _______ _______ _______ _____ _____    ______ ____
ROOT
ATOM      1  N   UNL     1      -4.837   0.931   0.031  0.00  0.00    -0.186 N 
ATOM      2  C   UNL     1      -5.528   0.513   1.152  0.00  0.00    +0.186 A 
ATOM      3  N   UNL     1      -6.601  -0.119   0.765  0.00  0.00    -0.126 NA
ATOM      4  N   UNL     1      -6.622  -0.120  -0.636  0.00  0.00    -0.119 NA
ATOM      5  C   UNL     1      -5.525   0.540  -1.060  0.00  0.00    +0.223 A 
ATOM      6  S   UNL     1      -5.083   0.825  -2.689  0.00  0.00    -0.007 SA
ENDROOT
BRANCH   2   7
ATOM      7  C   UNL     1      -5.120   0.744   2.555  0.00  0.00    +0.021 A 
ATOM      8  C   UNL     1      -3.816   1.144   2.848  0.00  0.00    +0.013 A 
ATOM      9  C   UNL     1      -3.442   1.362   4.158  0.00  0.00    +0.016 A 
ATOM     10  C   UNL     1      -4.355   1.175   5.182  0.00  0.00    +0.018 A 
ATOM     11  C   UNL     1      -5.649   0.772   4.897  0.00  0.00    +0.016 A 
ATOM     12  C   UNL     1      -6.035   0.556   3.591  0.00  0.00    +0.013 A 
ATOM     13 BR   UNL     1      -3.833   1.468   6.975  0.00  0.00    -0.050 Br
ENDBRANCH   2   7
BRANCH   1  15
ATOM     14  C   UNL     1      -2.500   1.008   0.020  0.00  0.00    +0.141 C 
ATOM     15  N   UNL     1      -3.631   1.645   0.029  0.00  0.00    -0.170 NA
BRANCH  14  21
ATOM     16  C   UNL     1      -0.013   1.076   0.008  0.00  0.00    +0.013 A 
ATOM     17  C   UNL     1       1.171   1.782   0.001  0.00  0.00    +0.046 A 
ATOM     18  C   UNL     1       1.153   3.171   0.008  0.00  0.00    +0.117 A 
ATOM     19  C   UNL     1      -0.056   3.854   0.022  0.00  0.00    +0.046 A 
ATOM     20  C   UNL     1      -1.244   3.157   0.030  0.00  0.00    +0.013 A 
ATOM     21  C   UNL     1      -1.232   1.759   0.017  0.00  0.00    -0.005 A 
BRANCH  18  22
ATOM     22  O   UNL     1       2.322   3.863   0.000  0.00  0.00    -0.507 OA
ATOM     23  H   UNL     1       2.310   4.963   0.006  0.00  0.00    +0.292 HD
ENDBRANCH  18  22
ENDBRANCH  14  21
ENDBRANCH   1  15
TORSDOF 4
