REMARK  Name = ZINC12498055
REMARK  10 active torsions:
REMARK  status: ('A' for Active; 'I' for Inactive)
REMARK    1  A    between atoms: C_1  and  C_2
REMARK    2  A    between atoms: C_7  and  C_8
REMARK    3  A    between atoms: N_16  and  C_19
REMARK    4  A    between atoms: C_29  and  C_30
REMARK    5  A    between atoms: C_29  and  C_34
REMARK    6  A    between atoms: C_30  and  C_31
REMARK    7  A    between atoms: C_31  and  S_32
REMARK    8  A    between atoms: S_32  and  C_33
REMARK    9  A    between atoms: C_34  and  O_36
REMARK   10  A    between atoms: O_36  and  C_37
REMARK                            x       y       z     vdW  Elec       q    Type
REMARK                         _______ _______ _______ _____ _____    ______ ____
ROOT
ATOM      1  C   UNL     1       2.431   3.951   0.120  0.00  0.00    -0.026 C 
ATOM      2  C   UNL     1       2.919   4.189   1.503  0.00  0.00    +0.077 C 
ATOM      3  C   UNL     1       3.679   2.835   1.794  0.00  0.00    +0.086 C 
ATOM      4  C   UNL     1       4.154   3.166   3.155  0.00  0.00    +0.229 C 
ATOM      5  O   UNL     1       5.208   2.851   3.664  0.00  0.00    -0.275 OA
ATOM      6  N   UNL     1       3.147   3.906   3.719  0.00  0.00    -0.210 N 
ATOM      7  C   UNL     1       2.253   4.373   2.789  0.00  0.00    +0.229 C 
ATOM      8  O   UNL     1       1.151   4.836   2.991  0.00  0.00    -0.275 OA
ATOM      9  C   UNL     1       4.514   2.792   0.537  0.00  0.00    +0.044 C 
ATOM     10  N   UNL     1       3.513   3.145  -0.514  0.00  0.00    +0.395 N 
ATOM     11  H   UNL     1       3.966   3.693  -1.255  0.00  0.00    -0.083 HD
ATOM     12  H   UNL     1       3.116   2.288  -0.917  0.00  0.00    -0.083 HD
ENDROOT
BRANCH   6  13
ATOM     13  C   UNL     1       3.043   4.157   5.096  0.00  0.00    +0.048 A 
ATOM     14  C   UNL     1       3.992   3.646   5.970  0.00  0.00    +0.028 A 
ATOM     15  C   UNL     1       3.890   3.893   7.325  0.00  0.00    +0.051 A 
ATOM     16  C   UNL     1       2.838   4.652   7.817  0.00  0.00    +0.162 A 
ATOM     17  C   UNL     1       1.887   5.167   6.944  0.00  0.00    +0.164 A 
ATOM     18  C   UNL     1       1.993   4.922   5.584  0.00  0.00    +0.073 A 
ATOM     19  O   UNL     1       0.850   5.917   7.408  0.00  0.00    -0.485 OA
ATOM     20  C   UNL     1       0.571   5.832   8.810  0.00  0.00    +0.270 C 
ATOM     21  C   UNL     1       1.897   5.952   9.572  0.00  0.00    +0.270 C 
ATOM     22  O   UNL     1       2.752   4.881   9.156  0.00  0.00    -0.485 OA
ENDBRANCH   6  13
BRANCH   1  29
ATOM     23  C   UNL     1      -0.089   5.353   0.299  0.00  0.00    +0.044 C 
ATOM     24  C   UNL     1      -0.067   3.847   0.231  0.00  0.00    -0.049 A 
ATOM     25  C   UNL     1      -1.253   3.137   0.253  0.00  0.00    +0.003 A 
ATOM     26  C   UNL     1      -1.233   1.757   0.186  0.00  0.00    +0.000 A 
ATOM     27  C   UNL     1      -0.027   1.086   0.106  0.00  0.00    +0.000 A 
ATOM     28  C   UNL     1       1.159   1.796   0.083  0.00  0.00    +0.002 A 
ATOM     29  C   UNL     1       1.139   3.177   0.145  0.00  0.00    -0.058 A 
ENDBRANCH   1  29
BRANCH   9  30
ATOM     30  C   UNL     1       5.075   1.411   0.313  0.00  0.00    +0.297 C 
ATOM     31  O   UNL     1       5.325   0.700   1.257  0.00  0.00    -0.252 OA
BRANCH  30  32
ATOM     32  O   UNL     1       5.296   0.970  -0.936  0.00  0.00    -0.469 OA
ATOM     33  C   UNL     1       5.837  -0.370  -1.076  0.00  0.00    +0.280 C 
ENDBRANCH  30  32
ENDBRANCH   9  30
BRANCH   9  34
ATOM     34  C   UNL     1       5.635   3.832   0.593  0.00  0.00    +0.010 C 
BRANCH  34  35
ATOM     35  C   UNL     1       6.399   3.830  -0.732  0.00  0.00    +0.068 C 
BRANCH  35  36
ATOM     36  S   UNL     1       7.728   5.064  -0.666  0.00  0.00    -0.164 S 
ATOM     37  C   UNL     1       8.527   4.937  -2.289  0.00  0.00    +0.084 C 
ENDBRANCH  35  36
ENDBRANCH  34  35
ENDBRANCH   9  34
TORSDOF 7
