REMARK  Name = ZINC01125839
REMARK  7 active torsions:
REMARK  status: ('A' for Active; 'I' for Inactive)
REMARK    1  A    between atoms: C_1  and  C_2
REMARK    2  A    between atoms: C_8  and  C_10
REMARK    3  A    between atoms: C_10  and  S_11
REMARK    4  A    between atoms: S_11  and  C_12
REMARK    5  A    between atoms: C_13  and  C_31
REMARK    6  A    between atoms: C_14  and  C_27
REMARK    7  A    between atoms: C_16  and  C_18
REMARK                            x       y       z     vdW  Elec       q    Type
REMARK                         _______ _______ _______ _____ _____    ______ ____
ROOT
ATOM      1  C   UNL     1       1.708   2.135  -0.003  0.00  0.00    +0.116 A 
ATOM      2  C   UNL     1       2.166   3.466   0.000  0.00  0.00    +0.095 A 
ATOM      3  C   UNL     1       3.546   3.709  -0.011  0.00  0.00    +0.077 A 
ATOM      4  C   UNL     1       4.405   2.628  -0.025  0.00  0.00    +0.042 A 
ATOM      5  C   UNL     1       3.880   1.335  -0.027  0.00  0.00    +0.073 A 
ATOM      6  N   UNL     1       2.568   1.130  -0.011  0.00  0.00    -0.239 NA
ENDROOT
BRANCH   5   7
ATOM      7  C   UNL     1       4.800   0.175  -0.042  0.00  0.00    +0.004 A 
ATOM      8  C   UNL     1       6.177   0.373   0.052  0.00  0.00    +0.014 A 
ATOM      9  C   UNL     1       7.033  -0.708   0.039  0.00  0.00    +0.050 A 
ATOM     10  C   UNL     1       6.528  -1.996  -0.067  0.00  0.00    +0.166 A 
ATOM     11  C   UNL     1       5.151  -2.201  -0.161  0.00  0.00    +0.167 A 
ATOM     12  C   UNL     1       4.290  -1.120  -0.143  0.00  0.00    +0.059 A 
ATOM     13  O   UNL     1       4.916  -3.542  -0.254  0.00  0.00    -0.453 OA
ATOM     14  C   UNL     1       6.127  -4.178   0.195  0.00  0.00    +0.466 C 
ATOM     15  O   UNL     1       7.151  -3.210  -0.102  0.00  0.00    -0.453 OA
ENDBRANCH   5   7
BRANCH   3  16
ATOM     16  C   UNL     1       4.081   5.118  -0.009  0.00  0.00    +0.419 C 
ATOM     17  F   UNL     1       5.479   5.086  -0.022  0.00  0.00    -0.166 F 
ATOM     18  F   UNL     1       3.619   5.794  -1.144  0.00  0.00    -0.166 F 
ATOM     19  F   UNL     1       3.640   5.783   1.140  0.00  0.00    -0.166 F 
ENDBRANCH   3  16
BRANCH   2  20
ATOM     20  C   UNL     1       1.236   4.555   0.015  0.00  0.00    +0.102 C 
ATOM     21  N   UNL     1       0.499   5.419   0.026  0.00  0.00    -0.191 NA
ENDBRANCH   2  20
BRANCH   1  22
ATOM     22  S   UNL     1      -0.022   1.806   0.012  0.00  0.00    -0.095 S 
BRANCH  22  23
ATOM     23  C   UNL     1       0.002  -0.004   0.002  0.00  0.00    +0.172 C 
BRANCH  23  31
ATOM     24  C   UNL     1      -5.453  -4.936   0.027  0.00  0.00    +0.069 C 
ATOM     25  C   UNL     1      -4.634  -3.671   0.027  0.00  0.00    +0.078 A 
ATOM     26  C   UNL     1      -5.114  -2.418   0.038  0.00  0.00    +0.222 A 
ATOM     27  O   UNL     1      -4.053  -1.583   0.038  0.00  0.00    -0.432 OA
ATOM     28  C   UNL     1      -2.941  -2.334   0.018  0.00  0.00    +0.294 A 
ATOM     29  N   UNL     1      -3.290  -3.596   0.014  0.00  0.00    -0.200 NA
ATOM     30  N   UNL     1      -1.640  -1.854   0.008  0.00  0.00    -0.239 N 
ATOM     31  C   UNL     1      -1.412  -0.526   0.013  0.00  0.00    +0.231 C 
ATOM     32  O   UNL     1      -2.344   0.250   0.026  0.00  0.00    -0.274 OA
ATOM     33  H   UNL     1      -0.894  -2.474  -0.003  0.00  0.00    +0.159 HD
ENDBRANCH  23  31
ENDBRANCH  22  23
ENDBRANCH   1  22
TORSDOF 6
