REMARK  Name = ZINC39663729
REMARK  13 active torsions:
REMARK  status: ('A' for Active; 'I' for Inactive)
REMARK    1  A    between atoms: C_1  and  C_2
REMARK    2  A    between atoms: C_2  and  O_3
REMARK    3  A    between atoms: O_3  and  C_4
REMARK    4  A    between atoms: C_7  and  C_10
REMARK    5  A    between atoms: C_14  and  C_23
REMARK    6  A    between atoms: N_25  and  C_26
REMARK    7  A    between atoms: C_26  and  C_27
REMARK    8  A    between atoms: C_27  and  C_29
REMARK    9  A    between atoms: C_27  and  N_37
REMARK   10  A    between atoms: C_32  and  O_35
REMARK   11  A    between atoms: O_35  and  C_36
REMARK   12  A    between atoms: N_37  and  C_38
REMARK   13  A    between atoms: N_37  and  C_39
REMARK                            x       y       z     vdW  Elec       q    Type
REMARK                         _______ _______ _______ _____ _____    ______ ____
ROOT
ATOM      1  C   UNL     1      -1.989  -6.116  -0.027  0.00  0.00    +0.247 C 
ATOM      2  O   UNL     1      -1.027  -6.850  -0.140  0.00  0.00    -0.270 OA
ATOM      3  N   UNL     1      -3.227  -6.638   0.084  0.00  0.00    -0.296 N 
ATOM      4  C   UNL     1      -4.520  -5.916   0.099  0.00  0.00    +0.121 C 
ATOM      5  C   UNL     1      -5.474  -6.807  -0.728  0.00  0.00    +0.100 C 
ATOM      6  C   UNL     1      -4.867  -8.217  -0.643  0.00  0.00    -0.004 C 
ATOM      7  C   UNL     1      -3.601  -8.067   0.214  0.00  0.00    +0.115 C 
ATOM      8  C   UNL     1      -4.497  -8.718  -2.036  0.00  0.00    -0.010 C 
ATOM      9  C   UNL     1      -3.948 -10.144  -1.931  0.00  0.00    -0.082 C 
ATOM     10  N   UNL     1      -4.962 -11.017  -1.327  0.00  0.00    +0.379 N 
ATOM     11  C   UNL     1      -5.244 -10.583   0.046  0.00  0.00    -0.082 C 
ATOM     12  C   UNL     1      -5.847  -9.176   0.025  0.00  0.00    -0.010 C 
ATOM     13  H   UNL     1      -5.810 -10.973  -1.873  0.00  0.00    -0.086 HD
ATOM     14  H   UNL     1      -4.622 -11.967  -1.315  0.00  0.00    -0.086 HD
ENDROOT
BRANCH   1  18
ATOM     15  C   UNL     1      -1.452  -1.903   0.017  0.00  0.00    +0.121 A 
ATOM     16  C   UNL     1      -2.572  -2.466   0.618  0.00  0.00    +0.046 A 
ATOM     17  C   UNL     1      -2.750  -3.831   0.606  0.00  0.00    +0.016 A 
ATOM     18  C   UNL     1      -1.803  -4.652  -0.012  0.00  0.00    +0.037 A 
ATOM     19  C   UNL     1      -0.678  -4.082  -0.616  0.00  0.00    +0.016 A 
ATOM     20  C   UNL     1      -0.510  -2.716  -0.603  0.00  0.00    +0.046 A 
BRANCH  15  21
ATOM     21  O   UNL     1      -1.280  -0.557   0.032  0.00  0.00    -0.492 OA
BRANCH  21  23
ATOM     22  C   UNL     1      -1.923   1.702   0.600  0.00  0.00    +0.048 C 
ATOM     23  C   UNL     1      -2.286   0.218   0.686  0.00  0.00    +0.225 C 
ENDBRANCH  21  23
ENDBRANCH  15  21
ENDBRANCH   1  18
BRANCH   5  24
ATOM     24  C   UNL     1      -6.857  -6.792  -0.129  0.00  0.00    +0.218 C 
ATOM     25  O   UNL     1      -7.005  -6.546   1.050  0.00  0.00    -0.275 OA
ATOM     26  N   UNL     1      -7.930  -7.051  -0.902  0.00  0.00    -0.316 N 
ATOM     27  H   UNL     1      -7.812  -7.247  -1.845  0.00  0.00    +0.149 HD
BRANCH  26  28
ATOM     28  C   UNL     1      -9.274  -7.036  -0.320  0.00  0.00    +0.093 C 
BRANCH  28  29
ATOM     29  C   UNL     1     -10.311  -7.235  -1.427  0.00  0.00    -0.021 C 
BRANCH  29  30
ATOM     30  C   UNL     1     -10.199  -6.115  -2.428  0.00  0.00    -0.059 A 
ATOM     31  C   UNL     1     -10.768  -4.885  -2.155  0.00  0.00    +0.005 A 
ATOM     32  C   UNL     1     -10.667  -3.856  -3.072  0.00  0.00    +0.046 A 
ATOM     33  C   UNL     1      -9.992  -4.058  -4.267  0.00  0.00    +0.120 A 
ATOM     34  C   UNL     1      -9.421  -5.293  -4.539  0.00  0.00    +0.046 A 
ATOM     35  C   UNL     1      -9.521  -6.317  -3.616  0.00  0.00    +0.005 A 
BRANCH  33  36
ATOM     36  O   UNL     1      -9.892  -3.048  -5.171  0.00  0.00    -0.495 OA
ATOM     37  C   UNL     1      -9.183  -3.328  -6.380  0.00  0.00    +0.277 C 
ENDBRANCH  33  36
ENDBRANCH  29  30
BRANCH  29  38
ATOM     38  N   UNL     1     -11.659  -7.234  -0.841  0.00  0.00    +0.382 N 
ATOM     39  C   UNL     1     -12.646  -7.541  -1.884  0.00  0.00    -0.096 C 
ATOM     40  C   UNL     1     -11.733  -8.250   0.218  0.00  0.00    -0.096 C 
ATOM     41  H   UNL     1     -11.854  -6.325  -0.449  0.00  0.00    -0.082 HD
ENDBRANCH  29  38
ENDBRANCH  28  29
ENDBRANCH  26  28
ENDBRANCH   5  24
TORSDOF 9
