REMARK  Name = ZINC36155962
REMARK  14 active torsions:
REMARK  status: ('A' for Active; 'I' for Inactive)
REMARK    1  A    between atoms: C_1  and  C_2
REMARK    2  A    between atoms: C_2  and  C_3
REMARK    3  A    between atoms: C_3  and  C_4
REMARK    4  A    between atoms: C_4  and  C_6
REMARK    5  A    between atoms: C_4  and  O_35
REMARK    6  A    between atoms: C_6  and  N_7
REMARK    7  A    between atoms: N_7  and  C_8
REMARK    8  A    between atoms: N_7  and  C_12
REMARK    9  A    between atoms: C_8  and  C_9
REMARK   10  A    between atoms: C_9  and  O_10
REMARK   11  A    between atoms: O_10  and  C_11
REMARK   12  A    between atoms: C_12  and  C_13
REMARK   13  A    between atoms: N_25  and  C_28
REMARK   14  A    between atoms: C_28  and  C_29
REMARK                            x       y       z     vdW  Elec       q    Type
REMARK                         _______ _______ _______ _____ _____    ______ ____
ROOT
ATOM      1  C   UNL     1       2.212  -6.270  -2.985  0.00  0.00    +0.094 A 
ATOM      2  N   UNL     1       2.859  -7.128  -3.815  0.00  0.00    -0.312 N 
ATOM      3  H   UNL     1       3.227  -6.796  -4.649  0.00  0.00    +0.170 HD
ATOM      4  C   UNL     1       3.001  -8.430  -3.503  0.00  0.00    +0.260 A 
ATOM      5  O   UNL     1       3.586  -9.187  -4.259  0.00  0.00    -0.267 OA
ATOM      6  C   UNL     1       2.454  -8.911  -2.269  0.00  0.00    +0.075 A 
ATOM      7  C   UNL     1       2.484 -10.267  -1.727  0.00  0.00    -0.020 A 
ATOM      8  C   UNL     1       1.890 -10.464  -0.530  0.00  0.00    +0.010 A 
ATOM      9  S   UNL     1       1.265  -8.875  -0.061  0.00  0.00    -0.072 S 
ATOM     10  C   UNL     1       1.803  -7.950  -1.478  0.00  0.00    +0.116 A 
ATOM     11  N   UNL     1       1.708  -6.677  -1.851  0.00  0.00    -0.229 NA
ATOM     12  C   UNL     1       1.792 -11.759   0.216  0.00  0.00    +0.127 C 
ATOM     13  N   UNL     1       2.130 -12.853  -0.713  0.00  0.00    -0.293 NA
ATOM     14  C   UNL     1       3.379 -12.557  -1.429  0.00  0.00    +0.090 C 
ATOM     15  C   UNL     1       3.148 -11.438  -2.448  0.00  0.00    +0.052 C 
ENDROOT
BRANCH   1  16
ATOM     16  C   UNL     1       2.078  -4.821  -3.377  0.00  0.00    -0.003 C 
BRANCH  16  17
ATOM     17  N   UNL     1       1.480  -4.067  -2.268  0.00  0.00    +0.388 N 
ATOM     18  H   UNL     1       0.617  -4.508  -1.988  0.00  0.00    -0.081 HD
BRANCH  17  19
ATOM     19  C   UNL     1       2.410  -4.046  -1.132  0.00  0.00    -0.046 C 
BRANCH  19  20
ATOM     20  C   UNL     1       1.718  -3.425   0.083  0.00  0.00    +0.098 C 
BRANCH  20  21
ATOM     21  O   UNL     1       1.491  -2.035  -0.157  0.00  0.00    -0.394 OA
ATOM     22  H   UNL     1       2.298  -1.526  -0.317  0.00  0.00    +0.210 HD
ENDBRANCH  20  21
BRANCH  20  23
ATOM     23  C   UNL     1       2.608  -3.591   1.317  0.00  0.00    +0.029 C 
BRANCH  23  25
ATOM     24  C   UNL     1       2.754  -3.248   3.788  0.00  0.00    +0.004 C 
ATOM     25  C   UNL     1       1.865  -3.083   2.554  0.00  0.00    -0.001 C 
ENDBRANCH  23  25
ENDBRANCH  20  23
ENDBRANCH  19  20
ENDBRANCH  17  19
BRANCH  17  26
ATOM     26  C   UNL     1       1.207  -2.690  -2.703  0.00  0.00    -0.050 C 
BRANCH  26  27
ATOM     27  C   UNL     1       0.184  -2.708  -3.840  0.00  0.00    +0.141 C 
BRANCH  27  28
ATOM     28  O   UNL     1      -1.063  -3.205  -3.352  0.00  0.00    -0.385 OA
ATOM     29  C   UNL     1      -2.060  -3.369  -4.362  0.00  0.00    +0.193 C 
ENDBRANCH  27  28
ENDBRANCH  26  27
ENDBRANCH  17  26
ENDBRANCH  16  17
ENDBRANCH   1  16
BRANCH  13  30
ATOM     30  C   UNL     1       2.222 -14.136  -0.004  0.00  0.00    +0.120 C 
BRANCH  30  31
ATOM     31  C   UNL     1       0.862 -14.519   0.521  0.00  0.00    -0.033 A 
ATOM     32  C   UNL     1       0.466 -14.108   1.780  0.00  0.00    +0.005 A 
ATOM     33  C   UNL     1      -0.781 -14.459   2.261  0.00  0.00    +0.000 A 
ATOM     34  C   UNL     1      -1.634 -15.220   1.483  0.00  0.00    +0.000 A 
ATOM     35  C   UNL     1      -1.238 -15.629   0.223  0.00  0.00    +0.000 A 
ATOM     36  C   UNL     1       0.007 -15.275  -0.260  0.00  0.00    +0.005 A 
ENDBRANCH  30  31
ENDBRANCH  13  30
TORSDOF 12
