REMARK  Name = ZINC13567692
REMARK  6 active torsions:
REMARK  status: ('A' for Active; 'I' for Inactive)
REMARK    1  A    between atoms: C_1  and  C_2
REMARK    2  A    between atoms: C_3  and  N_9
REMARK    3  A    between atoms: N_24  and  C_27
REMARK    4  A    between atoms: C_27  and  C_28
REMARK    5  A    between atoms: C_30  and  C_33
REMARK    6  A    between atoms: C_31  and  N_32
REMARK                            x       y       z     vdW  Elec       q    Type
REMARK                         _______ _______ _______ _____ _____    ______ ____
ROOT
ATOM      1  N   UNL     1      -2.961  -1.480   0.013  0.00  0.00    -0.260 N 
ATOM      2  C   UNL     1      -3.091  -0.801  -1.170  0.00  0.00    +0.025 C 
ATOM      3  C   UNL     1      -2.938   0.540  -1.213  0.00  0.00    +0.037 C 
ATOM      4  C   UNL     1      -3.065   1.245  -2.423  0.00  0.00    +0.162 C 
ATOM      5  O   UNL     1      -2.934   2.453  -2.425  0.00  0.00    -0.292 OA
ATOM      6  C   UNL     1      -3.359   0.532  -3.714  0.00  0.00    +0.080 C 
ATOM      7  C   UNL     1      -2.801  -0.893  -3.635  0.00  0.00    +0.014 C 
ATOM      8  C   UNL     1      -3.415  -1.587  -2.417  0.00  0.00    +0.052 C 
ATOM      9  C   UNL     1      -2.623   1.321   0.036  0.00  0.00    +0.141 C 
ATOM     10  C   UNL     1      -1.197   1.780   0.017  0.00  0.00    -0.001 A 
ATOM     11  C   UNL     1      -0.013   1.076   0.008  0.00  0.00    +0.007 A 
ATOM     12  C   UNL     1       1.163   1.819   0.001  0.00  0.00    +0.000 A 
ATOM     13  C   UNL     1       1.141   3.199   0.007  0.00  0.00    +0.002 A 
ATOM     14  C   UNL     1      -0.047   3.914   0.021  0.00  0.00    +0.024 A 
ATOM     15  C   UNL     1      -1.234   3.179   0.029  0.00  0.00    +0.041 A 
ATOM     16  N   UNL     1      -2.543   3.626   0.042  0.00  0.00    -0.266 N 
ATOM     17  C   UNL     1      -3.426   2.607   0.046  0.00  0.00    +0.240 C 
ATOM     18  O   UNL     1      -4.635   2.701   0.056  0.00  0.00    -0.274 OA
ATOM     19  C   UNL     1      -2.918   0.526   1.273  0.00  0.00    +0.089 C 
ATOM     20  C   UNL     1      -3.069  -0.823   1.217  0.00  0.00    +0.108 C 
ENDROOT
BRANCH   1  23
ATOM     21  C   UNL     1      -5.193  -3.246   0.027  0.00  0.00    +0.047 C 
ATOM     22  C   UNL     1      -3.775  -3.755   0.003  0.00  0.00    -0.010 A 
ATOM     23  C   UNL     1      -2.715  -2.858  -0.004  0.00  0.00    +0.044 A 
ATOM     24  C   UNL     1      -1.409  -3.331  -0.021  0.00  0.00    +0.024 A 
ATOM     25  C   UNL     1      -1.168  -4.691  -0.037  0.00  0.00    +0.003 A 
ATOM     26  C   UNL     1      -2.225  -5.582  -0.036  0.00  0.00    +0.020 A 
ATOM     27  C   UNL     1      -3.528  -5.115  -0.020  0.00  0.00    +0.046 A 
ATOM     28 CL   UNL     1      -4.853  -6.237  -0.019  0.00  0.00    -0.083 Cl
ENDBRANCH   1  23
BRANCH  20  29
ATOM     29  N   UNL     1      -3.331  -1.532   2.365  0.00  0.00    -0.345 N 
ATOM     30  H   UNL     1      -3.440  -2.495   2.326  0.00  0.00    +0.144 HD
ATOM     31  H   UNL     1      -3.408  -1.069   3.214  0.00  0.00    +0.144 HD
ENDBRANCH  20  29
BRANCH  19  32
ATOM     32  C   UNL     1      -3.040   1.199   2.531  0.00  0.00    +0.100 C 
ATOM     33  N   UNL     1      -3.138   1.733   3.529  0.00  0.00    -0.191 NA
ENDBRANCH  19  32
BRANCH  16  34
ATOM     34  C   UNL     1      -2.925   5.040   0.051  0.00  0.00    +0.140 C 
BRANCH  34  35
ATOM     35  C   UNL     1      -3.068   5.531  -1.367  0.00  0.00    -0.015 C 
ATOM     36  C   UNL     1      -4.186   6.093  -1.756  0.00  0.00    +0.005 C 
ENDBRANCH  34  35
ENDBRANCH  16  34
TORSDOF 5
