REMARK  Name = ZINC12774284
REMARK  10 active torsions:
REMARK  status: ('A' for Active; 'I' for Inactive)
REMARK    1  A    between atoms: C_1  and  C_2
REMARK    2  A    between atoms: C_2  and  C_3
REMARK    3  A    between atoms: C_2  and  C_4
REMARK    4  A    between atoms: C_4  and  C_6
REMARK    5  A    between atoms: C_4  and  N_13
REMARK    6  A    between atoms: C_14  and  C_16
REMARK    7  A    between atoms: C_16  and  N_61
REMARK    8  A    between atoms: C_19  and  C_22
REMARK    9  A    between atoms: N_24  and  C_25
REMARK   10  A    between atoms: C_30  and  O_31
REMARK                            x       y       z     vdW  Elec       q    Type
REMARK                         _______ _______ _______ _____ _____    ______ ____
ROOT
ATOM      1  C   UNL     1       1.948  -2.698  -0.411  0.00  0.00    -0.077 C 
ATOM      2  C   UNL     1       3.213  -3.060  -1.193  0.00  0.00    -0.006 C 
ATOM      3  C   UNL     1       3.473  -4.564  -1.064  0.00  0.00    +0.072 C 
ATOM      4  C   UNL     1       3.602  -4.926   0.418  0.00  0.00    -0.006 C 
ATOM      5  C   UNL     1       2.326  -4.510   1.153  0.00  0.00    -0.077 C 
ATOM      6  N   UNL     1       2.146  -3.049   1.011  0.00  0.00    +0.385 N 
ATOM      7  H   UNL     1       2.988  -2.575   1.357  0.00  0.00    -0.081 HD
ENDROOT
BRANCH   3   8
ATOM      8  C   UNL     1       4.750  -4.917  -1.782  0.00  0.00    +0.220 C 
ATOM      9  O   UNL     1       5.673  -5.410  -1.170  0.00  0.00    -0.275 OA
ATOM     10  N   UNL     1       4.866  -4.685  -3.105  0.00  0.00    -0.282 N 
ATOM     11  H   UNL     1       4.106  -4.351  -3.607  0.00  0.00    +0.155 HD
BRANCH  10  12
ATOM     12  C   UNL     1       6.084  -4.926  -3.755  0.00  0.00    +0.075 A 
ATOM     13  C   UNL     1       6.890  -5.980  -3.352  0.00  0.00    +0.027 A 
ATOM     14  C   UNL     1       8.091  -6.216  -3.994  0.00  0.00    +0.002 A 
ATOM     15  C   UNL     1       8.491  -5.403  -5.038  0.00  0.00    +0.004 A 
ATOM     16  C   UNL     1       7.693  -4.350  -5.445  0.00  0.00    +0.047 A 
ATOM     17  C   UNL     1       6.486  -4.110  -4.810  0.00  0.00    +0.138 A 
BRANCH  17  18
ATOM     18  O   UNL     1       5.697  -3.079  -5.213  0.00  0.00    -0.505 OA
ATOM     19  H   UNL     1       5.878  -2.244  -4.760  0.00  0.00    +0.292 HD
ENDBRANCH  17  18
ENDBRANCH  10  12
ENDBRANCH   3   8
BRANCH   6  20
ATOM     20  C   UNL     1       0.984  -2.604   1.807  0.00  0.00    +0.019 C 
BRANCH  20  22
ATOM     21  N   UNL     1      -0.011  -0.450   2.506  0.00  0.00    -0.310 N 
ATOM     22  C   UNL     1       0.954  -1.098   1.823  0.00  0.00    +0.197 C 
ATOM     23  O   UNL     1       1.798  -0.468   1.221  0.00  0.00    -0.278 OA
ATOM     24  H   UNL     1      -0.686  -0.953   2.987  0.00  0.00    +0.149 HD
BRANCH  21  25
ATOM     25  C   UNL     1      -0.040   1.015   2.521  0.00  0.00    +0.106 C 
BRANCH  25  26
ATOM     26  C   UNL     1      -0.752   1.490   3.761  0.00  0.00    -0.027 A 
ATOM     27  C   UNL     1      -1.884   0.832   4.203  0.00  0.00    +0.008 A 
ATOM     28  C   UNL     1      -2.535   1.264   5.343  0.00  0.00    +0.038 A 
ATOM     29  C   UNL     1      -2.058   2.363   6.037  0.00  0.00    +0.123 A 
ATOM     30  C   UNL     1      -0.927   3.025   5.590  0.00  0.00    +0.038 A 
ATOM     31  C   UNL     1      -0.275   2.588   4.453  0.00  0.00    +0.008 A 
ATOM     32  F   UNL     1      -2.697   2.790   7.148  0.00  0.00    -0.205 F 
ENDBRANCH  25  26
BRANCH  25  34
ATOM     33  C   UNL     1      -0.057   1.040   0.022  0.00  0.00    +0.009 C 
ATOM     34  C   UNL     1      -0.780   1.523   1.282  0.00  0.00    +0.008 C 
ATOM     35  C   UNL     1      -0.810   3.052   1.297  0.00  0.00    +0.009 C 
ENDBRANCH  25  34
ENDBRANCH  21  25
ENDBRANCH  20  22
ENDBRANCH   6  20
TORSDOF 8
