REMARK  Name = ZINC39938768
REMARK  9 active torsions:
REMARK  status: ('A' for Active; 'I' for Inactive)
REMARK    1  A    between atoms: C_1  and  C_2
REMARK    2  A    between atoms: C_6  and  N_12
REMARK    3  A    between atoms: C_9  and  C_11
REMARK    4  A    between atoms: C_13  and  C_15
REMARK    5  A    between atoms: C_15  and  S_16
REMARK    6  A    between atoms: S_16  and  C_17
REMARK    7  A    between atoms: C_21  and  C_29
REMARK    8  A    between atoms: N_22  and  C_23
REMARK    9  A    between atoms: C_29  and  C_30
REMARK                            x       y       z     vdW  Elec       q    Type
REMARK                         _______ _______ _______ _____ _____    ______ ____
ROOT
ATOM      1  C   UNL     1      -5.303  -3.772   3.081  0.00  0.00    +0.168 C 
ENDROOT
BRANCH   1   3
ATOM      2  N   UNL     1      -3.770  -2.355   1.754  0.00  0.00    -0.285 N 
ATOM      3  C   UNL     1      -4.697  -3.334   1.772  0.00  0.00    +0.225 C 
ATOM      4  O   UNL     1      -5.043  -3.861   0.737  0.00  0.00    -0.275 OA
ATOM      5  H   UNL     1      -3.493  -1.933   2.582  0.00  0.00    +0.151 HD
BRANCH   2  10
ATOM      6  C   UNL     1      -0.019   1.526   0.010  0.00  0.00    +0.030 C 
ATOM      7  C   UNL     1       0.002  -0.004   0.002  0.00  0.00    +0.099 C 
ATOM      8  C   UNL     1      -1.409  -0.528   0.019  0.00  0.00    -0.011 C 
ATOM      9  C   UNL     1      -1.717  -1.674   0.651  0.00  0.00    +0.065 C 
ATOM     10  C   UNL     1      -3.181  -1.929   0.482  0.00  0.00    +0.243 C 
ATOM     11  O   UNL     1      -3.752  -0.670   0.063  0.00  0.00    -0.347 OA
ATOM     12  C   UNL     1      -2.663   0.023  -0.586  0.00  0.00    +0.146 C 
ATOM     13  C   UNL     1      -2.687  -0.251  -2.091  0.00  0.00    +0.043 C 
ATOM     14  C   UNL     1      -0.670  -2.429   1.357  0.00  0.00    +0.258 C 
ATOM     15  O   UNL     1      -0.872  -3.538   1.815  0.00  0.00    -0.269 OA
ATOM     16  N   UNL     1       0.533  -1.813   1.465  0.00  0.00    -0.247 N 
ATOM     17  N   UNL     1       0.706  -0.493   1.194  0.00  0.00    -0.233 NA
ATOM     18  H   UNL     1       1.300  -2.335   1.746  0.00  0.00    +0.169 HD
ATOM     19  H   UNL     1       0.487   0.072   2.001  0.00  0.00    +0.145 HD
ENDBRANCH   2  10
ENDBRANCH   1   3
BRANCH   1  20
ATOM     20  S   UNL     1      -6.507  -5.095   2.776  0.00  0.00    -0.109 S 
BRANCH  20  21
ATOM     21  C   UNL     1      -7.136  -5.505   4.427  0.00  0.00    +0.237 C 
ATOM     22  N   UNL     1      -7.693  -4.307   5.081  0.00  0.00    -0.238 N 
ATOM     23  N   UNL     1      -6.927  -4.103   6.235  0.00  0.00    -0.174 NA
ATOM     24  C   UNL     1      -6.011  -4.992   6.357  0.00  0.00    +0.123 C 
ATOM     25  N   UNL     1      -6.033  -5.911   5.315  0.00  0.00    -0.286 N 
ATOM     26  H   UNL     1      -8.439  -3.769   4.774  0.00  0.00    +0.171 HD
BRANCH  25  27
ATOM     27  C   UNL     1      -5.138  -7.056   5.133  0.00  0.00    +0.077 C 
ATOM     28  C   UNL     1      -3.693  -6.563   5.029  0.00  0.00    +0.022 C 
ATOM     29  C   UNL     1      -2.758  -7.759   4.838  0.00  0.00    +0.002 C 
ATOM     30  C   UNL     1      -2.890  -8.705   6.034  0.00  0.00    +0.000 C 
ATOM     31  C   UNL     1      -4.334  -9.198   6.138  0.00  0.00    +0.002 C 
ATOM     32  C   UNL     1      -5.269  -8.002   6.329  0.00  0.00    +0.022 C 
ENDBRANCH  25  27
BRANCH  24  33
ATOM     33  C   UNL     1      -5.027  -5.036   7.498  0.00  0.00    +0.115 C 
BRANCH  33  34
ATOM     34  C   UNL     1      -5.297  -3.891   8.440  0.00  0.00    -0.003 A 
ATOM     35  C   UNL     1      -6.109  -3.852   9.524  0.00  0.00    +0.011 A 
ATOM     36  C   UNL     1      -6.202  -2.679  10.250  0.00  0.00    +0.008 A 
ATOM     37  C   UNL     1      -5.480  -1.603   9.854  0.00  0.00    +0.045 A 
ATOM     38  S   UNL     1      -4.626  -2.237   8.421  0.00  0.00    -0.101 S 
ENDBRANCH  33  34
ENDBRANCH  24  33
ENDBRANCH  20  21
ENDBRANCH   1  20
TORSDOF 7
