REMARK  Name = ZINC21529409
REMARK  6 active torsions:
REMARK  status: ('A' for Active; 'I' for Inactive)
REMARK    1  A    between atoms: C_1  and  C_2
REMARK    2  A    between atoms: C_2  and  N_3
REMARK    3  A    between atoms: C_7  and  S_9
REMARK    4  A    between atoms: S_9  and  C_10
REMARK    5  A    between atoms: C_10  and  C_11
REMARK    6  A    between atoms: C_24  and  C_26
REMARK                            x       y       z     vdW  Elec       q    Type
REMARK                         _______ _______ _______ _____ _____    ______ ____
ROOT
ATOM      1  C   UNL     1       1.822  -1.517   0.609  0.00  0.00    +0.231 C 
ATOM      2  O   UNL     1       1.717  -2.045  -0.478  0.00  0.00    -0.274 OA
ATOM      3  N   UNL     1       1.013  -0.492   0.942  0.00  0.00    -0.257 N 
ATOM      4  C   UNL     1       1.122   0.128   2.193  0.00  0.00    +0.058 A 
ATOM      5  C   UNL     1       0.690  -0.517   3.341  0.00  0.00    +0.025 A 
ATOM      6  C   UNL     1       0.780   0.120   4.564  0.00  0.00    +0.002 A 
ATOM      7  C   UNL     1       1.300   1.399   4.648  0.00  0.00    +0.002 A 
ATOM      8  C   UNL     1       1.742   2.047   3.509  0.00  0.00    +0.025 A 
ATOM      9  C   UNL     1       1.666   1.410   2.281  0.00  0.00    +0.055 A 
ATOM     10  N   UNL     1       2.144   2.027   1.119  0.00  0.00    -0.284 N 
ATOM     11  C   UNL     1       1.388   2.063  -0.000  0.00  0.00    +0.219 C 
ATOM     12  O   UNL     1       1.845   2.532  -1.021  0.00  0.00    -0.275 OA
ATOM     13  C   UNL     1      -0.019   1.526   0.010  0.00  0.00    +0.128 C 
ATOM     14  C   UNL     1       0.002  -0.004   0.002  0.00  0.00    +0.194 C 
ATOM     15  H   UNL     1       3.143   2.488   1.113  0.00  0.00    +0.155 HD
ENDROOT
BRANCH  14  16
ATOM     16  C   UNL     1      -1.373  -0.533   0.414  0.00  0.00    +0.409 C 
ATOM     17  F   UNL     1      -2.339  -0.075  -0.488  0.00  0.00    -0.169 F 
ATOM     18  F   UNL     1      -1.355  -1.932   0.407  0.00  0.00    -0.169 F 
ATOM     19  F   UNL     1      -1.682  -0.078   1.700  0.00  0.00    -0.169 F 
ENDBRANCH  14  16
BRANCH   1  20
ATOM     20  C   UNL     1       2.857  -2.008   1.588  0.00  0.00    +0.172 C 
BRANCH  20  21
ATOM     21  S   UNL     1       3.780  -3.385   0.853  0.00  0.00    -0.088 S 
BRANCH  21  26
ATOM     22  N   UNL     1       7.859  -5.506   4.385  0.00  0.00    -0.322 N 
ATOM     23  C   UNL     1       6.834  -4.842   3.721  0.00  0.00    +0.182 A 
ATOM     24  N   UNL     1       6.087  -3.836   4.131  0.00  0.00    -0.125 NA
ATOM     25  N   UNL     1       5.119  -3.319   3.301  0.00  0.00    -0.133 NA
ATOM     26  C   UNL     1       4.936  -3.840   2.103  0.00  0.00    +0.160 A 
ATOM     27  S   UNL     1       6.177  -5.125   2.084  0.00  0.00    -0.025 S 
ATOM     28  H   UNL     1       8.387  -6.336   3.893  0.00  0.00    +0.148 HD
BRANCH  22  30
ATOM     29  C   UNL     1       9.381  -5.985   6.239  0.00  0.00    +0.024 C 
ATOM     30  C   UNL     1       8.236  -5.101   5.742  0.00  0.00    +0.100 C 
ENDBRANCH  22  30
ENDBRANCH  21  26
ENDBRANCH  20  21
ENDBRANCH   1  20
TORSDOF 5
