REMARK  Name = ZINC58237640
REMARK  8 active torsions:
REMARK  status: ('A' for Active; 'I' for Inactive)
REMARK    1  A    between atoms: C_1  and  C_2
REMARK    2  A    between atoms: C_2  and  C_3
REMARK    3  A    between atoms: C_3  and  C_5
REMARK    4  A    between atoms: C_3  and  S_8
REMARK    5  A    between atoms: S_8  and  C_9
REMARK    6  A    between atoms: C_9  and  C_10
REMARK    7  A    between atoms: C_14  and  C_16
REMARK    8  A    between atoms: C_16  and  N_18
REMARK                            x       y       z     vdW  Elec       q    Type
REMARK                         _______ _______ _______ _____ _____    ______ ____
ROOT
ATOM      1  C   UNL     1      -4.737  -0.306   2.610  0.00  0.00    -0.037 A 
ATOM      2  C   UNL     1      -4.801  -1.221   3.646  0.00  0.00    +0.004 A 
ATOM      3  C   UNL     1      -5.522  -0.930   4.790  0.00  0.00    +0.001 A 
ATOM      4  C   UNL     1      -6.183   0.276   4.905  0.00  0.00    +0.010 A 
ATOM      5  C   UNL     1      -6.122   1.204   3.863  0.00  0.00    +0.003 A 
ATOM      6  C   UNL     1      -5.388   0.906   2.713  0.00  0.00    +0.014 A 
ENDROOT
BRANCH   5   7
ATOM      7  C   UNL     1      -6.827   2.496   3.979  0.00  0.00    +0.077 C 
ATOM      8  S   UNL     1      -6.144   3.908   3.292  0.00  0.00    -0.035 S 
BRANCH   7   9
ATOM      9  N   UNL     1      -8.008   2.564   4.625  0.00  0.00    -0.352 N 
ATOM     10  H   UNL     1      -8.394   1.764   5.015  0.00  0.00    +0.143 HD
ATOM     11  H   UNL     1      -8.471   3.413   4.701  0.00  0.00    +0.143 HD
ENDBRANCH   7   9
ENDBRANCH   5   7
BRANCH   1  12
ATOM     12  C   UNL     1      -3.949  -0.632   1.367  0.00  0.00    +0.105 C 
BRANCH  12  13
ATOM     13  S   UNL     1      -2.236  -0.073   1.573  0.00  0.00    -0.141 S 
BRANCH  13  14
ATOM     14  C   UNL     1      -1.433  -0.534   0.013  0.00  0.00    +0.159 C 
BRANCH  14  15
ATOM     15  C   UNL     1      -1.416  -2.035  -0.119  0.00  0.00    +0.369 C 
ATOM     16  O   UNL     1      -1.459  -2.735   0.878  0.00  0.00    -0.245 OA
ATOM     17  O   UNL     1      -1.359  -2.549  -1.223  0.00  0.00    -0.245 OA
ENDBRANCH  14  15
BRANCH  14  19
ATOM     18  C   UNL     1      -0.019   1.526   0.010  0.00  0.00    +0.005 C 
ATOM     19  C   UNL     1       0.002  -0.004   0.002  0.00  0.00    +0.022 C 
ENDBRANCH  14  19
ENDBRANCH  13  14
ENDBRANCH  12  13
ENDBRANCH   1  12
TORSDOF 7
