REMARK  Name = ZINC09081076
REMARK  12 active torsions:
REMARK  status: ('A' for Active; 'I' for Inactive)
REMARK    1  A    between atoms: C_1  and  N_2
REMARK    2  A    between atoms: N_2  and  C_3
REMARK    3  A    between atoms: N_2  and  C_4
REMARK    4  A    between atoms: C_7  and  C_10
REMARK    5  A    between atoms: C_10  and  C_12
REMARK    6  A    between atoms: C_10  and  S_27
REMARK    7  A    between atoms: C_12  and  N_13
REMARK    8  A    between atoms: N_13  and  S_14
REMARK    9  A    between atoms: S_14  and  C_17
REMARK   10  A    between atoms: S_27  and  C_30
REMARK   11  A    between atoms: C_33  and  O_36
REMARK   12  A    between atoms: O_36  and  C_37
REMARK                            x       y       z     vdW  Elec       q    Type
REMARK                         _______ _______ _______ _____ _____    ______ ____
ROOT
ATOM      1  C   UNL     1      -0.753   1.593  -1.232  0.00  0.00    +0.181 C 
ENDROOT
BRANCH   1   5
ATOM      2  C   UNL     1       1.248   0.214  -4.748  0.00  0.00    +0.029 A 
ATOM      3  C   UNL     1       1.104   1.577  -4.518  0.00  0.00    +0.023 A 
ATOM      4  C   UNL     1       0.457   2.019  -3.381  0.00  0.00    +0.007 A 
ATOM      5  C   UNL     1      -0.047   1.107  -2.471  0.00  0.00    -0.022 A 
ATOM      6  C   UNL     1       0.099  -0.250  -2.695  0.00  0.00    +0.007 A 
ATOM      7  C   UNL     1       0.740  -0.699  -3.833  0.00  0.00    +0.023 A 
BRANCH   2   9
ATOM      8  C   UNL     1       2.437   0.729  -6.861  0.00  0.00    +0.129 C 
ATOM      9  N   UNL     1       1.902  -0.236  -5.897  0.00  0.00    -0.336 N 
ATOM     10  C   UNL     1       2.053  -1.673  -6.138  0.00  0.00    +0.129 C 
ENDBRANCH   2   9
ENDBRANCH   1   5
BRANCH   1  11
ATOM     11  S   UNL     1      -2.454   0.965  -1.219  0.00  0.00    +0.005 S 
ATOM     12  O   UNL     1      -2.453  -0.454  -1.290  0.00  0.00    -0.169 OA
ATOM     13  O   UNL     1      -3.218   1.639  -0.228  0.00  0.00    -0.169 OA
BRANCH  11  14
ATOM     14  C   UNL     1      -3.143   1.492  -2.753  0.00  0.00    +0.089 A 
ATOM     15  C   UNL     1      -3.789   2.711  -2.837  0.00  0.00    +0.030 A 
ATOM     16  C   UNL     1      -4.324   3.129  -4.040  0.00  0.00    +0.047 A 
ATOM     17  C   UNL     1      -4.224   2.318  -5.161  0.00  0.00    +0.120 A 
ATOM     18  C   UNL     1      -3.581   1.093  -5.073  0.00  0.00    +0.047 A 
ATOM     19  C   UNL     1      -3.042   0.682  -3.869  0.00  0.00    +0.030 A 
BRANCH  17  20
ATOM     20  O   UNL     1      -4.755   2.725  -6.344  0.00  0.00    -0.495 OA
ATOM     21  C   UNL     1      -5.403   3.998  -6.361  0.00  0.00    +0.277 C 
ENDBRANCH  17  20
ENDBRANCH  11  14
ENDBRANCH   1  11
BRANCH   1  22
ATOM     22  C   UNL     1      -0.013   1.086   0.008  0.00  0.00    +0.137 C 
BRANCH  22  23
ATOM     23  N   UNL     1      -0.698   1.558   1.213  0.00  0.00    -0.188 NA
ATOM     24  H   UNL     1      -1.353   2.272   1.151  0.00  0.00    +0.148 HD
BRANCH  23  25
ATOM     25  S   UNL     1      -0.356   0.875   2.682  0.00  0.00    +0.058 S 
ATOM     26  O   UNL     1      -1.151   1.557   3.643  0.00  0.00    -0.153 OA
ATOM     27  O   UNL     1      -0.422  -0.533   2.500  0.00  0.00    -0.153 OA
BRANCH  25  28
ATOM     28  C   UNL     1       1.323   1.256   3.056  0.00  0.00    +0.106 A 
ATOM     29  C   UNL     1       2.332   0.384   2.650  0.00  0.00    +0.029 A 
ATOM     30  C   UNL     1       3.639   0.651   2.918  0.00  0.00    +0.010 A 
ATOM     31  C   UNL     1       3.979   1.818   3.624  0.00  0.00    -0.018 A 
ATOM     32  C   UNL     1       5.317   2.124   3.925  0.00  0.00    +0.008 A 
ATOM     33  C   UNL     1       5.610   3.263   4.610  0.00  0.00    +0.001 A 
ATOM     34  C   UNL     1       4.601   4.133   5.021  0.00  0.00    +0.001 A 
ATOM     35  C   UNL     1       3.294   3.868   4.748  0.00  0.00    +0.008 A 
ATOM     36  C   UNL     1       2.953   2.702   4.041  0.00  0.00    -0.016 A 
ATOM     37  C   UNL     1       1.615   2.395   3.741  0.00  0.00    +0.037 A 
ENDBRANCH  25  28
ENDBRANCH  23  25
ENDBRANCH  22  23
ENDBRANCH   1  22
TORSDOF 9
