REMARK  Name = ZINC58862724
REMARK  12 active torsions:
REMARK  status: ('A' for Active; 'I' for Inactive)
REMARK    1  A    between atoms: C_1  and  C_2
REMARK    2  A    between atoms: C_2  and  O_3
REMARK    3  A    between atoms: O_3  and  C_4
REMARK    4  A    between atoms: C_7  and  S_25
REMARK    5  A    between atoms: C_9  and  N_10
REMARK    6  A    between atoms: N_13  and  C_14
REMARK    7  A    between atoms: C_14  and  C_15
REMARK    8  A    between atoms: C_15  and  C_17
REMARK    9  A    between atoms: C_15  and  N_22
REMARK   10  A    between atoms: N_22  and  C_23
REMARK   11  A    between atoms: N_22  and  C_24
REMARK   12  A    between atoms: S_25  and  N_28
REMARK                            x       y       z     vdW  Elec       q    Type
REMARK                         _______ _______ _______ _____ _____    ______ ____
ROOT
ATOM      1  C   UNL     1      -1.570  -1.879   0.291  0.00  0.00    +0.142 A 
ATOM      2  C   UNL     1      -0.468  -2.718   0.330  0.00  0.00    +0.049 A 
ATOM      3  C   UNL     1      -0.641  -4.089   0.296  0.00  0.00    +0.032 A 
ATOM      4  C   UNL     1      -1.913  -4.627   0.222  0.00  0.00    +0.107 A 
ATOM      5  C   UNL     1      -3.017  -3.797   0.183  0.00  0.00    +0.055 A 
ATOM      6  C   UNL     1      -2.852  -2.421   0.224  0.00  0.00    +0.079 A 
ENDROOT
BRANCH   6   7
ATOM      7  N   UNL     1      -3.970  -1.577   0.190  0.00  0.00    -0.266 N 
ATOM      8  C   UNL     1      -5.056  -1.926  -0.528  0.00  0.00    +0.304 C 
ATOM      9  O   UNL     1      -5.093  -3.004  -1.089  0.00  0.00    -0.253 OA
ATOM     10  N   UNL     1      -6.101  -1.080  -0.624  0.00  0.00    -0.300 N 
ATOM     11  H   UNL     1      -3.963  -0.742   0.683  0.00  0.00    +0.156 HD
ATOM     12  H   UNL     1      -6.072  -0.220  -0.176  0.00  0.00    +0.150 HD
BRANCH  10  13
ATOM     13  C   UNL     1      -7.282  -1.460  -1.404  0.00  0.00    +0.095 C 
BRANCH  13  14
ATOM     14  C   UNL     1      -8.258  -0.283  -1.456  0.00  0.00    -0.014 C 
BRANCH  14  15
ATOM     15  C   UNL     1      -7.608   0.879  -2.159  0.00  0.00    -0.022 A 
ATOM     16  C   UNL     1      -7.020   1.979  -1.627  0.00  0.00    +0.009 A 
ATOM     17  C   UNL     1      -6.481   2.928  -2.475  0.00  0.00    +0.008 A 
ATOM     18  C   UNL     1      -6.557   2.732  -3.814  0.00  0.00    +0.045 A 
ATOM     19  S   UNL     1      -7.404   1.163  -3.910  0.00  0.00    -0.103 S 
ENDBRANCH  14  15
BRANCH  14  20
ATOM     20  N   UNL     1      -9.468  -0.683  -2.187  0.00  0.00    +0.382 N 
ATOM     21  C   UNL     1     -10.162  -1.743  -1.443  0.00  0.00    -0.096 C 
ATOM     22  C   UNL     1     -10.358   0.476  -2.333  0.00  0.00    -0.096 C 
ATOM     23  H   UNL     1      -9.211  -1.027  -3.100  0.00  0.00    -0.082 HD
ENDBRANCH  14  20
ENDBRANCH  13  14
ENDBRANCH  10  13
ENDBRANCH   6   7
BRANCH   4  24
ATOM     24  S   UNL     1      -2.125  -6.376   0.177  0.00  0.00    +0.061 S 
ATOM     25  O   UNL     1      -3.382  -6.616  -0.441  0.00  0.00    -0.153 OA
ATOM     26  O   UNL     1      -0.913  -6.920  -0.325  0.00  0.00    -0.153 OA
BRANCH  24  27
ATOM     27  N   UNL     1      -2.263  -6.893   1.744  0.00  0.00    -0.177 NA
ATOM     28  C   UNL     1      -1.071  -7.275   2.514  0.00  0.00    +0.109 C 
ATOM     29  C   UNL     1      -1.055  -6.482   3.825  0.00  0.00    +0.017 C 
ATOM     30  C   UNL     1      -2.377  -6.700   4.564  0.00  0.00    +0.003 C 
ATOM     31  C   UNL     1      -3.535  -6.189   3.704  0.00  0.00    +0.017 C 
ATOM     32  C   UNL     1      -3.578  -6.973   2.394  0.00  0.00    +0.109 C 
ENDBRANCH  24  27
ENDBRANCH   4  24
BRANCH   1  33
ATOM     33  O   UNL     1      -1.401  -0.530   0.325  0.00  0.00    -0.490 OA
BRANCH  33  35
ATOM     34  C   UNL     1      -0.069   1.484   0.423  0.00  0.00    +0.048 C 
ATOM     35  C   UNL     1      -0.059  -0.046   0.394  0.00  0.00    +0.226 C 
ENDBRANCH  33  35
ENDBRANCH   1  33
TORSDOF 9
