REMARK  Name = ZINC12319992
REMARK  10 active torsions:
REMARK  status: ('A' for Active; 'I' for Inactive)
REMARK    1  A    between atoms: C_1  and  C_2
REMARK    2  A    between atoms: C_7  and  C_22
REMARK    3  A    between atoms: C_9  and  C_13
REMARK    4  A    between atoms: C_10  and  C_12
REMARK    5  A    between atoms: C_13  and  O_15
REMARK    6  A    between atoms: O_15  and  C_16
REMARK    7  A    between atoms: C_26  and  O_28
REMARK    8  A    between atoms: C_31  and  C_33
REMARK    9  A    between atoms: C_33  and  O_35
REMARK   10  A    between atoms: O_35  and  C_36
REMARK                            x       y       z     vdW  Elec       q    Type
REMARK                         _______ _______ _______ _____ _____    ______ ____
ROOT
ATOM      1  C   UNL     1       4.931   6.224   4.794  0.00  0.00    +0.009 C 
ATOM      2  C   UNL     1       4.664   6.812   3.407  0.00  0.00    +0.013 C 
ATOM      3  C   UNL     1       5.593   6.161   2.380  0.00  0.00    +0.055 C 
ATOM      4  C   UNL     1       5.320   4.679   2.317  0.00  0.00    +0.016 C 
ATOM      5  C   UNL     1       4.086   4.189   2.559  0.00  0.00    +0.025 C 
ATOM      6  C   UNL     1       3.817   2.707   2.483  0.00  0.00    +0.092 C 
ATOM      7  C   UNL     1       5.095   1.924   2.554  0.00  0.00    +0.065 C 
ATOM      8  C   UNL     1       6.284   2.506   2.318  0.00  0.00    +0.016 C 
ATOM      9  N   UNL     1       6.355   3.836   2.012  0.00  0.00    -0.321 N 
ATOM     10  C   UNL     1       7.546   1.686   2.392  0.00  0.00    +0.061 C 
ATOM     11  C   UNL     1       3.018   5.042   2.889  0.00  0.00    +0.176 C 
ATOM     12  O   UNL     1       1.917   4.569   3.091  0.00  0.00    -0.291 OA
ATOM     13  C   UNL     1       3.215   6.529   2.998  0.00  0.00    +0.171 C 
ATOM     14  H   UNL     1       7.255   4.227   1.514  0.00  0.00    +0.152 HD
ENDROOT
BRANCH   6  15
ATOM     15  C   UNL     1       3.119   2.397   1.183  0.00  0.00    -0.032 A 
ATOM     16  C   UNL     1       3.735   2.692  -0.019  0.00  0.00    +0.005 A 
ATOM     17  C   UNL     1       3.096   2.409  -1.212  0.00  0.00    +0.004 A 
ATOM     18  C   UNL     1       1.842   1.830  -1.206  0.00  0.00    +0.045 A 
ATOM     19  C   UNL     1       1.223   1.532  -0.001  0.00  0.00    +0.117 A 
ATOM     20  C   UNL     1       1.863   1.822   1.195  0.00  0.00    +0.050 A 
BRANCH  19  21
ATOM     21  O   UNL     1      -0.011   0.963   0.007  0.00  0.00    -0.507 OA
ATOM     22  H   UNL     1      -0.501   0.727   0.963  0.00  0.00    +0.292 HD
ENDBRANCH  19  21
ENDBRANCH   6  15
BRANCH   7  23
ATOM     23  C   UNL     1       5.048   0.547   2.876  0.00  0.00    +0.338 C 
ATOM     24  O   UNL     1       6.078  -0.099   2.938  0.00  0.00    -0.245 OA
BRANCH  23  25
ATOM     25  O   UNL     1       3.862  -0.050   3.116  0.00  0.00    -0.458 OA
BRANCH  25  26
ATOM     26  C   UNL     1       3.890  -1.443   3.435  0.00  0.00    +0.177 C 
ATOM     27  C   UNL     1       3.780  -2.263   2.148  0.00  0.00    +0.044 C 
ATOM     28  C   UNL     1       3.809  -3.754   2.490  0.00  0.00    +0.004 C 
ATOM     29  C   UNL     1       2.634  -4.090   3.411  0.00  0.00    +0.000 C 
ATOM     30  C   UNL     1       2.744  -3.269   4.698  0.00  0.00    +0.004 C 
ATOM     31  C   UNL     1       2.715  -1.778   4.356  0.00  0.00    +0.044 C 
ENDBRANCH  25  26
ENDBRANCH  23  25
ENDBRANCH   7  23
BRANCH  13  32
ATOM     32  C   UNL     1       2.277   7.086   4.039  0.00  0.00    +0.318 C 
ATOM     33  O   UNL     1       2.720   7.660   5.005  0.00  0.00    -0.250 OA
BRANCH  32  34
ATOM     34  O   UNL     1       0.951   6.946   3.891  0.00  0.00    -0.467 OA
ATOM     35  C   UNL     1       0.108   7.507   4.932  0.00  0.00    +0.280 C 
ENDBRANCH  32  34
ENDBRANCH  13  32
TORSDOF 7
