REMARK  Name = ZINC09630218
REMARK  8 active torsions:
REMARK  status: ('A' for Active; 'I' for Inactive)
REMARK    1  A    between atoms: C_1  and  C_2
REMARK    2  A    between atoms: C_2  and  O_3
REMARK    3  A    between atoms: O_3  and  C_4
REMARK    4  A    between atoms: C_12  and  N_17
REMARK    5  A    between atoms: C_13  and  C_14
REMARK    6  A    between atoms: C_18  and  C_20
REMARK    7  A    between atoms: C_20  and  S_21
REMARK    8  A    between atoms: S_21  and  C_22
REMARK                            x       y       z     vdW  Elec       q    Type
REMARK                         _______ _______ _______ _____ _____    ______ ____
ROOT
ATOM      1  C   UNL     1       4.804  13.742   1.085  0.00  0.00    +0.403 C 
ATOM      2  O   UNL     1       5.801  14.417   1.252  0.00  0.00    -0.226 OA
ATOM      3  N   UNL     1       4.840  12.684   0.251  0.00  0.00    -0.262 N 
ATOM      4  C   UNL     1       6.070  12.321  -0.470  0.00  0.00    +0.116 C 
ATOM      5  C   UNL     1       6.554  10.949   0.002  0.00  0.00    +0.056 C 
ATOM      6  C   UNL     1       5.380   9.977   0.004  0.00  0.00    -0.020 A 
ATOM      7  C   UNL     1       4.104  10.418   0.018  0.00  0.00    +0.013 A 
ATOM      8  S   UNL     1       3.114   8.951   0.019  0.00  0.00    -0.076 S 
ATOM      9  C   UNL     1       4.377   7.763   0.001  0.00  0.00    +0.084 A 
ATOM     10  C   UNL     1       5.532   8.531  -0.001  0.00  0.00    +0.068 A 
ATOM     11  C   UNL     1       3.646  11.845   0.026  0.00  0.00    +0.153 C 
ENDROOT
BRANCH  10  12
ATOM     12  C   UNL     1       6.859   7.907  -0.010  0.00  0.00    +0.244 C 
ATOM     13  O   UNL     1       7.405   7.654  -1.068  0.00  0.00    -0.270 OA
ATOM     14  N   UNL     1       7.474   7.613   1.153  0.00  0.00    -0.325 N 
ATOM     15  H   UNL     1       7.039   7.815   1.996  0.00  0.00    +0.145 HD
ATOM     16  H   UNL     1       8.352   7.200   1.146  0.00  0.00    +0.145 HD
ENDBRANCH  10  12
BRANCH   9  17
ATOM     17  N   UNL     1       4.260   6.382  -0.005  0.00  0.00    -0.279 N 
ATOM     18  C   UNL     1       3.040   5.809   0.003  0.00  0.00    +0.228 C 
ATOM     19  O   UNL     1       2.045   6.501   0.016  0.00  0.00    -0.275 OA
ATOM     20  H   UNL     1       5.056   5.828  -0.015  0.00  0.00    +0.155 HD
BRANCH  18  21
ATOM     21  C   UNL     1       2.913   4.307  -0.003  0.00  0.00    +0.170 C 
BRANCH  21  22
ATOM     22  S   UNL     1       1.158   3.848   0.011  0.00  0.00    -0.116 S 
BRANCH  22  23
ATOM     23  C   UNL     1       1.178   2.086   0.002  0.00  0.00    +0.008 A 
ATOM     24  C   UNL     1      -0.017   1.377   0.010  0.00  0.00    +0.016 A 
ATOM     25  C   UNL     1       0.002  -0.004   0.002  0.00  0.00    +0.021 A 
ATOM     26  C   UNL     1       1.209  -0.681  -0.013  0.00  0.00    +0.041 A 
ATOM     27  C   UNL     1       2.401   0.023  -0.020  0.00  0.00    +0.021 A 
ATOM     28  C   UNL     1       2.388   1.404  -0.013  0.00  0.00    +0.016 A 
ATOM     29 CL   UNL     1       1.228  -2.417  -0.021  0.00  0.00    -0.084 Cl
ENDBRANCH  22  23
ENDBRANCH  21  22
ENDBRANCH  18  21
ENDBRANCH   9  17
BRANCH   1  30
ATOM     30  O   UNL     1       3.665  14.052   1.731  0.00  0.00    -0.451 OA
BRANCH  30  32
ATOM     31  C   UNL     1       2.324  15.398   3.255  0.00  0.00    +0.048 C 
ATOM     32  C   UNL     1       3.700  15.204   2.614  0.00  0.00    +0.230 C 
ENDBRANCH  30  32
ENDBRANCH   1  30
TORSDOF 7
