REMARK  Name = ZINC59170401
REMARK  11 active torsions:
REMARK  status: ('A' for Active; 'I' for Inactive)
REMARK    1  A    between atoms: C_1  and  C_2
REMARK    2  A    between atoms: C_5  and  N_8
REMARK    3  A    between atoms: C_9  and  C_11
REMARK    4  A    between atoms: C_15  and  C_33
REMARK    5  A    between atoms: C_17  and  O_32
REMARK    6  A    between atoms: N_21  and  C_22
REMARK    7  A    between atoms: C_25  and  S_28
REMARK    8  A    between atoms: S_28  and  N_31
REMARK    9  A    between atoms: C_33  and  C_34
REMARK   10  A    between atoms: C_33  and  C_35
REMARK   11  A    between atoms: C_33  and  C_36
REMARK                            x       y       z     vdW  Elec       q    Type
REMARK                         _______ _______ _______ _____ _____    ______ ____
ROOT
ATOM      1  C   UNL     1       0.352  -6.290   1.110  0.00  0.00    +0.098 A 
ATOM      2  C   UNL     1       0.356  -7.009   2.298  0.00  0.00    +0.030 A 
ATOM      3  C   UNL     1       0.433  -8.469   2.201  0.00  0.00    +0.022 A 
ATOM      4  C   UNL     1       0.177  -9.276   3.317  0.00  0.00    +0.016 A 
ATOM      5  C   UNL     1       0.247 -10.636   3.202  0.00  0.00    -0.038 A 
ATOM      6  C   UNL     1       0.572 -11.226   1.990  0.00  0.00    +0.053 A 
ATOM      7  C   UNL     1       0.832 -10.449   0.874  0.00  0.00    +0.160 A 
ATOM      8  C   UNL     1       0.766  -9.062   0.970  0.00  0.00    +0.179 A 
ATOM      9  O   UNL     1       1.024  -8.281  -0.108  0.00  0.00    -0.435 OA
ATOM     10  C   UNL     1       0.419  -7.064  -0.145  0.00  0.00    +0.212 A 
ATOM     11  N   UNL     1      -0.086  -6.588  -1.263  0.00  0.00    -0.325 N 
ATOM     12  H   UNL     1      -0.605  -5.769  -1.250  0.00  0.00    +0.169 HD
ENDROOT
BRANCH  11  13
ATOM     13  C   UNL     1       0.121  -7.249  -2.442  0.00  0.00    +0.042 A 
ATOM     14  C   UNL     1       1.392  -7.734  -2.761  0.00  0.00    +0.027 A 
ATOM     15  C   UNL     1       1.594  -8.399  -3.953  0.00  0.00    +0.030 A 
ATOM     16  C   UNL     1       0.541  -8.586  -4.831  0.00  0.00    +0.105 A 
ATOM     17  C   UNL     1      -0.720  -8.108  -4.522  0.00  0.00    +0.030 A 
ATOM     18  C   UNL     1      -0.938  -7.446  -3.332  0.00  0.00    +0.027 A 
BRANCH  16  19
ATOM     19  S   UNL     1       0.808  -9.437  -6.351  0.00  0.00    +0.056 S 
ATOM     20  O   UNL     1      -0.210  -9.004  -7.243  0.00  0.00    -0.153 OA
ATOM     21  O   UNL     1       2.191  -9.306  -6.652  0.00  0.00    -0.153 OA
BRANCH  19  22
ATOM     22  N   UNL     1       0.536 -11.045  -6.066  0.00  0.00    -0.204 NA
ATOM     23  H   UNL     1       0.204 -11.614  -6.778  0.00  0.00    +0.144 HD
ATOM     24  H   UNL     1       0.709 -11.418  -5.187  0.00  0.00    +0.144 HD
ENDBRANCH  19  22
ENDBRANCH  16  19
ENDBRANCH  11  13
BRANCH   1  26
ATOM     25  N   UNL     1       0.413  -4.143  -0.055  0.00  0.00    -0.281 N 
ATOM     26  C   UNL     1       0.277  -4.819   1.103  0.00  0.00    +0.253 C 
ATOM     27  O   UNL     1       0.093  -4.214   2.142  0.00  0.00    -0.270 OA
ATOM     28  H   UNL     1       0.506  -4.627  -0.891  0.00  0.00    +0.155 HD
BRANCH  25  33
ATOM     29  C   UNL     1       0.435   1.529  -0.044  0.00  0.00    +0.044 C 
ATOM     30  C   UNL     1       0.430   0.022  -0.047  0.00  0.00    -0.050 A 
ATOM     31  C   UNL     1       1.222  -0.669  -0.945  0.00  0.00    +0.005 A 
ATOM     32  C   UNL     1       1.219  -2.050  -0.951  0.00  0.00    +0.023 A 
ATOM     33  C   UNL     1       0.419  -2.745  -0.052  0.00  0.00    +0.034 A 
ATOM     34  C   UNL     1      -0.375  -2.047   0.849  0.00  0.00    +0.023 A 
ATOM     35  C   UNL     1      -0.363  -0.666   0.853  0.00  0.00    +0.005 A 
ENDBRANCH  25  33
ENDBRANCH   1  26
BRANCH   5  36
ATOM     36  C   UNL     1      -0.029 -11.501   4.404  0.00  0.00    -0.013 C 
ATOM     37  C   UNL     1      -1.452 -11.242   4.904  0.00  0.00    +0.015 C 
ATOM     38  C   UNL     1       0.114 -12.974   4.016  0.00  0.00    +0.015 C 
ATOM     39  C   UNL     1       0.970 -11.167   5.514  0.00  0.00    +0.015 C 
ENDBRANCH   5  36
BRANCH   7  40
ATOM     40  O   UNL     1       1.150 -11.037  -0.309  0.00  0.00    -0.503 OA
ATOM     41  H   UNL     1       0.386 -11.233  -0.869  0.00  0.00    +0.292 HD
ENDBRANCH   7  40
TORSDOF 7
