REMARK  Name = ZINC58244568
REMARK  9 active torsions:
REMARK  status: ('A' for Active; 'I' for Inactive)
REMARK    1  A    between atoms: C_1  and  C_2
REMARK    2  A    between atoms: C_2  and  C_4
REMARK    3  A    between atoms: C_2  and  N_18
REMARK    4  A    between atoms: C_7  and  N_10
REMARK    5  A    between atoms: C_12  and  C_15
REMARK    6  A    between atoms: N_21  and  C_22
REMARK    7  A    between atoms: C_22  and  C_23
REMARK    8  A    between atoms: C_23  and  C_24
REMARK    9  A    between atoms: N_28  and  C_29
REMARK                            x       y       z     vdW  Elec       q    Type
REMARK                         _______ _______ _______ _____ _____    ______ ____
ROOT
ATOM      1  C   UNL     1      -0.019   1.526   0.010  0.00  0.00    +0.033 C 
ATOM      2  C   UNL     1       0.002  -0.004   0.002  0.00  0.00    +0.102 C 
ENDROOT
BRANCH   2   3
ATOM      3  C   UNL     1       0.707  -0.490  -1.238  0.00  0.00    -0.027 A 
ATOM      4  C   UNL     1       2.089  -0.510  -1.282  0.00  0.00    +0.007 A 
ATOM      5  C   UNL     1       2.739  -0.956  -2.417  0.00  0.00    +0.028 A 
ATOM      6  C   UNL     1       2.002  -1.383  -3.514  0.00  0.00    +0.067 A 
ATOM      7  C   UNL     1       0.615  -1.362  -3.466  0.00  0.00    +0.028 A 
ATOM      8  C   UNL     1      -0.029  -0.920  -2.327  0.00  0.00    +0.007 A 
BRANCH   6   9
ATOM      9  N   UNL     1       2.659  -1.835  -4.668  0.00  0.00    -0.219 N 
ATOM     10  C   UNL     1       2.078  -2.274  -5.806  0.00  0.00    +0.149 A 
ATOM     11  C   UNL     1       3.089  -2.612  -6.660  0.00  0.00    +0.167 A 
ATOM     12  N   UNL     1       4.261  -2.381  -6.045  0.00  0.00    -0.124 NA
ATOM     13  N   UNL     1       4.045  -1.914  -4.865  0.00  0.00    -0.060 NA
BRANCH  11  14
ATOM     14  C   UNL     1       2.922  -3.142  -8.026  0.00  0.00    +0.263 C 
ATOM     15  O   UNL     1       1.806  -3.312  -8.480  0.00  0.00    -0.269 OA
ATOM     16  N   UNL     1       4.005  -3.438  -8.771  0.00  0.00    -0.324 N 
ATOM     17  H   UNL     1       4.894  -3.303  -8.409  0.00  0.00    +0.145 HD
ATOM     18  H   UNL     1       3.895  -3.787  -9.670  0.00  0.00    +0.145 HD
ENDBRANCH  11  14
ENDBRANCH   6   9
ENDBRANCH   2   3
BRANCH   2  19
ATOM     19  N   UNL     1       0.711  -0.489   1.189  0.00  0.00    -0.293 N 
ATOM     20  C   UNL     1       0.051  -0.633   2.355  0.00  0.00    +0.300 C 
ATOM     21  O   UNL     1      -1.132  -0.361   2.423  0.00  0.00    -0.253 OA
ATOM     22  N   UNL     1       0.703  -1.080   3.447  0.00  0.00    -0.299 N 
ATOM     23  H   UNL     1       1.654  -0.707   1.135  0.00  0.00    +0.151 HD
ATOM     24  H   UNL     1       1.647  -1.298   3.394  0.00  0.00    +0.150 HD
BRANCH  22  25
ATOM     25  C   UNL     1      -0.014  -1.237   4.715  0.00  0.00    +0.113 C 
BRANCH  25  26
ATOM     26  C   UNL     1       0.950  -1.754   5.785  0.00  0.00    +0.091 C 
BRANCH  26  27
ATOM     27  C   UNL     1       0.212  -1.915   7.090  0.00  0.00    +0.088 A 
ATOM     28  N   UNL     1      -0.477  -2.963   7.449  0.00  0.00    -0.350 N 
ATOM     29  C   UNL     1      -0.993  -2.756   8.670  0.00  0.00    +0.101 A 
ATOM     30  C   UNL     1      -0.609  -1.533   9.082  0.00  0.00    +0.104 A 
ATOM     31  N   UNL     1       0.160  -1.001   8.082  0.00  0.00    -0.339 N 
ATOM     32  C   UNL     1       0.804   0.315   8.087  0.00  0.00    +0.150 C 
ATOM     33  H   UNL     1      -0.597  -3.765   6.918  0.00  0.00    +0.166 HD
ENDBRANCH  26  27
ENDBRANCH  25  26
ENDBRANCH  22  25
ENDBRANCH   2  19
TORSDOF 7
