REMARK  Name = ZINC38745074
REMARK  4 active torsions:
REMARK  status: ('A' for Active; 'I' for Inactive)
REMARK    1  A    between atoms: C_4  and  C_7
REMARK    2  A    between atoms: C_9  and  C_13
REMARK    3  A    between atoms: C_17  and  C_22
REMARK    4  A    between atoms: C_22  and  C_23
REMARK                            x       y       z     vdW  Elec       q    Type
REMARK                         _______ _______ _______ _____ _____    ______ ____
ROOT
ATOM      1  C   UNL     1       5.763  -2.987  -1.332  0.00  0.00    +0.182 C 
ATOM      2  N   UNL     1       7.232  -3.216  -1.363  0.00  0.00    -0.265 N 
ATOM      3  N   UNL     1       7.804  -3.118  -2.597  0.00  0.00    -0.224 N 
ATOM      4  C   UNL     1       8.965  -3.547  -3.216  0.00  0.00    +0.156 A 
ATOM      5  N   UNL     1       8.966  -3.085  -4.431  0.00  0.00    -0.132 NA
ATOM      6  N   UNL     1       7.894  -2.408  -4.647  0.00  0.00    -0.121 NA
ATOM      7  C   UNL     1       7.156  -2.416  -3.581  0.00  0.00    +0.210 A 
ATOM      8  S   UNL     1       5.621  -1.916  -2.828  0.00  0.00    -0.058 S 
ATOM      9  H   UNL     1       7.704  -2.622  -0.698  0.00  0.00    +0.168 HD
ENDROOT
BRANCH   1  12
ATOM     10  C   UNL     1       3.699  -0.689  -0.037  0.00  0.00    +0.091 C 
ATOM     11  C   UNL     1       3.832  -2.029  -0.051  0.00  0.00    +0.034 C 
ATOM     12  C   UNL     1       5.335  -2.245  -0.065  0.00  0.00    +0.185 C 
ATOM     13  N   UNL     1       5.871  -0.874  -0.056  0.00  0.00    -0.177 NA
ATOM     14  N   UNL     1       4.919  -0.090  -0.047  0.00  0.00    -0.154 NA
BRANCH  10  18
ATOM     15  C   UNL     1      -0.017   1.379   0.010  0.00  0.00    +0.000 A 
ATOM     16  C   UNL     1       1.169   2.092   0.002  0.00  0.00    +0.001 A 
ATOM     17  C   UNL     1       2.377   1.426  -0.013  0.00  0.00    +0.010 A 
ATOM     18  C   UNL     1       2.402   0.033  -0.021  0.00  0.00    +0.002 A 
ATOM     19  C   UNL     1       1.205  -0.680  -0.013  0.00  0.00    +0.010 A 
ATOM     20  C   UNL     1       0.002  -0.004   0.002  0.00  0.00    +0.001 A 
ENDBRANCH  10  18
ENDBRANCH   1  12
BRANCH   4  21
ATOM     21  C   UNL     1      10.039  -4.399  -2.590  0.00  0.00    +0.113 C 
BRANCH  21  22
ATOM     22  C   UNL     1       9.728  -5.854  -2.827  0.00  0.00    -0.040 A 
ATOM     23  C   UNL     1       8.958  -6.553  -1.915  0.00  0.00    +0.005 A 
ATOM     24  C   UNL     1       8.672  -7.888  -2.132  0.00  0.00    +0.020 A 
ATOM     25  C   UNL     1       9.156  -8.524  -3.261  0.00  0.00    +0.041 A 
ATOM     26  C   UNL     1       9.925  -7.824  -4.173  0.00  0.00    +0.020 A 
ATOM     27  C   UNL     1      10.206  -6.488  -3.958  0.00  0.00    +0.005 A 
ATOM     28 CL   UNL     1       8.797 -10.201  -3.533  0.00  0.00    -0.084 Cl
ENDBRANCH  21  22
ENDBRANCH   4  21
TORSDOF 4
