REMARK  Name = ZINC39972856
REMARK  12 active torsions:
REMARK  status: ('A' for Active; 'I' for Inactive)
REMARK    1  A    between atoms: C_1  and  C_2
REMARK    2  A    between atoms: C_2  and  O_3
REMARK    3  A    between atoms: O_3  and  C_4
REMARK    4  A    between atoms: C_7  and  C_10
REMARK    5  A    between atoms: C_11  and  C_32
REMARK    6  A    between atoms: C_13  and  N_21
REMARK    7  A    between atoms: C_14  and  C_15
REMARK    8  A    between atoms: C_15  and  O_17
REMARK    9  A    between atoms: O_17  and  C_18
REMARK   10  A    between atoms: C_18  and  C_19
REMARK   11  A    between atoms: C_18  and  C_20
REMARK   12  A    between atoms: N_24  and  C_25
REMARK                            x       y       z     vdW  Elec       q    Type
REMARK                         _______ _______ _______ _____ _____    ______ ____
ROOT
ATOM      1  C   UNL     1       1.078  -6.026  -1.823  0.00  0.00    +0.008 A 
ATOM      2  C   UNL     1       1.802  -6.804  -0.978  0.00  0.00    -0.003 A 
ATOM      3  S   UNL     1       1.609  -8.437  -1.658  0.00  0.00    -0.077 S 
ATOM      4  C   UNL     1       0.630  -8.098  -2.978  0.00  0.00    +0.088 A 
ATOM      5  C   UNL     1       0.430  -6.728  -2.916  0.00  0.00    +0.095 A 
ATOM      6  C   UNL     1       2.581  -6.386   0.243  0.00  0.00    +0.052 C 
ENDROOT
BRANCH   1  10
ATOM      7  C   UNL     1       0.723  -1.821  -1.295  0.00  0.00    +0.121 A 
ATOM      8  C   UNL     1       0.194  -2.685  -0.346  0.00  0.00    +0.046 A 
ATOM      9  C   UNL     1       0.307  -4.049  -0.514  0.00  0.00    +0.012 A 
ATOM     10  C   UNL     1       0.954  -4.560  -1.639  0.00  0.00    -0.016 A 
ATOM     11  C   UNL     1       1.485  -3.689  -2.590  0.00  0.00    +0.012 A 
ATOM     12  C   UNL     1       1.363  -2.326  -2.418  0.00  0.00    +0.046 A 
BRANCH   7  13
ATOM     13  O   UNL     1       0.609  -0.477  -1.126  0.00  0.00    -0.492 OA
BRANCH  13  15
ATOM     14  C   UNL     1      -0.091   1.504   0.068  0.00  0.00    +0.048 C 
ATOM     15  C   UNL     1      -0.061  -0.025   0.052  0.00  0.00    +0.225 C 
ENDBRANCH  13  15
ENDBRANCH   7  13
ENDBRANCH   1  10
BRANCH   4  16
ATOM     16  N   UNL     1       0.131  -8.989  -3.914  0.00  0.00    -0.263 N 
ATOM     17  C   UNL     1       0.422 -10.301  -3.819  0.00  0.00    +0.309 C 
ATOM     18  O   UNL     1       1.124 -10.704  -2.912  0.00  0.00    -0.252 OA
ATOM     19  N   UNL     1      -0.064 -11.167  -4.730  0.00  0.00    -0.268 N 
ATOM     20  H   UNL     1      -0.429  -8.668  -4.638  0.00  0.00    +0.157 HD
ATOM     21  H   UNL     1      -0.676 -10.857  -5.416  0.00  0.00    +0.156 HD
BRANCH  19  22
ATOM     22  C   UNL     1       0.315 -12.514  -4.687  0.00  0.00    +0.049 A 
ATOM     23  C   UNL     1       0.539 -13.135  -3.466  0.00  0.00    +0.024 A 
ATOM     24  C   UNL     1       0.911 -14.464  -3.426  0.00  0.00    +0.002 A 
ATOM     25  C   UNL     1       1.062 -15.177  -4.602  0.00  0.00    +0.001 A 
ATOM     26  C   UNL     1       0.840 -14.562  -5.820  0.00  0.00    +0.017 A 
ATOM     27  C   UNL     1       0.462 -13.234  -5.866  0.00  0.00    +0.039 A 
ATOM     28 BR   UNL     1       0.151 -12.396  -7.532  0.00  0.00    -0.048 Br
ENDBRANCH  19  22
ENDBRANCH   4  16
BRANCH   5  29
ATOM     29  C   UNL     1      -0.389  -6.026  -3.904  0.00  0.00    +0.342 C 
ATOM     30  O   UNL     1       0.123  -5.585  -4.916  0.00  0.00    -0.245 OA
BRANCH  29  31
ATOM     31  O   UNL     1      -1.712  -5.866  -3.693  0.00  0.00    -0.458 OA
BRANCH  31  32
ATOM     32  C   UNL     1      -2.450  -5.170  -4.699  0.00  0.00    +0.171 C 
ATOM     33  C   UNL     1      -2.971  -6.170  -5.733  0.00  0.00    +0.052 C 
ATOM     34  C   UNL     1      -3.630  -4.441  -4.054  0.00  0.00    +0.052 C 
ENDBRANCH  31  32
ENDBRANCH  29  31
ENDBRANCH   5  29
TORSDOF 8
