REMARK  Name = ZINC45139107
REMARK  4 active torsions:
REMARK  status: ('A' for Active; 'I' for Inactive)
REMARK    1  A    between atoms: C_1  and  C_2
REMARK    2  A    between atoms: C_2  and  C_18
REMARK    3  A    between atoms: C_4  and  N_6
REMARK    4  A    between atoms: C_12  and  C_15
REMARK                            x       y       z     vdW  Elec       q    Type
REMARK                         _______ _______ _______ _____ _____    ______ ____
ROOT
ATOM      1  N   UNL     1       1.414  -1.954   0.875  0.00  0.00    -0.296 N 
ATOM      2  C   UNL     1       2.431  -2.349   1.667  0.00  0.00    +0.302 C 
ATOM      3  O   UNL     1       2.816  -1.629   2.568  0.00  0.00    -0.253 OA
ATOM      4  N   UNL     1       3.022  -3.543   1.459  0.00  0.00    -0.286 N 
ATOM      5  C   UNL     1       2.648  -4.372   0.305  0.00  0.00    +0.110 C 
ATOM      6  C   UNL     1       2.265  -5.769   0.805  0.00  0.00    +0.034 C 
ATOM      7  C   UNL     1       3.412  -6.338   1.643  0.00  0.00    +0.105 C 
ATOM      8  C   UNL     1       3.653  -5.440   2.858  0.00  0.00    +0.034 C 
ATOM      9  C   UNL     1       4.055  -4.037   2.379  0.00  0.00    +0.110 C 
ATOM     10  H   UNL     1       1.156  -2.493   0.112  0.00  0.00    +0.151 HD
ENDROOT
BRANCH   1  14
ATOM     11  C   UNL     1      -0.023   1.525   0.013  0.00  0.00    +0.013 C 
ATOM     12  C   UNL     1      -0.001  -0.005   0.004  0.00  0.00    -0.015 C 
ATOM     13  C   UNL     1      -0.827  -0.730   1.069  0.00  0.00    +0.031 C 
ATOM     14  C   UNL     1       0.700  -0.709   1.169  0.00  0.00    +0.081 C 
ATOM     15  C   UNL     1       0.100  -0.655  -1.377  0.00  0.00    +0.013 C 
ENDBRANCH   1  14
BRANCH   7  16
ATOM     16  C   UNL     1       3.052  -7.726   2.108  0.00  0.00    +0.359 C 
ATOM     17  O   UNL     1       3.898  -8.604   2.118  0.00  0.00    -0.246 OA
ATOM     18  O   UNL     1       1.916  -7.971   2.475  0.00  0.00    -0.246 OA
ENDBRANCH   7  16
TORSDOF 2
