REMARK  Name = ZINC00045863
REMARK  3 active torsions:
REMARK  status: ('A' for Active; 'I' for Inactive)
REMARK    1  A    between atoms: C_7  and  C_11
REMARK    2  A    between atoms: N_12  and  C_13
REMARK    3  A    between atoms: C_17  and  N_19
REMARK                            x       y       z     vdW  Elec       q    Type
REMARK                         _______ _______ _______ _____ _____    ______ ____
ROOT
ATOM      1  C   UNL     1       0.699  -3.253  -0.020  0.00  0.00    +0.121 C 
ATOM      2  N   UNL     1      -0.594  -3.068  -0.007  0.00  0.00    -0.255 NA
ENDROOT
BRANCH   1   9
ATOM      3  C   UNL     1      -0.017   1.373   0.010  0.00  0.00    +0.001 A 
ATOM      4  C   UNL     1       1.172   2.090   0.002  0.00  0.00    +0.002 A 
ATOM      5  C   UNL     1       2.385   1.437  -0.013  0.00  0.00    +0.026 A 
ATOM      6  C   UNL     1       2.425   0.046  -0.021  0.00  0.00    +0.047 A 
ATOM      7  C   UNL     1       1.221  -0.677  -0.013  0.00  0.00    +0.008 A 
ATOM      8  C   UNL     1       0.002  -0.004   0.002  0.00  0.00    +0.010 A 
ATOM      9  C   UNL     1       1.605  -2.101  -0.024  0.00  0.00    +0.018 A 
ATOM     10  C   UNL     1       2.969  -2.134  -0.037  0.00  0.00    +0.093 A 
ATOM     11  N   UNL     1       3.458  -0.868  -0.035  0.00  0.00    -0.360 N 
ATOM     12  H   UNL     1       4.400  -0.638  -0.043  0.00  0.00    +0.165 HD
ENDBRANCH   1   9
BRANCH   2  13
ATOM     13  C   UNL     1      -1.440  -4.144  -0.004  0.00  0.00    +0.066 A 
ATOM     14  C   UNL     1      -1.207  -5.222  -0.861  0.00  0.00    +0.029 A 
ATOM     15  C   UNL     1      -2.063  -6.303  -0.853  0.00  0.00    +0.024 A 
ATOM     16  C   UNL     1      -3.152  -6.322   0.003  0.00  0.00    +0.071 A 
ATOM     17  C   UNL     1      -3.388  -5.256   0.855  0.00  0.00    +0.146 A 
ATOM     18  C   UNL     1      -2.536  -4.172   0.861  0.00  0.00    +0.062 A 
ATOM     19 CL   UNL     1      -4.225  -7.686   0.006  0.00  0.00    -0.081 Cl
BRANCH  17  20
ATOM     20  N   UNL     1      -4.555  -5.284   1.766  0.00  0.00    +0.058 N 
ATOM     21  O   UNL     1      -4.763  -4.355   2.510  0.00  0.00    -0.126 OA
ATOM     22  O   UNL     1      -5.300  -6.237   1.765  0.00  0.00    -0.126 OA
ENDBRANCH  17  20
ENDBRANCH   2  13
TORSDOF 3
