REMARK  Name = ZINC05025860
REMARK  8 active torsions:
REMARK  status: ('A' for Active; 'I' for Inactive)
REMARK    1  A    between atoms: C_1  and  C_2
REMARK    2  A    between atoms: C_2  and  C_3
REMARK    3  A    between atoms: C_8  and  N_9
REMARK    4  A    between atoms: C_10  and  C_12
REMARK    5  A    between atoms: C_12  and  S_13
REMARK    6  A    between atoms: S_13  and  C_14
REMARK    7  A    between atoms: C_17  and  C_20
REMARK    8  A    between atoms: N_18  and  N_19
REMARK                            x       y       z     vdW  Elec       q    Type
REMARK                         _______ _______ _______ _____ _____    ______ ____
ROOT
ATOM      1  C   UNL     1       1.892  -4.243   0.027  0.00  0.00    +0.209 A 
ATOM      2  N   UNL     1       0.580  -4.190   0.076  0.00  0.00    -0.121 NA
ATOM      3  N   UNL     1       0.189  -2.966   0.123  0.00  0.00    -0.127 NA
ATOM      4  C   UNL     1       1.227  -2.163   0.096  0.00  0.00    +0.184 A 
ATOM      5  N   UNL     1       2.350  -2.956   0.038  0.00  0.00    -0.224 N 
ENDROOT
BRANCH   4   6
ATOM      6  C   UNL     1       1.195  -0.685   0.129  0.00  0.00    +0.056 A 
ATOM      7  C   UNL     1       1.980   0.053  -0.758  0.00  0.00    +0.014 A 
ATOM      8  C   UNL     1       1.947   1.431  -0.721  0.00  0.00    +0.001 A 
ATOM      9  C   UNL     1       1.137   2.084   0.192  0.00  0.00    +0.003 A 
ATOM     10  C   UNL     1       0.356   1.361   1.074  0.00  0.00    +0.039 A 
ATOM     11  C   UNL     1       0.380  -0.021   1.050  0.00  0.00    +0.134 A 
ATOM     12  F   UNL     1      -0.384  -0.728   1.912  0.00  0.00    -0.205 F 
ENDBRANCH   4   6
BRANCH   5  13
ATOM     13  N   UNL     1       3.651  -2.542  -0.000  0.00  0.00    -0.295 N 
ATOM     14  H   UNL     1       4.030  -2.454   0.931  0.00  0.00    +0.163 HD
ATOM     15  H   UNL     1       4.213  -3.165  -0.561  0.00  0.00    +0.163 HD
ENDBRANCH   5  13
BRANCH   1  16
ATOM     16  S   UNL     1       2.877  -5.702  -0.040  0.00  0.00    -0.075 S 
BRANCH  16  17
ATOM     17  C   UNL     1       1.577  -6.960  -0.020  0.00  0.00    +0.173 C 
BRANCH  17  19
ATOM     18  N   UNL     1       1.422  -9.429  -0.068  0.00  0.00    -0.285 N 
ATOM     19  C   UNL     1       2.203  -8.331  -0.072  0.00  0.00    +0.227 C 
ATOM     20  O   UNL     1       3.409  -8.445  -0.118  0.00  0.00    -0.275 OA
ATOM     21  H   UNL     1       0.456  -9.338  -0.096  0.00  0.00    +0.155 HD
BRANCH  18  27
ATOM     22  C   UNL     1       1.312 -11.762   0.548  0.00  0.00    -0.026 A 
ATOM     23  C   UNL     1       1.889 -13.016   0.591  0.00  0.00    +0.005 A 
ATOM     24  C   UNL     1       3.153 -13.216   0.066  0.00  0.00    +0.000 A 
ATOM     25  C   UNL     1       3.843 -12.161  -0.503  0.00  0.00    +0.002 A 
ATOM     26  C   UNL     1       3.270 -10.906  -0.553  0.00  0.00    +0.023 A 
ATOM     27  C   UNL     1       2.003 -10.701  -0.022  0.00  0.00    +0.037 A 
BRANCH  22  29
ATOM     28  C   UNL     1      -1.104 -11.661   0.002  0.00  0.00    +0.009 C 
ATOM     29  C   UNL     1      -0.065 -11.545   1.119  0.00  0.00    +0.033 C 
ENDBRANCH  22  29
ENDBRANCH  18  27
ENDBRANCH  17  19
ENDBRANCH  16  17
ENDBRANCH   1  16
TORSDOF 7
