REMARK  Name = ZINC02256271
REMARK  14 active torsions:
REMARK  status: ('A' for Active; 'I' for Inactive)
REMARK    1  A    between atoms: C_1  and  C_2
REMARK    2  A    between atoms: C_2  and  O_3
REMARK    3  A    between atoms: O_3  and  C_4
REMARK    4  A    between atoms: C_4  and  C_6
REMARK    5  A    between atoms: C_7  and  N_20
REMARK    6  A    between atoms: C_10  and  O_18
REMARK    7  A    between atoms: C_11  and  O_16
REMARK    8  A    between atoms: O_16  and  C_17
REMARK    9  A    between atoms: O_18  and  C_19
REMARK   10  A    between atoms: C_21  and  C_23
REMARK   11  A    between atoms: C_23  and  C_24
REMARK   12  A    between atoms: C_24  and  N_64
REMARK   13  A    between atoms: C_26  and  C_33
REMARK   14  A    between atoms: C_29  and  C_32
REMARK                            x       y       z     vdW  Elec       q    Type
REMARK                         _______ _______ _______ _____ _____    ______ ____
ROOT
ATOM      1  C   UNL     1       1.073   1.494  -0.838  0.00  0.00    +0.147 A 
ATOM      2  C   UNL     1      -0.026   1.362  -0.013  0.00  0.00    +0.073 A 
ATOM      3  C   UNL     1       0.240   0.219   0.862  0.00  0.00    +0.025 A 
ATOM      4  C   UNL     1      -0.488  -0.394   1.890  0.00  0.00    +0.061 A 
ATOM      5  C   UNL     1       0.042  -1.483   2.545  0.00  0.00    +0.162 A 
ATOM      6  C   UNL     1       1.301  -1.976   2.188  0.00  0.00    +0.163 A 
ATOM      7  C   UNL     1       2.027  -1.379   1.177  0.00  0.00    +0.075 A 
ATOM      8  C   UNL     1       1.507  -0.277   0.503  0.00  0.00    +0.053 A 
ATOM      9  N   UNL     1       1.993   0.504  -0.522  0.00  0.00    -0.347 N 
ATOM     10  H   UNL     1       2.851   0.380  -0.958  0.00  0.00    +0.166 HD
ENDROOT
BRANCH   2  11
ATOM     11  N   UNL     1      -1.164   2.163  -0.009  0.00  0.00    -0.283 N 
ATOM     12  C   UNL     1      -2.377   1.610   0.183  0.00  0.00    +0.215 C 
ATOM     13  O   UNL     1      -2.471   0.431   0.451  0.00  0.00    -0.276 OA
ATOM     14  H   UNL     1      -1.083   3.120  -0.146  0.00  0.00    +0.155 HD
BRANCH  12  15
ATOM     15  C   UNL     1      -3.619   2.457   0.065  0.00  0.00    +0.077 C 
BRANCH  15  16
ATOM     16  C   UNL     1      -4.853   1.592   0.328  0.00  0.00    -0.070 C 
BRANCH  16  24
ATOM     17  C   UNL     1      -6.109   3.433   1.272  0.00  0.00    -0.076 C 
ATOM     18  C   UNL     1      -7.302   4.363   1.037  0.00  0.00    -0.031 C 
ATOM     19  C   UNL     1      -8.593   3.539   1.036  0.00  0.00    +0.003 C 
ATOM     20  C   UNL     1      -8.498   2.458  -0.044  0.00  0.00    -0.031 C 
ATOM     21  C   UNL     1      -7.271   1.583   0.223  0.00  0.00    -0.076 C 
ATOM     22  C   UNL     1      -9.760   1.592  -0.011  0.00  0.00    +0.005 C 
ATOM     23  C   UNL     1      -7.143   5.065  -0.313  0.00  0.00    +0.005 C 
ATOM     24  N   UNL     1      -6.061   2.431   0.186  0.00  0.00    +0.380 N 
ATOM     25  H   UNL     1      -6.024   2.919  -0.716  0.00  0.00    -0.082 HD
ENDBRANCH  16  24
ENDBRANCH  15  16
ENDBRANCH  12  15
ENDBRANCH   2  11
BRANCH   1  26
ATOM     26  C   UNL     1       1.235   2.479  -1.842  0.00  0.00    +0.358 C 
ATOM     27  O   UNL     1       0.412   3.368  -1.961  0.00  0.00    -0.243 OA
BRANCH  26  28
ATOM     28  O   UNL     1       2.302   2.432  -2.668  0.00  0.00    -0.460 OA
BRANCH  28  30
ATOM     29  C   UNL     1       3.666   3.240  -4.492  0.00  0.00    +0.048 C 
ATOM     30  C   UNL     1       2.402   3.458  -3.658  0.00  0.00    +0.229 C 
ENDBRANCH  28  30
ENDBRANCH  26  28
ENDBRANCH   1  26
BRANCH   6  31
ATOM     31  O   UNL     1       1.815  -3.051   2.842  0.00  0.00    -0.491 OA
ATOM     32  C   UNL     1       3.106  -3.505   2.430  0.00  0.00    +0.277 C 
ENDBRANCH   6  31
BRANCH   5  33
ATOM     33  O   UNL     1      -0.662  -2.082   3.544  0.00  0.00    -0.491 OA
ATOM     34  C   UNL     1      -1.941  -1.528   3.858  0.00  0.00    +0.277 C 
ENDBRANCH   5  33
TORSDOF 9
