REMARK  Name = ZINC36014263
REMARK  7 active torsions:
REMARK  status: ('A' for Active; 'I' for Inactive)
REMARK    1  A    between atoms: C_1  and  C_2
REMARK    2  A    between atoms: C_2  and  C_3
REMARK    3  A    between atoms: C_2  and  C_4
REMARK    4  A    between atoms: N_8  and  C_26
REMARK    5  A    between atoms: N_13  and  S_16
REMARK    6  A    between atoms: S_16  and  C_19
REMARK    7  A    between atoms: C_26  and  C_27
REMARK                            x       y       z     vdW  Elec       q    Type
REMARK                         _______ _______ _______ _____ _____    ______ ____
ROOT
ATOM      1  C   UNL     1      -3.776   1.569  -0.352  0.00  0.00    +0.022 C 
ATOM      2  C   UNL     1      -4.258   0.889  -1.615  0.00  0.00    +0.201 C 
ATOM      3  O   UNL     1      -5.154   1.280  -2.333  0.00  0.00    -0.277 OA
ATOM      4  N   UNL     1      -3.522  -0.225  -1.810  0.00  0.00    -0.309 N 
ATOM      5  C   UNL     1      -2.543  -0.359  -0.727  0.00  0.00    +0.006 C 
ATOM      6  N   UNL     1      -2.447   0.968  -0.080  0.00  0.00    +0.401 N 
ATOM      7  C   UNL     1      -1.181  -0.758  -1.292  0.00  0.00    +0.023 C 
ATOM      8  C   UNL     1      -1.299  -2.116  -1.992  0.00  0.00    +0.109 C 
ATOM      9  N   UNL     1      -1.879  -3.084  -1.050  0.00  0.00    -0.177 NA
ATOM     10  C   UNL     1      -3.153  -2.757  -0.396  0.00  0.00    +0.109 C 
ATOM     11  C   UNL     1      -3.019  -1.394   0.290  0.00  0.00    +0.023 C 
ATOM     12  H   UNL     1      -1.714   1.518  -0.501  0.00  0.00    -0.082 HD
ATOM     13  H   UNL     1      -2.297   0.872   0.913  0.00  0.00    -0.082 HD
ENDROOT
BRANCH   1  15
ATOM     14  C   UNL     1      -5.016   3.669  -0.894  0.00  0.00    +0.006 C 
ATOM     15  C   UNL     1      -3.642   3.077  -0.576  0.00  0.00    -0.023 C 
ATOM     16  C   UNL     1      -3.084   3.733   0.688  0.00  0.00    +0.006 C 
ENDBRANCH   1  15
BRANCH   9  17
ATOM     17  S   UNL     1      -1.111  -4.516  -0.733  0.00  0.00    +0.061 S 
ATOM     18  O   UNL     1      -2.109  -5.422  -0.283  0.00  0.00    -0.153 OA
ATOM     19  O   UNL     1      -0.283  -4.790  -1.855  0.00  0.00    -0.153 OA
BRANCH  17  20
ATOM     20  C   UNL     1      -0.032  -4.237   0.632  0.00  0.00    +0.106 A 
ATOM     21  C   UNL     1       1.268  -3.819   0.411  0.00  0.00    +0.030 A 
ATOM     22  C   UNL     1       2.114  -3.600   1.482  0.00  0.00    +0.022 A 
ATOM     23  C   UNL     1       1.661  -3.800   2.774  0.00  0.00    +0.041 A 
ATOM     24  C   UNL     1       0.361  -4.218   2.994  0.00  0.00    +0.022 A 
ATOM     25  C   UNL     1      -0.486  -4.431   1.923  0.00  0.00    +0.030 A 
ATOM     26 CL   UNL     1       2.724  -3.526   4.118  0.00  0.00    -0.084 Cl
ENDBRANCH  17  20
ENDBRANCH   9  17
BRANCH   4  27
ATOM     27  C   UNL     1      -3.677  -1.156  -2.930  0.00  0.00    +0.141 C 
BRANCH  27  28
ATOM     28  C   UNL     1      -2.857  -0.676  -4.100  0.00  0.00    -0.030 A 
ATOM     29  C   UNL     1      -2.722   0.679  -4.338  0.00  0.00    +0.008 A 
ATOM     30  C   UNL     1      -1.970   1.120  -5.411  0.00  0.00    +0.038 A 
ATOM     31  C   UNL     1      -1.353   0.205  -6.246  0.00  0.00    +0.123 A 
ATOM     32  C   UNL     1      -1.489  -1.152  -6.006  0.00  0.00    +0.038 A 
ATOM     33  C   UNL     1      -2.237  -1.591  -4.930  0.00  0.00    +0.008 A 
ATOM     34  F   UNL     1      -0.618   0.635  -7.295  0.00  0.00    -0.205 F 
ENDBRANCH  27  28
ENDBRANCH   4  27
TORSDOF 5
