REMARK  Name = ZINC32772235
REMARK  8 active torsions:
REMARK  status: ('A' for Active; 'I' for Inactive)
REMARK    1  A    between atoms: C_1  and  C_2
REMARK    2  A    between atoms: N_4  and  C_5
REMARK    3  A    between atoms: C_9  and  N_11
REMARK    4  A    between atoms: N_13  and  C_27
REMARK    5  A    between atoms: C_14  and  C_17
REMARK    6  A    between atoms: C_27  and  C_28
REMARK    7  A    between atoms: C_28  and  O_29
REMARK    8  A    between atoms: O_29  and  C_30
REMARK                            x       y       z     vdW  Elec       q    Type
REMARK                         _______ _______ _______ _____ _____    ______ ____
ROOT
ATOM      1  N   UNL     1       4.027   1.239   0.449  0.00  0.00    -0.336 N 
ATOM      2  C   UNL     1       5.294   1.583   0.590  0.00  0.00    +0.152 A 
ATOM      3  N   UNL     1       6.375   0.801   0.924  0.00  0.00    -0.318 N 
ATOM      4  C   UNL     1       7.608   1.388   1.008  0.00  0.00    +0.060 A 
ATOM      5  C   UNL     1       7.735   2.710   0.774  0.00  0.00    +0.075 A 
ATOM      6  S   UNL     1       6.055   3.188   0.406  0.00  0.00    -0.059 S 
ATOM      7  H   UNL     1       3.734   0.181   0.519  0.00  0.00    +0.168 HD
ENDROOT
BRANCH   4   8
ATOM      8  C   UNL     1       8.794   0.577   1.359  0.00  0.00    +0.024 A 
ATOM      9  C   UNL     1       9.021  -0.716   1.017  0.00  0.00    +0.093 A 
ATOM     10  N   UNL     1      10.227  -1.121   1.521  0.00  0.00    -0.360 N 
ATOM     11  H   UNL     1      10.583  -2.145   1.338  0.00  0.00    +0.165 HD
ATOM     12  C   UNL     1      10.819  -0.091   2.219  0.00  0.00    +0.047 A 
ATOM     13  C   UNL     1       9.955   1.015   2.151  0.00  0.00    +0.009 A 
ATOM     14  C   UNL     1      10.303   2.211   2.776  0.00  0.00    +0.010 A 
ATOM     15  C   UNL     1      11.495   2.303   3.459  0.00  0.00    +0.001 A 
ATOM     16  C   UNL     1      12.349   1.211   3.527  0.00  0.00    +0.002 A 
ATOM     17  C   UNL     1      12.019   0.022   2.914  0.00  0.00    +0.026 A 
ENDBRANCH   4   8
BRANCH   1  22
ATOM     18  C   UNL     1       1.727   3.464  -1.318  0.00  0.00    +0.035 A 
ATOM     19  C   UNL     1       1.163   4.148  -0.247  0.00  0.00    +0.023 A 
ATOM     20  C   UNL     1       1.548   3.854   1.048  0.00  0.00    +0.004 A 
ATOM     21  C   UNL     1       2.503   2.887   1.286  0.00  0.00    +0.026 A 
ATOM     22  C   UNL     1       3.081   2.197   0.217  0.00  0.00    +0.043 A 
ATOM     23  C   UNL     1       2.687   2.491  -1.091  0.00  0.00    +0.049 A 
BRANCH  18  27
ATOM     24  C   UNL     1       1.820   4.120  -5.024  0.00  0.00    +0.109 C 
ATOM     25  C   UNL     1       2.228   3.718  -3.630  0.00  0.00    +0.214 C 
ATOM     26  O   UNL     1       3.364   3.354  -3.412  0.00  0.00    -0.276 OA
ATOM     27  N   UNL     1       1.330   3.762  -2.626  0.00  0.00    -0.286 N 
ATOM     28  H   UNL     1       0.284   4.033  -2.835  0.00  0.00    +0.155 HD
ENDBRANCH  18  27
ENDBRANCH   1  22
BRANCH   3  29
ATOM     29  C   UNL     1       6.210  -0.632   1.180  0.00  0.00    +0.152 C 
BRANCH  29  30
ATOM     30  C   UNL     1       4.781  -0.904   1.653  0.00  0.00    +0.181 C 
BRANCH  30  31
ATOM     31  O   UNL     1       4.620  -2.302   1.903  0.00  0.00    -0.381 OA
ATOM     32  C   UNL     1       3.314  -2.665   2.353  0.00  0.00    +0.194 C 
ENDBRANCH  30  31
ENDBRANCH  29  30
ENDBRANCH   3  29
TORSDOF 6
