REMARK  Name = ZINC39710197
REMARK  9 active torsions:
REMARK  status: ('A' for Active; 'I' for Inactive)
REMARK    1  A    between atoms: C_1  and  C_2
REMARK    2  A    between atoms: C_9  and  C_14
REMARK    3  A    between atoms: C_14  and  C_16
REMARK    4  A    between atoms: C_14  and  N_25
REMARK    5  A    between atoms: N_20  and  C_21
REMARK    6  A    between atoms: C_21  and  C_22
REMARK    7  A    between atoms: C_22  and  O_23
REMARK    8  A    between atoms: O_23  and  C_24
REMARK    9  A    between atoms: N_28  and  C_31
REMARK                            x       y       z     vdW  Elec       q    Type
REMARK                         _______ _______ _______ _____ _____    ______ ____
ROOT
ATOM      1  C   UNL     1       1.319  -4.874   2.934  0.00  0.00    +0.142 C 
ENDROOT
BRANCH   1  10
ATOM      2  C   UNL     1      -0.018   1.503   0.010  0.00  0.00    +0.044 C 
ATOM      3  C   UNL     1       0.002  -0.004   0.002  0.00  0.00    -0.050 A 
ATOM      4  C   UNL     1       0.005  -0.680  -1.218  0.00  0.00    +0.005 A 
ATOM      5  C   UNL     1       0.024  -2.036  -1.305  0.00  0.00    +0.024 A 
ATOM      6  C   UNL     1       0.041  -2.826  -0.141  0.00  0.00    +0.040 A 
ATOM      7  N   UNL     1       0.059  -4.155  -0.238  0.00  0.00    -0.284 N 
ATOM      8  C   UNL     1       0.075  -4.956   0.815  0.00  0.00    +0.226 C 
ATOM      9  O   UNL     1       0.092  -6.163   0.663  0.00  0.00    -0.275 OA
ATOM     10  C   UNL     1       0.073  -4.365   2.207  0.00  0.00    +0.123 C 
ATOM     11  C   UNL     1       0.053  -2.854   2.322  0.00  0.00    -0.003 C 
ATOM     12  C   UNL     1       0.037  -2.138   1.162  0.00  0.00    -0.007 A 
ATOM     13  C   UNL     1       0.022  -0.675   1.183  0.00  0.00    +0.012 A 
ATOM     14  H   UNL     1       0.061  -4.554  -1.122  0.00  0.00    +0.155 HD
ENDBRANCH   1  10
BRANCH   1  15
ATOM     15  N   UNL     1       1.281  -6.341   3.004  0.00  0.00    -0.295 NA
ATOM     16  C   UNL     1       0.106  -6.802   3.756  0.00  0.00    +0.066 C 
ATOM     17  C   UNL     1       0.071  -8.332   3.755  0.00  0.00    -0.059 C 
ATOM     18  N   UNL     1       1.301  -8.851   4.367  0.00  0.00    +0.400 N 
ATOM     19  C   UNL     1       2.464  -8.402   3.590  0.00  0.00    -0.059 C 
ATOM     20  C   UNL     1       2.519  -6.873   3.591  0.00  0.00    +0.066 C 
ATOM     21  H   UNL     1       1.376  -8.508   5.313  0.00  0.00    -0.078 HD
BRANCH  18  22
ATOM     22  C   UNL     1       1.258 -10.319   4.382  0.00  0.00    +0.081 C 
ATOM     23  N   UNL     1       2.508 -10.879   4.915  0.00  0.00    -0.347 N 
ATOM     24  C   UNL     1       3.268 -11.682   4.066  0.00  0.00    +0.040 A 
ATOM     25  C   UNL     1       4.486 -12.301   4.398  0.00  0.00    +0.024 A 
ATOM     26  C   UNL     1       5.163 -13.077   3.486  0.00  0.00    +0.002 A 
ATOM     27  C   UNL     1       4.668 -13.275   2.211  0.00  0.00    +0.001 A 
ATOM     28  C   UNL     1       3.470 -12.678   1.855  0.00  0.00    +0.016 A 
ATOM     29  C   UNL     1       2.794 -11.902   2.769  0.00  0.00    +0.029 A 
ATOM     30  S   UNL     1       1.264 -10.998   2.674  0.00  0.00    -0.120 S 
ATOM     31  H   UNL     1       2.794 -10.696   5.823  0.00  0.00    +0.145 HD
ENDBRANCH  18  22
ENDBRANCH   1  15
BRANCH   1  32
ATOM     32  C   UNL     1       1.353  -4.306   4.330  0.00  0.00    +0.170 A 
ATOM     33  N   UNL     1       0.617  -4.683   5.346  0.00  0.00    -0.112 NA
ATOM     34  N   UNL     1       0.941  -3.960   6.362  0.00  0.00    -0.023 NA
ATOM     35  N   UNL     1       1.864  -3.131   6.019  0.00  0.00    -0.044 NA
ATOM     36  N   UNL     1       2.150  -3.317   4.775  0.00  0.00    -0.225 N 
BRANCH  36  37
ATOM     37  C   UNL     1       3.150  -2.586   3.993  0.00  0.00    +0.175 C 
BRANCH  37  38
ATOM     38  C   UNL     1       2.499  -1.360   3.350  0.00  0.00    +0.183 C 
BRANCH  38  39
ATOM     39  O   UNL     1       3.474  -0.647   2.587  0.00  0.00    -0.381 OA
ATOM     40  C   UNL     1       2.966   0.522   1.942  0.00  0.00    +0.194 C 
ENDBRANCH  38  39
ENDBRANCH  37  38
ENDBRANCH  36  37
ENDBRANCH   1  32
TORSDOF 7
