REMARK  Name = ZINC12289548
REMARK  5 active torsions:
REMARK  status: ('A' for Active; 'I' for Inactive)
REMARK    1  A    between atoms: C_8  and  C_10
REMARK    2  A    between atoms: N_12  and  C_13
REMARK    3  A    between atoms: C_13  and  N_15
REMARK    4  A    between atoms: N_15  and  N_16
REMARK    5  A    between atoms: C_17  and  C_19
REMARK                            x       y       z     vdW  Elec       q    Type
REMARK                         _______ _______ _______ _____ _____    ______ ____
ROOT
ATOM      1  C   UNL     1       1.122   3.500   0.010  0.00  0.00    +0.153 C 
ATOM      2  S   UNL     1      -0.372   4.336   0.029  0.00  0.00    -0.017 S 
ENDROOT
BRANCH   1   5
ATOM      3  C   UNL     1      -0.018   1.463   0.010  0.00  0.00    +0.258 C 
ATOM      4  O   UNL     1      -1.079   2.057   0.018  0.00  0.00    -0.269 OA
ATOM      5  N   UNL     1       1.140   2.153   0.003  0.00  0.00    -0.262 N 
ATOM      6  H   UNL     1       1.987   1.679  -0.008  0.00  0.00    +0.157 HD
BRANCH   3  14
ATOM      7  C   UNL     1      -1.379  -4.603  -0.007  0.00  0.00    +0.001 A 
ATOM      8  C   UNL     1      -0.035  -4.956  -0.022  0.00  0.00    +0.001 A 
ATOM      9  C   UNL     1       0.927  -3.967  -0.027  0.00  0.00    +0.016 A 
ATOM     10  C   UNL     1       0.541  -2.643  -0.016  0.00  0.00    +0.021 A 
ATOM     11  C   UNL     1      -0.820  -2.255  -0.002  0.00  0.00    +0.008 A 
ATOM     12  C   UNL     1      -1.775  -3.304   0.002  0.00  0.00    +0.010 A 
ATOM     13  C   UNL     1      -1.051  -0.867   0.013  0.00  0.00    +0.068 A 
ATOM     14  C   UNL     1       0.002  -0.004   0.002  0.00  0.00    +0.094 A 
ATOM     15  S   UNL     1       1.413  -1.097  -0.017  0.00  0.00    -0.082 S 
ATOM     16 CL   UNL     1      -2.676  -0.256   0.040  0.00  0.00    -0.082 Cl
ENDBRANCH   3  14
ENDBRANCH   1   5
BRANCH   1  17
ATOM     17  N   UNL     1       2.280   4.190   0.003  0.00  0.00    -0.245 N 
ATOM     18  H   UNL     1       2.267   5.160   0.008  0.00  0.00    +0.172 HD
BRANCH  17  19
ATOM     19  N   UNL     1       3.502   3.506  -0.013  0.00  0.00    -0.231 N 
ATOM     20  C   UNL     1       4.660   4.196  -0.020  0.00  0.00    +0.262 C 
ATOM     21  O   UNL     1       4.644   5.411  -0.013  0.00  0.00    -0.269 OA
ATOM     22  H   UNL     1       3.515   2.536  -0.018  0.00  0.00    +0.173 HD
BRANCH  20  23
ATOM     23  C   UNL     1       5.949   3.475  -0.036  0.00  0.00    +0.057 A 
ATOM     24  C   UNL     1       5.972   2.078  -0.044  0.00  0.00    +0.016 A 
ATOM     25  C   UNL     1       7.178   1.411  -0.059  0.00  0.00    +0.021 A 
ATOM     26  C   UNL     1       8.367   2.122  -0.066  0.00  0.00    +0.042 A 
ATOM     27  C   UNL     1       8.353   3.506  -0.058  0.00  0.00    +0.040 A 
ATOM     28  C   UNL     1       7.152   4.187  -0.050  0.00  0.00    +0.054 A 
ATOM     29 CL   UNL     1       7.135   5.923  -0.048  0.00  0.00    -0.083 Cl
ATOM     30 CL   UNL     1       9.881   1.273  -0.085  0.00  0.00    -0.083 Cl
ENDBRANCH  20  23
ENDBRANCH  17  19
ENDBRANCH   1  17
TORSDOF 5
