REMARK  Name = ZINC62494473
REMARK  8 active torsions:
REMARK  status: ('A' for Active; 'I' for Inactive)
REMARK    1  A    between atoms: C_1  and  C_2
REMARK    2  A    between atoms: C_2  and  C_3
REMARK    3  A    between atoms: C_2  and  C_4
REMARK    4  A    between atoms: C_7  and  N_10
REMARK    5  A    between atoms: C_11  and  C_15
REMARK    6  A    between atoms: C_18  and  O_22
REMARK    7  A    between atoms: C_19  and  N_21
REMARK    8  A    between atoms: O_22  and  C_23
REMARK                            x       y       z     vdW  Elec       q    Type
REMARK                         _______ _______ _______ _____ _____    ______ ____
ROOT
ATOM      1  N   UNL     1      -5.412  -1.780   0.073  0.00  0.00    -0.193 N 
ATOM      2  C   UNL     1      -6.173  -2.082  -1.019  0.00  0.00    +0.187 A 
ATOM      3  N   UNL     1      -7.212  -2.764  -0.584  0.00  0.00    -0.108 NA
ATOM      4  N   UNL     1      -7.155  -2.908   0.691  0.00  0.00    -0.022 NA
ATOM      5  N   UNL     1      -6.095  -2.347   1.163  0.00  0.00    -0.039 NA
ENDROOT
BRANCH   1   9
ATOM      6  C   UNL     1      -1.829   0.349   0.155  0.00  0.00    -0.045 A 
ATOM      7  C   UNL     1      -1.964  -0.806   0.904  0.00  0.00    +0.006 A 
ATOM      8  C   UNL     1      -3.149  -1.513   0.879  0.00  0.00    +0.028 A 
ATOM      9  C   UNL     1      -4.208  -1.064   0.101  0.00  0.00    +0.069 A 
ATOM     10  C   UNL     1      -4.070   0.095  -0.651  0.00  0.00    +0.028 A 
ATOM     11  C   UNL     1      -2.883   0.801  -0.618  0.00  0.00    +0.006 A 
BRANCH   6  13
ATOM     12  C   UNL     1      -0.239   1.565   1.618  0.00  0.00    +0.012 C 
ATOM     13  C   UNL     1      -0.534   1.119   0.185  0.00  0.00    +0.013 C 
ATOM     14  C   UNL     1       0.602   0.224  -0.315  0.00  0.00    +0.012 C 
ENDBRANCH   6  13
ENDBRANCH   1   9
BRANCH   2  15
ATOM     15  C   UNL     1      -5.885  -1.715  -2.422  0.00  0.00    +0.023 A 
ATOM     16  C   UNL     1      -4.564  -1.601  -2.858  0.00  0.00    +0.015 A 
ATOM     17  C   UNL     1      -4.296  -1.257  -4.167  0.00  0.00    +0.048 A 
ATOM     18  C   UNL     1      -5.337  -1.025  -5.054  0.00  0.00    +0.141 A 
ATOM     19  C   UNL     1      -6.659  -1.137  -4.625  0.00  0.00    +0.067 A 
ATOM     20  C   UNL     1      -6.934  -1.487  -3.314  0.00  0.00    +0.038 A 
BRANCH  19  21
ATOM     21  N   UNL     1      -7.708  -0.902  -5.522  0.00  0.00    -0.355 N 
ATOM     22  H   UNL     1      -7.516  -0.660  -6.441  0.00  0.00    +0.142 HD
ATOM     23  H   UNL     1      -8.628  -0.980  -5.223  0.00  0.00    +0.142 HD
ENDBRANCH  19  21
BRANCH  18  24
ATOM     24  O   UNL     1      -5.068  -0.687  -6.343  0.00  0.00    -0.493 OA
ATOM     25  C   UNL     1      -3.691  -0.589  -6.714  0.00  0.00    +0.277 C 
ENDBRANCH  18  24
ENDBRANCH   2  15
TORSDOF 5
