REMARK  Name = ZINC40778406
REMARK  7 active torsions:
REMARK  status: ('A' for Active; 'I' for Inactive)
REMARK    1  A    between atoms: C_1  and  C_2
REMARK    2  A    between atoms: C_11  and  C_13
REMARK    3  A    between atoms: C_11  and  C_14
REMARK    4  A    between atoms: N_16  and  C_17
REMARK    5  A    between atoms: C_20  and  C_23
REMARK    6  A    between atoms: C_23  and  C_24
REMARK    7  A    between atoms: C_23  and  C_25
REMARK                            x       y       z     vdW  Elec       q    Type
REMARK                         _______ _______ _______ _____ _____    ______ ____
ROOT
ATOM      1  C   UNL     1      -0.056   1.488  -0.014  0.00  0.00    +0.044 C 
ATOM      2  C   UNL     1      -0.027  -0.019  -0.016  0.00  0.00    -0.048 A 
ATOM      3  C   UNL     1      -0.019  -0.707  -1.216  0.00  0.00    +0.007 A 
ATOM      4  C   UNL     1       0.002  -2.089  -1.226  0.00  0.00    +0.048 A 
ATOM      5  C   UNL     1       0.019  -2.788  -0.031  0.00  0.00    +0.144 A 
ATOM      6  C   UNL     1       0.022  -2.095   1.177  0.00  0.00    +0.076 A 
ATOM      7  C   UNL     1      -0.002  -0.710   1.181  0.00  0.00    +0.030 A 
ATOM      8  N   UNL     1       0.074  -2.810   2.382  0.00  0.00    -0.279 N 
ATOM      9  C   UNL     1       0.338  -4.133   2.352  0.00  0.00    +0.270 C 
ATOM     10  O   UNL     1       0.279  -4.789   3.371  0.00  0.00    -0.271 OA
ATOM     11  C   UNL     1       0.707  -4.793   1.048  0.00  0.00    +0.258 C 
ATOM     12  O   UNL     1       0.022  -4.148  -0.028  0.00  0.00    -0.465 OA
ATOM     13  C   UNL     1       0.307  -6.269   1.093  0.00  0.00    +0.076 C 
ATOM     14  H   UNL     1      -0.078  -2.359   3.227  0.00  0.00    +0.155 HD
ENDROOT
BRANCH  11  15
ATOM     15  C   UNL     1       2.194  -4.684   0.833  0.00  0.00    +0.270 C 
ATOM     16  O   UNL     1       2.937  -4.559   1.784  0.00  0.00    -0.271 OA
ATOM     17  N   UNL     1       2.699  -4.724  -0.416  0.00  0.00    -0.282 N 
ATOM     18  H   UNL     1       2.114  -4.891  -1.171  0.00  0.00    +0.155 HD
BRANCH  17  19
ATOM     19  C   UNL     1       4.069  -4.526  -0.624  0.00  0.00    +0.034 A 
ATOM     20  C   UNL     1       4.511  -3.858  -1.758  0.00  0.00    +0.023 A 
ATOM     21  C   UNL     1       5.863  -3.663  -1.960  0.00  0.00    +0.006 A 
ATOM     22  C   UNL     1       6.777  -4.133  -1.034  0.00  0.00    -0.045 A 
ATOM     23  C   UNL     1       6.340  -4.798   0.097  0.00  0.00    +0.006 A 
ATOM     24  C   UNL     1       4.988  -4.991   0.307  0.00  0.00    +0.023 A 
BRANCH  22  25
ATOM     25  C   UNL     1       8.252  -3.919  -1.257  0.00  0.00    +0.013 C 
ATOM     26  C   UNL     1       8.830  -3.102  -0.100  0.00  0.00    +0.012 C 
ATOM     27  C   UNL     1       8.959  -5.274  -1.328  0.00  0.00    +0.012 C 
ENDBRANCH  22  25
ENDBRANCH  17  19
ENDBRANCH  11  15
TORSDOF 3
