REMARK  Name = ZINC09761299
REMARK  4 active torsions:
REMARK  status: ('A' for Active; 'I' for Inactive)
REMARK    1  A    between atoms: C_4  and  C_7
REMARK    2  A    between atoms: C_7  and  C_30
REMARK    3  A    between atoms: C_15  and  C_18
REMARK    4  A    between atoms: C_21  and  C_23
REMARK                            x       y       z     vdW  Elec       q    Type
REMARK                         _______ _______ _______ _____ _____    ______ ____
ROOT
ATOM      1  C   UNL     1       5.246  -5.996   0.386  0.00  0.00    +0.149 C 
ATOM      2  C   UNL     1       6.641  -6.341   0.835  0.00  0.00    +0.014 A 
ATOM      3  C   UNL     1       6.997  -7.664   1.018  0.00  0.00    +0.009 A 
ATOM      4  C   UNL     1       8.279  -7.988   1.423  0.00  0.00    +0.000 A 
ATOM      5  C   UNL     1       9.212  -6.992   1.646  0.00  0.00    +0.002 A 
ATOM      6  C   UNL     1       8.863  -5.667   1.467  0.00  0.00    +0.023 A 
ATOM      7  C   UNL     1       7.577  -5.341   1.062  0.00  0.00    +0.036 A 
ATOM      8  N   UNL     1       7.214  -4.000   0.882  0.00  0.00    -0.313 N 
ATOM      9  C   UNL     1       5.952  -3.716   0.179  0.00  0.00    +0.273 C 
ATOM     10  O   UNL     1       4.960  -4.626   0.671  0.00  0.00    -0.331 OA
ATOM     11  H   UNL     1       7.776  -3.281   1.210  0.00  0.00    +0.149 HD
ENDROOT
BRANCH   1  15
ATOM     12  C   UNL     1       4.906  -6.667  -3.819  0.00  0.00    +0.000 A 
ATOM     13  C   UNL     1       4.144  -5.686  -3.212  0.00  0.00    +0.000 A 
ATOM     14  C   UNL     1       4.254  -5.469  -1.851  0.00  0.00    +0.007 A 
ATOM     15  C   UNL     1       5.125  -6.233  -1.097  0.00  0.00    -0.007 A 
ATOM     16  C   UNL     1       5.891  -7.210  -1.706  0.00  0.00    +0.007 A 
ATOM     17  C   UNL     1       5.777  -7.430  -3.066  0.00  0.00    +0.000 A 
ENDBRANCH   1  15
BRANCH   1  18
ATOM     18  C   UNL     1       4.257  -6.873   1.110  0.00  0.00    -0.007 A 
ATOM     19  C   UNL     1       3.993  -8.148   0.645  0.00  0.00    +0.007 A 
ATOM     20  C   UNL     1       3.090  -8.954   1.312  0.00  0.00    +0.000 A 
ATOM     21  C   UNL     1       2.443  -8.482   2.438  0.00  0.00    +0.000 A 
ATOM     22  C   UNL     1       2.703  -7.205   2.901  0.00  0.00    +0.000 A 
ATOM     23  C   UNL     1       3.610  -6.401   2.237  0.00  0.00    +0.007 A 
ENDBRANCH   1  18
BRANCH   9  24
ATOM     24  C   UNL     1       5.524  -2.298   0.453  0.00  0.00    +0.153 A 
ATOM     25  C   UNL     1       6.342  -1.228   0.513  0.00  0.00    +0.050 A 
ATOM     26  C   UNL     1       5.534  -0.106   0.789  0.00  0.00    +0.050 A 
ATOM     27  C   UNL     1       4.255  -0.558   0.882  0.00  0.00    +0.135 A 
ATOM     28  O   UNL     1       4.265  -1.890   0.681  0.00  0.00    -0.455 OA
BRANCH  27  29
ATOM     29  C   UNL     1       3.062   0.268   1.162  0.00  0.00    +0.017 A 
ATOM     30  C   UNL     1       1.800  -0.325   1.231  0.00  0.00    +0.012 A 
ATOM     31  C   UNL     1       0.690   0.451   1.493  0.00  0.00    +0.016 A 
ATOM     32  C   UNL     1       0.826   1.815   1.687  0.00  0.00    +0.018 A 
ATOM     33  C   UNL     1       2.075   2.409   1.619  0.00  0.00    +0.016 A 
ATOM     34  C   UNL     1       3.192   1.644   1.358  0.00  0.00    +0.012 A 
ATOM     35 BR   UNL     1      -0.702   2.873   2.038  0.00  0.00    -0.050 Br
ENDBRANCH  27  29
ENDBRANCH   9  24
TORSDOF 4
