REMARK  Name = ZINC02513413
REMARK  7 active torsions:
REMARK  status: ('A' for Active; 'I' for Inactive)
REMARK    1  A    between atoms: C_1  and  C_2
REMARK    2  A    between atoms: N_4  and  N_5
REMARK    3  A    between atoms: C_8  and  C_15
REMARK    4  A    between atoms: C_10  and  C_13
REMARK    5  A    between atoms: C_11  and  N_12
REMARK    6  A    between atoms: C_25  and  C_27
REMARK    7  A    between atoms: C_25  and  C_28
REMARK                            x       y       z     vdW  Elec       q    Type
REMARK                         _______ _______ _______ _____ _____    ______ ____
ROOT
ATOM      1  N   UNL     1      -4.724   2.738   0.032  0.00  0.00    -0.209 N 
ATOM      2  C   UNL     1      -4.344   2.182  -1.160  0.00  0.00    +0.040 C 
ATOM      3  C   UNL     1      -3.300   1.330  -1.219  0.00  0.00    +0.026 C 
ATOM      4  C   UNL     1      -2.514   0.979   0.019  0.00  0.00    +0.097 C 
ATOM      5  C   UNL     1      -3.285   1.314   1.262  0.00  0.00    +0.078 C 
ATOM      6  C   UNL     1      -4.340   2.169   1.223  0.00  0.00    +0.119 C 
ATOM      7  C   UNL     1      -2.914   0.740  -2.437  0.00  0.00    +0.162 C 
ATOM      8  O   UNL     1      -1.966  -0.019  -2.457  0.00  0.00    -0.292 OA
ATOM      9  C   UNL     1      -3.654   1.031  -3.713  0.00  0.00    +0.086 C 
ATOM     10  C   UNL     1      -5.109   1.374  -3.380  0.00  0.00    -0.023 C 
ATOM     11  C   UNL     1      -5.119   2.551  -2.401  0.00  0.00    +0.060 C 
ATOM     12  C   UNL     1      -5.788   0.164  -2.736  0.00  0.00    +0.011 C 
ATOM     13  C   UNL     1      -5.856   1.763  -4.658  0.00  0.00    +0.011 C 
ENDROOT
BRANCH   4  14
ATOM     14  C   UNL     1      -1.219   1.750   0.017  0.00  0.00    -0.035 A 
ATOM     15  C   UNL     1      -0.013   1.076   0.008  0.00  0.00    +0.006 A 
ATOM     16  C   UNL     1       1.175   1.783   0.000  0.00  0.00    +0.020 A 
ATOM     17  C   UNL     1       1.156   3.166   0.008  0.00  0.00    +0.041 A 
ATOM     18  C   UNL     1      -0.052   3.841   0.023  0.00  0.00    +0.020 A 
ATOM     19  C   UNL     1      -1.239   3.133   0.031  0.00  0.00    +0.006 A 
ATOM     20 CL   UNL     1       2.647   4.055  -0.002  0.00  0.00    -0.084 Cl
ENDBRANCH   4  14
BRANCH   1  24
ATOM     21  C   UNL     1      -5.799   6.334   0.352  0.00  0.00    +0.110 C 
ATOM     22  C   UNL     1      -4.954   5.087   0.345  0.00  0.00    +0.226 C 
ATOM     23  O   UNL     1      -3.773   5.153   0.616  0.00  0.00    -0.275 OA
ATOM     24  N   UNL     1      -5.510   3.898   0.038  0.00  0.00    -0.229 N 
ATOM     25  H   UNL     1      -6.454   3.845  -0.178  0.00  0.00    +0.173 HD
ENDBRANCH   1  24
BRANCH   6  26
ATOM     26  N   UNL     1      -5.025   2.465   2.376  0.00  0.00    -0.344 N 
ATOM     27  H   UNL     1      -4.755   2.064   3.217  0.00  0.00    +0.144 HD
ATOM     28  H   UNL     1      -5.779   3.075   2.350  0.00  0.00    +0.144 HD
ENDBRANCH   6  26
BRANCH   5  29
ATOM     29  C   UNL     1      -2.902   0.724   2.509  0.00  0.00    +0.099 C 
ATOM     30  N   UNL     1      -2.598   0.255   3.498  0.00  0.00    -0.191 NA
ENDBRANCH   5  29
TORSDOF 4
