REMARK  Name = ZINC39710251
REMARK  12 active torsions:
REMARK  status: ('A' for Active; 'I' for Inactive)
REMARK    1  A    between atoms: C_1  and  C_2
REMARK    2  A    between atoms: C_9  and  C_14
REMARK    3  A    between atoms: C_14  and  C_16
REMARK    4  A    between atoms: C_14  and  N_25
REMARK    5  A    between atoms: N_20  and  C_21
REMARK    6  A    between atoms: C_21  and  C_22
REMARK    7  A    between atoms: C_22  and  O_23
REMARK    8  A    between atoms: O_23  and  C_24
REMARK    9  A    between atoms: N_25  and  C_26
REMARK   10  A    between atoms: N_25  and  C_33
REMARK   11  A    between atoms: C_26  and  C_27
REMARK   12  A    between atoms: C_33  and  C_34
REMARK                            x       y       z     vdW  Elec       q    Type
REMARK                         _______ _______ _______ _____ _____    ______ ____
ROOT
ATOM      1  C   UNL     1       1.242  -4.196   4.753  0.00  0.00    +0.019 C 
ENDROOT
BRANCH   1  10
ATOM      2  C   UNL     1      -1.468  -1.892  10.947  0.00  0.00    +0.044 C 
ATOM      3  C   UNL     1      -1.343  -1.880   9.445  0.00  0.00    -0.050 A 
ATOM      4  C   UNL     1      -1.708  -0.734   8.738  0.00  0.00    +0.005 A 
ATOM      5  C   UNL     1      -1.623  -0.649   7.385  0.00  0.00    +0.024 A 
ATOM      6  C   UNL     1      -1.153  -1.739   6.629  0.00  0.00    +0.040 A 
ATOM      7  N   UNL     1      -1.073  -1.645   5.302  0.00  0.00    -0.285 N 
ATOM      8  C   UNL     1      -0.642  -2.630   4.532  0.00  0.00    +0.223 C 
ATOM      9  O   UNL     1      -0.591  -2.485   3.326  0.00  0.00    -0.275 OA
ATOM     10  C   UNL     1      -0.211  -3.937   5.158  0.00  0.00    +0.092 C 
ATOM     11  C   UNL     1      -0.299  -4.050   6.668  0.00  0.00    -0.006 C 
ATOM     12  C   UNL     1      -0.761  -2.963   7.349  0.00  0.00    -0.007 A 
ATOM     13  C   UNL     1      -0.873  -2.984   8.808  0.00  0.00    +0.012 A 
ATOM     14  H   UNL     1      -1.345  -0.814   4.881  0.00  0.00    +0.155 HD
ENDBRANCH   1  10
BRANCH   1  15
ATOM     15  C   UNL     1       2.113  -3.079   5.269  0.00  0.00    +0.139 A 
ATOM     16  N   UNL     1       2.314  -2.759   6.524  0.00  0.00    -0.115 NA
ATOM     17  N   UNL     1       3.119  -1.753   6.554  0.00  0.00    -0.023 NA
ATOM     18  N   UNL     1       3.436  -1.423   5.350  0.00  0.00    -0.044 NA
ATOM     19  N   UNL     1       2.841  -2.221   4.530  0.00  0.00    -0.229 N 
BRANCH  19  20
ATOM     20  C   UNL     1       2.936  -2.195   3.068  0.00  0.00    +0.175 C 
BRANCH  20  21
ATOM     21  C   UNL     1       2.072  -1.057   2.521  0.00  0.00    +0.183 C 
BRANCH  21  22
ATOM     22  O   UNL     1       2.270  -0.944   1.110  0.00  0.00    -0.381 OA
ATOM     23  C   UNL     1       1.505   0.095   0.497  0.00  0.00    +0.194 C 
ENDBRANCH  21  22
ENDBRANCH  20  21
ENDBRANCH  19  20
ENDBRANCH   1  15
BRANCH   1  24
ATOM     24  N   UNL     1       1.690  -5.471   5.327  0.00  0.00    +0.392 N 
ATOM     25  H   UNL     1       1.511  -5.476   6.320  0.00  0.00    -0.080 HD
BRANCH  24  26
ATOM     26  C   UNL     1       0.961  -6.577   4.692  0.00  0.00    -0.042 C 
BRANCH  26  27
ATOM     27  C   UNL     1       1.357  -6.673   3.241  0.00  0.00    -0.064 A 
ATOM     28  C   UNL     1       0.772  -5.838   2.308  0.00  0.00    +0.002 A 
ATOM     29  C   UNL     1       1.136  -5.926   0.978  0.00  0.00    +0.000 A 
ATOM     30  C   UNL     1       2.084  -6.849   0.580  0.00  0.00    +0.000 A 
ATOM     31  C   UNL     1       2.670  -7.684   1.513  0.00  0.00    +0.000 A 
ATOM     32  C   UNL     1       2.310  -7.593   2.844  0.00  0.00    +0.002 A 
ENDBRANCH  26  27
ENDBRANCH  24  26
BRANCH  24  33
ATOM     33  C   UNL     1       3.131  -5.635   5.090  0.00  0.00    -0.042 C 
BRANCH  33  34
ATOM     34  C   UNL     1       3.631  -6.838   5.846  0.00  0.00    -0.064 A 
ATOM     35  C   UNL     1       3.139  -7.114   7.109  0.00  0.00    +0.003 A 
ATOM     36  C   UNL     1       3.598  -8.218   7.803  0.00  0.00    +0.020 A 
ATOM     37  C   UNL     1       4.549  -9.047   7.235  0.00  0.00    +0.041 A 
ATOM     38  C   UNL     1       5.040  -8.770   5.971  0.00  0.00    +0.020 A 
ATOM     39  C   UNL     1       4.577  -7.670   5.276  0.00  0.00    +0.003 A 
ATOM     40 CL   UNL     1       5.125 -10.432   8.107  0.00  0.00    -0.084 Cl
ENDBRANCH  33  34
ENDBRANCH  24  33
ENDBRANCH   1  24
TORSDOF 10
