REMARK  Name = ZINC63446111
REMARK  7 active torsions:
REMARK  status: ('A' for Active; 'I' for Inactive)
REMARK    1  A    between atoms: C_1  and  C_2
REMARK    2  A    between atoms: C_6  and  C_8
REMARK    3  A    between atoms: C_12  and  S_21
REMARK    4  A    between atoms: N_14  and  C_15
REMARK    5  A    between atoms: C_15  and  C_16
REMARK    6  A    between atoms: S_21  and  C_22
REMARK    7  A    between atoms: C_22  and  C_23
REMARK                            x       y       z     vdW  Elec       q    Type
REMARK                         _______ _______ _______ _____ _____    ______ ____
ROOT
ATOM      1  C   UNL     1      -0.007  -2.876   2.426  0.00  0.00    +0.172 C 
ATOM      2  N   UNL     1       0.671  -1.959   3.370  0.00  0.00    -0.233 NA
ATOM      3  N   UNL     1       1.393  -2.850   4.292  0.00  0.00    -0.229 NA
ATOM      4  C   UNL     1       1.870  -3.940   3.401  0.00  0.00    +0.200 C 
ATOM      5  N   UNL     1       0.756  -4.141   2.444  0.00  0.00    -0.250 NA
ATOM      6  H   UNL     1       0.002  -1.391   3.866  0.00  0.00    +0.143 HD
ATOM      7  H   UNL     1       2.170  -2.371   4.724  0.00  0.00    +0.143 HD
ENDROOT
BRANCH   1  13
ATOM      8  C   UNL     1      -0.109   1.118  -0.588  0.00  0.00    +0.044 C 
ATOM      9  C   UNL     1      -0.049  -0.377  -0.403  0.00  0.00    -0.050 A 
ATOM     10  C   UNL     1       0.014  -1.208  -1.506  0.00  0.00    +0.003 A 
ATOM     11  C   UNL     1       0.069  -2.578  -1.337  0.00  0.00    +0.001 A 
ATOM     12  C   UNL     1       0.062  -3.118  -0.064  0.00  0.00    +0.006 A 
ATOM     13  C   UNL     1       0.000  -2.287   1.039  0.00  0.00    -0.015 A 
ATOM     14  C   UNL     1      -0.051  -0.916   0.869  0.00  0.00    +0.010 A 
ENDBRANCH   1  13
BRANCH   5  15
ATOM     15  C   UNL     1      -0.096  -5.265   2.854  0.00  0.00    +0.163 C 
BRANCH  15  16
ATOM     16  C   UNL     1      -1.168  -5.486   1.819  0.00  0.00    +0.119 A 
ATOM     17  C   UNL     1      -1.107  -6.360   0.798  0.00  0.00    +0.046 A 
ATOM     18  C   UNL     1      -2.319  -6.238   0.081  0.00  0.00    +0.041 A 
ATOM     19  C   UNL     1      -3.049  -5.297   0.706  0.00  0.00    +0.195 A 
ATOM     20  O   UNL     1      -2.349  -4.849   1.762  0.00  0.00    -0.467 OA
ENDBRANCH  15  16
ENDBRANCH   5  15
BRANCH   4  21
ATOM     21  S   UNL     1       2.170  -5.454   4.356  0.00  0.00    -0.121 S 
BRANCH  21  22
ATOM     22  C   UNL     1       3.710  -5.109   5.251  0.00  0.00    +0.118 C 
BRANCH  22  23
ATOM     23  C   UNL     1       4.019  -6.270   6.199  0.00  0.00    +0.184 C 
ATOM     24  N   UNL     1       4.206  -7.509   5.435  0.00  0.00    -0.363 N 
ATOM     25  C   UNL     1       3.299  -8.354   5.832  0.00  0.00    +0.060 A 
ATOM     26  C   UNL     1       2.983  -9.736   5.446  0.00  0.00    +0.027 A 
ATOM     27  C   UNL     1       1.959 -10.377   6.044  0.00  0.00    +0.002 A 
ATOM     28  C   UNL     1       1.165  -9.775   7.037  0.00  0.00    +0.002 A 
ATOM     29  C   UNL     1       1.369  -8.513   7.465  0.00  0.00    +0.027 A 
ATOM     30  C   UNL     1       2.459  -7.718   6.883  0.00  0.00    +0.060 A 
ATOM     31  N   UNL     1       2.880  -6.504   7.096  0.00  0.00    -0.363 N 
ATOM     32  H   UNL     1       4.882  -7.669   4.758  0.00  0.00    +0.162 HD
ATOM     33  H   UNL     1       2.509  -5.871   7.730  0.00  0.00    +0.162 HD
ENDBRANCH  22  23
ENDBRANCH  21  22
ENDBRANCH   4  21
TORSDOF 6
