REMARK  Name = ZINC01872377
REMARK  6 active torsions:
REMARK  status: ('A' for Active; 'I' for Inactive)
REMARK    1  A    between atoms: C_4  and  C_7
REMARK    2  A    between atoms: C_7  and  O_9
REMARK    3  A    between atoms: O_9  and  C_10
REMARK    4  A    between atoms: C_13  and  C_16
REMARK    5  A    between atoms: N_24  and  C_27
REMARK    6  A    between atoms: N_35  and  C_36
REMARK                            x       y       z     vdW  Elec       q    Type
REMARK                         _______ _______ _______ _____ _____    ______ ____
ROOT
ATOM      1  C   UNL     1       8.914  -4.166  -0.018  0.00  0.00    +0.157 C 
ATOM      2  C   UNL     1       9.331  -4.664  -1.423  0.00  0.00    +0.145 C 
ATOM      3  C   UNL     1       9.014  -6.183  -1.374  0.00  0.00    +0.249 C 
ATOM      4  C   UNL     1      10.380  -6.828  -1.442  0.00  0.00    +0.259 C 
ATOM      5  O   UNL     1      10.594  -8.021  -1.423  0.00  0.00    -0.272 OA
ATOM      6  N   UNL     1      11.317  -5.876  -1.527  0.00  0.00    -0.208 N 
ATOM      7  C   UNL     1      10.838  -4.606  -1.534  0.00  0.00    +0.235 C 
ATOM      8  O   UNL     1      11.497  -3.591  -1.614  0.00  0.00    -0.274 OA
ATOM      9  O   UNL     1       8.425  -6.416  -0.083  0.00  0.00    -0.257 OA
ATOM     10  N   UNL     1       8.947  -5.404   0.797  0.00  0.00    -0.244 N 
ENDROOT
BRANCH   6  11
ATOM     11  C   UNL     1      12.687  -6.165  -1.609  0.00  0.00    +0.044 A 
ATOM     12  C   UNL     1      13.531  -5.833  -0.559  0.00  0.00    +0.025 A 
ATOM     13  C   UNL     1      14.880  -6.118  -0.642  0.00  0.00    +0.017 A 
ATOM     14  C   UNL     1      15.389  -6.735  -1.772  0.00  0.00    +0.018 A 
ATOM     15  C   UNL     1      14.549  -7.066  -2.820  0.00  0.00    +0.017 A 
ATOM     16  C   UNL     1      13.199  -6.788  -2.739  0.00  0.00    +0.025 A 
ATOM     17 BR   UNL     1      17.236  -7.123  -1.883  0.00  0.00    -0.050 Br
ENDBRANCH   6  11
BRANCH   1  21
ATOM     18  C   UNL     1       4.973  -2.516  -0.108  0.00  0.00    +0.132 A 
ATOM     19  C   UNL     1       6.077  -1.677  -0.080  0.00  0.00    +0.047 A 
ATOM     20  C   UNL     1       7.350  -2.212  -0.051  0.00  0.00    +0.009 A 
ATOM     21  C   UNL     1       7.524  -3.584  -0.050  0.00  0.00    -0.022 A 
ATOM     22  C   UNL     1       6.425  -4.423  -0.077  0.00  0.00    +0.009 A 
ATOM     23  C   UNL     1       5.150  -3.892  -0.101  0.00  0.00    +0.047 A 
BRANCH  18  24
ATOM     24  O   UNL     1       3.719  -1.991  -0.137  0.00  0.00    -0.422 OA
BRANCH  24  25
ATOM     25  C   UNL     1       3.005  -1.997   1.006  0.00  0.00    +0.344 C 
ATOM     26  O   UNL     1       3.449  -2.541   1.997  0.00  0.00    -0.245 OA
BRANCH  25  30
ATOM     27  C   UNL     1      -0.797  -0.110   1.142  0.00  0.00    +0.000 A 
ATOM     28  C   UNL     1      -0.294  -0.730   2.273  0.00  0.00    +0.001 A 
ATOM     29  C   UNL     1       0.940  -1.344   2.236  0.00  0.00    +0.015 A 
ATOM     30  C   UNL     1       1.683  -1.341   1.053  0.00  0.00    +0.059 A 
ATOM     31  C   UNL     1       1.169  -0.714  -0.084  0.00  0.00    +0.015 A 
ATOM     32  C   UNL     1      -0.066  -0.103  -0.033  0.00  0.00    +0.001 A 
ENDBRANCH  25  30
ENDBRANCH  24  25
ENDBRANCH  18  24
ENDBRANCH   1  21
BRANCH  10  33
ATOM     33  C   UNL     1       9.380  -5.546   2.118  0.00  0.00    +0.065 A 
ATOM     34  C   UNL     1       9.845  -4.442   2.821  0.00  0.00    +0.028 A 
ATOM     35  C   UNL     1      10.272  -4.587   4.126  0.00  0.00    +0.002 A 
ATOM     36  C   UNL     1      10.238  -5.829   4.733  0.00  0.00    +0.000 A 
ATOM     37  C   UNL     1       9.775  -6.930   4.036  0.00  0.00    +0.002 A 
ATOM     38  C   UNL     1       9.341  -6.791   2.732  0.00  0.00    +0.028 A 
ENDBRANCH  10  33
TORSDOF 6
