REMARK  Name = ZINC02238925
REMARK  4 active torsions:
REMARK  status: ('A' for Active; 'I' for Inactive)
REMARK    1  A    between atoms: C_6  and  C_7
REMARK    2  A    between atoms: C_7  and  N_8
REMARK    3  A    between atoms: N_8  and  C_9
REMARK    4  A    between atoms: N_16  and  C_19
REMARK                            x       y       z     vdW  Elec       q    Type
REMARK                         _______ _______ _______ _____ _____    ______ ____
ROOT
ATOM      1  C   UNL     1      -2.868  -1.691  -1.607  0.00  0.00    +0.086 C 
ATOM      2  C   UNL     1      -3.331  -1.830  -2.903  0.00  0.00    +0.113 C 
ATOM      3  C   UNL     1      -4.631  -2.461  -3.192  0.00  0.00    +0.258 C 
ATOM      4  O   UNL     1      -5.337  -2.879  -2.292  0.00  0.00    -0.270 OA
ATOM      5  N   UNL     1      -5.019  -2.562  -4.480  0.00  0.00    -0.235 N 
ATOM      6  C   UNL     1      -4.252  -2.106  -5.480  0.00  0.00    +0.316 C 
ATOM      7  O   UNL     1      -4.658  -2.229  -6.619  0.00  0.00    -0.252 OA
ATOM      8  N   UNL     1      -3.060  -1.522  -5.291  0.00  0.00    -0.218 N 
ATOM      9  C   UNL     1      -2.548  -1.349  -4.055  0.00  0.00    +0.261 C 
ATOM     10  O   UNL     1      -1.468  -0.812  -3.896  0.00  0.00    -0.269 OA
ATOM     11  H   UNL     1      -5.872  -2.975  -4.687  0.00  0.00    +0.159 HD
ENDROOT
BRANCH   8  12
ATOM     12  C   UNL     1      -2.298  -1.058  -6.453  0.00  0.00    +0.086 C 
ATOM     13  C   UNL     1      -3.104   0.046  -7.169  0.00  0.00    +0.023 C 
ATOM     14  C   UNL     1      -2.157   0.859  -8.010  0.00  0.00    +0.002 C 
ATOM     15  C   UNL     1      -2.088   0.362  -9.467  0.00  0.00    +0.000 C 
ATOM     16  C   UNL     1      -2.056  -1.175  -9.573  0.00  0.00    +0.000 C 
ATOM     17  C   UNL     1      -1.162  -1.805  -8.540  0.00  0.00    +0.002 C 
ATOM     18  C   UNL     1      -2.021  -2.193  -7.319  0.00  0.00    +0.023 C 
ENDBRANCH   8  12
BRANCH   1  19
ATOM     19  N   UNL     1      -1.761  -0.963  -1.362  0.00  0.00    -0.345 N 
ATOM     20  H   UNL     1      -1.335  -0.471  -2.081  0.00  0.00    +0.146 HD
BRANCH  19  21
ATOM     21  C   UNL     1      -1.201  -0.914  -0.009  0.00  0.00    +0.136 C 
BRANCH  21  27
ATOM     22  C   UNL     1      -0.096   1.315   0.247  0.00  0.00    +0.009 A 
ATOM     23  C   UNL     1       1.026   2.123   0.253  0.00  0.00    +0.050 A 
ATOM     24  C   UNL     1       2.275   1.577   0.007  0.00  0.00    +0.166 A 
ATOM     25  C   UNL     1       2.397   0.212  -0.245  0.00  0.00    +0.167 A 
ATOM     26  C   UNL     1       1.268  -0.591  -0.249  0.00  0.00    +0.054 A 
ATOM     27  C   UNL     1       0.025  -0.038  -0.003  0.00  0.00    -0.027 A 
ATOM     28  O   UNL     1       3.714  -0.077  -0.454  0.00  0.00    -0.453 OA
ATOM     29  C   UNL     1       4.346   1.187  -0.731  0.00  0.00    +0.466 C 
ATOM     30  O   UNL     1       3.516   2.142  -0.043  0.00  0.00    -0.453 OA
ENDBRANCH  21  27
ENDBRANCH  19  21
ENDBRANCH   1  19
TORSDOF 4
