REMARK  Name = ZINC39664037
REMARK  10 active torsions:
REMARK  status: ('A' for Active; 'I' for Inactive)
REMARK    1  A    between atoms: C_1  and  C_2
REMARK    2  A    between atoms: C_2  and  C_3
REMARK    3  A    between atoms: C_6  and  C_9
REMARK    4  A    between atoms: C_13  and  C_22
REMARK    5  A    between atoms: N_24  and  C_25
REMARK    6  A    between atoms: C_25  and  C_26
REMARK    7  A    between atoms: C_26  and  C_28
REMARK    8  A    between atoms: C_26  and  N_36
REMARK    9  A    between atoms: C_31  and  O_34
REMARK   10  A    between atoms: O_34  and  C_35
REMARK                            x       y       z     vdW  Elec       q    Type
REMARK                         _______ _______ _______ _____ _____    ______ ____
ROOT
ATOM      1  C   UNL     1      -5.481  -1.988   0.023  0.00  0.00    +0.247 C 
ATOM      2  O   UNL     1      -6.103  -2.277   1.027  0.00  0.00    -0.270 OA
ATOM      3  N   UNL     1      -6.077  -2.067  -1.184  0.00  0.00    -0.296 N 
ATOM      4  C   UNL     1      -5.456  -1.883  -2.517  0.00  0.00    +0.121 C 
ATOM      5  C   UNL     1      -6.119  -2.957  -3.408  0.00  0.00    +0.100 C 
ATOM      6  C   UNL     1      -7.460  -3.263  -2.722  0.00  0.00    -0.004 C 
ATOM      7  C   UNL     1      -7.499  -2.364  -1.478  0.00  0.00    +0.115 C 
ATOM      8  C   UNL     1      -7.520  -4.730  -2.307  0.00  0.00    -0.010 C 
ATOM      9  C   UNL     1      -8.885  -5.023  -1.679  0.00  0.00    -0.082 C 
ATOM     10  N   UNL     1      -9.946  -4.725  -2.648  0.00  0.00    +0.379 N 
ATOM     11  C   UNL     1      -9.941  -3.293  -2.972  0.00  0.00    -0.082 C 
ATOM     12  C   UNL     1      -8.620  -2.926  -3.654  0.00  0.00    -0.010 C 
ATOM     13  H   UNL     1      -9.790  -5.259  -3.490  0.00  0.00    -0.086 HD
ATOM     14  H   UNL     1     -10.840  -4.976  -2.255  0.00  0.00    -0.086 HD
ENDROOT
BRANCH   1  18
ATOM     15  C   UNL     1      -1.434  -0.734   0.316  0.00  0.00    -0.048 A 
ATOM     16  C   UNL     1      -2.006  -1.460   1.345  0.00  0.00    +0.004 A 
ATOM     17  C   UNL     1      -3.320  -1.871   1.256  0.00  0.00    +0.013 A 
ATOM     18  C   UNL     1      -4.073  -1.552   0.125  0.00  0.00    +0.037 A 
ATOM     19  C   UNL     1      -3.490  -0.818  -0.910  0.00  0.00    +0.013 A 
ATOM     20  C   UNL     1      -2.176  -0.409  -0.806  0.00  0.00    +0.004 A 
BRANCH  15  22
ATOM     21  C   UNL     1       0.063   1.086   1.091  0.00  0.00    +0.009 C 
ATOM     22  C   UNL     1       0.002  -0.288   0.420  0.00  0.00    +0.032 C 
ENDBRANCH  15  22
ENDBRANCH   1  18
BRANCH   5  23
ATOM     23  C   UNL     1      -5.261  -4.195  -3.463  0.00  0.00    +0.218 C 
ATOM     24  O   UNL     1      -4.610  -4.526  -2.495  0.00  0.00    -0.275 OA
ATOM     25  N   UNL     1      -5.217  -4.934  -4.590  0.00  0.00    -0.316 N 
ATOM     26  H   UNL     1      -5.737  -4.670  -5.364  0.00  0.00    +0.149 HD
BRANCH  25  27
ATOM     27  C   UNL     1      -4.383  -6.138  -4.643  0.00  0.00    +0.093 C 
BRANCH  27  28
ATOM     28  C   UNL     1      -4.604  -6.852  -5.978  0.00  0.00    -0.020 C 
BRANCH  28  29
ATOM     29  C   UNL     1      -4.100  -5.983  -7.102  0.00  0.00    -0.059 A 
ATOM     30  C   UNL     1      -2.749  -5.944  -7.392  0.00  0.00    +0.005 A 
ATOM     31  C   UNL     1      -2.284  -5.149  -8.421  0.00  0.00    +0.046 A 
ATOM     32  C   UNL     1      -3.175  -4.389  -9.165  0.00  0.00    +0.120 A 
ATOM     33  C   UNL     1      -4.531  -4.430  -8.873  0.00  0.00    +0.046 A 
ATOM     34  C   UNL     1      -4.991  -5.231  -7.846  0.00  0.00    +0.005 A 
BRANCH  32  35
ATOM     35  O   UNL     1      -2.721  -3.605 -10.178  0.00  0.00    -0.495 OA
ATOM     36  C   UNL     1      -3.695  -2.850 -10.901  0.00  0.00    +0.277 C 
ENDBRANCH  32  35
ENDBRANCH  28  29
BRANCH  28  37
ATOM     37  N   UNL     1      -3.873  -8.126  -5.979  0.00  0.00    +0.385 N 
ATOM     38  C   UNL     1      -4.470  -9.059  -4.989  0.00  0.00    -0.078 C 
ATOM     39  C   UNL     1      -4.007 -10.450  -5.490  0.00  0.00    -0.020 C 
ATOM     40  C   UNL     1      -4.079 -10.306  -7.027  0.00  0.00    -0.020 C 
ATOM     41  C   UNL     1      -4.009  -8.791  -7.293  0.00  0.00    -0.078 C 
ATOM     42  H   UNL     1      -2.899  -7.969  -5.767  0.00  0.00    -0.081 HD
ENDBRANCH  28  37
ENDBRANCH  27  28
ENDBRANCH  25  27
ENDBRANCH   5  23
TORSDOF 8
