REMARK  Name = ZINC25759541
REMARK  7 active torsions:
REMARK  status: ('A' for Active; 'I' for Inactive)
REMARK    1  A    between atoms: C_1  and  C_2
REMARK    2  A    between atoms: C_3  and  C_23
REMARK    3  A    between atoms: C_4  and  C_11
REMARK    4  A    between atoms: C_5  and  C_9
REMARK    5  A    between atoms: C_6  and  C_8
REMARK    6  A    between atoms: C_14  and  S_16
REMARK    7  A    between atoms: S_16  and  C_17
REMARK                            x       y       z     vdW  Elec       q    Type
REMARK                         _______ _______ _______ _____ _____    ______ ____
ROOT
ATOM      1  C   UNL     1      -3.374   7.509  -2.509  0.00  0.00    +0.061 C 
ATOM      2  C   UNL     1      -2.547   7.898  -1.311  0.00  0.00    +0.019 C 
ATOM      3  C   UNL     1      -1.216   8.016  -1.434  0.00  0.00    +0.061 C 
ATOM      4  C   UNL     1      -0.352   8.411  -0.270  0.00  0.00    +0.139 C 
ATOM      5  C   UNL     1      -1.097   8.252   1.024  0.00  0.00    +0.061 C 
ATOM      6  C   UNL     1      -2.433   8.125   1.053  0.00  0.00    +0.019 C 
ATOM      7  N   UNL     1      -3.163   8.127  -0.108  0.00  0.00    -0.320 N 
ATOM      8  C   UNL     1      -3.139   7.977   2.377  0.00  0.00    +0.061 C 
ATOM      9  H   UNL     1      -4.247   8.314  -0.071  0.00  0.00    +0.152 HD
ENDROOT
BRANCH   4  10
ATOM     10  C   UNL     1       0.877   7.539  -0.246  0.00  0.00    +0.120 A 
ATOM     11  C   UNL     1       2.147   7.969  -0.348  0.00  0.00    +0.047 A 
ATOM     12  C   UNL     1       2.976   6.827  -0.273  0.00  0.00    +0.057 A 
ATOM     13  C   UNL     1       2.156   5.757  -0.137  0.00  0.00    +0.166 A 
ATOM     14  O   UNL     1       0.887   6.199  -0.118  0.00  0.00    -0.452 OA
BRANCH  13  15
ATOM     15  S   UNL     1       2.666   4.076  -0.001  0.00  0.00    -0.052 S 
BRANCH  15  16
ATOM     16  C   UNL     1       1.155   3.170  -0.009  0.00  0.00    +0.016 A 
ATOM     17  C   UNL     1       0.566   2.808  -1.215  0.00  0.00    +0.015 A 
ATOM     18  C   UNL     1      -0.618   2.098  -1.217  0.00  0.00    +0.001 A 
ATOM     19  C   UNL     1      -1.221   1.751  -0.021  0.00  0.00    +0.000 A 
ATOM     20  C   UNL     1      -0.634   2.105   1.181  0.00  0.00    +0.001 A 
ATOM     21  C   UNL     1       0.550   2.815   1.190  0.00  0.00    +0.015 A 
ENDBRANCH  15  16
ENDBRANCH  13  15
ENDBRANCH   4  10
BRANCH   5  22
ATOM     22  C   UNL     1      -0.366   8.236   2.255  0.00  0.00    +0.097 C 
ATOM     23  N   UNL     1       0.213   8.223   3.232  0.00  0.00    -0.191 NA
ENDBRANCH   5  22
BRANCH   3  24
ATOM     24  C   UNL     1      -0.605   7.761  -2.704  0.00  0.00    +0.097 C 
ATOM     25  N   UNL     1      -0.120   7.558  -3.711  0.00  0.00    -0.191 NA
ENDBRANCH   3  24
TORSDOF 5
