REMARK  Name = ZINC13857155
REMARK  4 active torsions:
REMARK  status: ('A' for Active; 'I' for Inactive)
REMARK    1  A    between atoms: C_1  and  C_2
REMARK    2  A    between atoms: C_2  and  C_3
REMARK    3  A    between atoms: N_10  and  N_11
REMARK    4  A    between atoms: C_14  and  C_17
REMARK                            x       y       z     vdW  Elec       q    Type
REMARK                         _______ _______ _______ _____ _____    ______ ____
ROOT
ATOM      1  C   UNL     1      -1.412  -0.526   0.013  0.00  0.00    -0.047 A 
ATOM      2  C   UNL     1      -2.051  -0.766   1.218  0.00  0.00    +0.005 A 
ATOM      3  C   UNL     1      -3.346  -1.244   1.243  0.00  0.00    +0.024 A 
ATOM      4  C   UNL     1      -4.023  -1.490   0.054  0.00  0.00    +0.043 A 
ATOM      5  C   UNL     1      -3.372  -1.245  -1.163  0.00  0.00    +0.028 A 
ATOM      6  C   UNL     1      -2.070  -0.758  -1.178  0.00  0.00    +0.015 A 
ATOM      7  C   UNL     1      -4.337  -1.597  -2.230  0.00  0.00    +0.152 C 
ATOM      8  N   UNL     1      -4.153  -1.525  -3.530  0.00  0.00    -0.175 NA
ATOM      9  C   UNL     1      -5.546  -2.046  -1.519  0.00  0.00    +0.269 C 
ATOM     10  O   UNL     1      -6.580  -2.427  -2.035  0.00  0.00    -0.268 OA
ATOM     11  N   UNL     1      -5.305  -1.962  -0.200  0.00  0.00    -0.280 N 
ATOM     12  H   UNL     1      -5.945  -2.202   0.489  0.00  0.00    +0.155 HD
ENDROOT
BRANCH   8  13
ATOM     13  N   UNL     1      -5.100  -1.872  -4.335  0.00  0.00    -0.215 N 
ATOM     14  C   UNL     1      -4.906  -1.796  -5.705  0.00  0.00    +0.178 A 
ATOM     15  N   UNL     1      -5.741  -2.095  -6.684  0.00  0.00    -0.224 NA
ATOM     16  C   UNL     1      -5.388  -1.961  -7.952  0.00  0.00    +0.080 A 
ATOM     17  C   UNL     1      -4.133  -1.505  -8.256  0.00  0.00    +0.077 A 
ATOM     18  S   UNL     1      -3.465  -1.260  -6.615  0.00  0.00    -0.059 S 
ATOM     19  H   UNL     1      -5.947  -2.186  -3.981  0.00  0.00    +0.176 HD
BRANCH  16  20
ATOM     20  C   UNL     1      -6.342  -2.304  -9.035  0.00  0.00    +0.001 A 
ATOM     21  C   UNL     1      -5.963  -2.167 -10.370  0.00  0.00    +0.011 A 
ATOM     22  C   UNL     1      -6.855  -2.487 -11.373  0.00  0.00    +0.016 A 
ATOM     23  C   UNL     1      -8.123  -2.942 -11.056  0.00  0.00    +0.018 A 
ATOM     24  C   UNL     1      -8.504  -3.079  -9.733  0.00  0.00    +0.016 A 
ATOM     25  C   UNL     1      -7.618  -2.768  -8.722  0.00  0.00    +0.011 A 
ATOM     26 BR   UNL     1      -9.339  -3.378 -12.437  0.00  0.00    -0.050 Br
ENDBRANCH  16  20
ENDBRANCH   8  13
BRANCH   1  28
ATOM     27  C   UNL     1      -0.019   1.526   0.010  0.00  0.00    +0.009 C 
ATOM     28  C   UNL     1       0.002  -0.004   0.002  0.00  0.00    +0.032 C 
ENDBRANCH   1  28
TORSDOF 3
