REMARK  Name = ZINC04981937
REMARK  5 active torsions:
REMARK  status: ('A' for Active; 'I' for Inactive)
REMARK    1  A    between atoms: C_4  and  C_7
REMARK    2  A    between atoms: C_8  and  C_9
REMARK    3  A    between atoms: N_10  and  N_11
REMARK    4  A    between atoms: C_12  and  C_14
REMARK    5  A    between atoms: C_16  and  C_20
REMARK                            x       y       z     vdW  Elec       q    Type
REMARK                         _______ _______ _______ _____ _____    ______ ____
ROOT
ATOM      1  N   UNL     1       6.199  -4.699  -0.085  0.00  0.00    -0.202 N 
ATOM      2  C   UNL     1       6.222  -6.047  -0.093  0.00  0.00    +0.283 C 
ATOM      3  O   UNL     1       5.179  -6.672  -0.085  0.00  0.00    -0.267 OA
ATOM      4  H   UNL     1       7.031  -4.200  -0.091  0.00  0.00    +0.178 HD
ENDROOT
BRANCH   2   5
ATOM      5  C   UNL     1       7.513  -6.764  -0.110  0.00  0.00    +0.149 A 
ATOM      6  C   UNL     1       7.692  -8.165  -0.125  0.00  0.00    +0.062 A 
ATOM      7  C   UNL     1       9.045  -8.358  -0.138  0.00  0.00    +0.067 A 
ATOM      8  N   UNL     1       9.620  -7.122  -0.131  0.00  0.00    -0.276 N 
ATOM      9  H   UNL     1      10.576  -6.953  -0.138  0.00  0.00    +0.189 HD
ATOM     10  N   UNL     1       8.712  -6.215  -0.120  0.00  0.00    -0.169 NA
BRANCH   7  11
ATOM     11  C   UNL     1       9.749  -9.660  -0.156  0.00  0.00    +0.001 A 
ATOM     12  C   UNL     1       9.021 -10.850  -0.167  0.00  0.00    +0.011 A 
ATOM     13  C   UNL     1       9.683 -12.060  -0.184  0.00  0.00    +0.022 A 
ATOM     14  C   UNL     1      11.067 -12.096  -0.191  0.00  0.00    +0.059 A 
ATOM     15  C   UNL     1      11.795 -10.918  -0.180  0.00  0.00    +0.060 A 
ATOM     16  C   UNL     1      11.143  -9.701  -0.169  0.00  0.00    +0.031 A 
ATOM     17 CL   UNL     1      13.530 -10.972  -0.187  0.00  0.00    -0.082 Cl
ATOM     18 CL   UNL     1      11.892 -13.623  -0.212  0.00  0.00    -0.082 Cl
ENDBRANCH   7  11
ENDBRANCH   2   5
BRANCH   1  20
ATOM     19  C   UNL     1       4.953  -2.717  -0.062  0.00  0.00    +0.130 C 
ATOM     20  N   UNL     1       4.975  -4.019  -0.069  0.00  0.00    -0.188 NA
BRANCH  19  22
ATOM     21  C   UNL     1       3.692  -0.680  -0.038  0.00  0.00    +0.009 C 
ATOM     22  C   UNL     1       3.714  -2.028  -0.045  0.00  0.00    +0.022 C 
BRANCH  21  26
ATOM     23  C   UNL     1      -0.017   1.380   0.010  0.00  0.00    +0.000 A 
ATOM     24  C   UNL     1       1.168   2.095   0.002  0.00  0.00    +0.001 A 
ATOM     25  C   UNL     1       2.377   1.433  -0.013  0.00  0.00    +0.008 A 
ATOM     26  C   UNL     1       2.405   0.035  -0.021  0.00  0.00    -0.025 A 
ATOM     27  C   UNL     1       1.203  -0.681  -0.013  0.00  0.00    +0.008 A 
ATOM     28  C   UNL     1       0.002  -0.004   0.002  0.00  0.00    +0.001 A 
ENDBRANCH  21  26
ENDBRANCH  19  22
ENDBRANCH   1  20
TORSDOF 5
