REMARK  Name = ZINC03670624
REMARK  9 active torsions:
REMARK  status: ('A' for Active; 'I' for Inactive)
REMARK    1  A    between atoms: C_1  and  N_2
REMARK    2  A    between atoms: N_2  and  C_3
REMARK    3  A    between atoms: N_2  and  C_4
REMARK    4  A    between atoms: C_4  and  C_5
REMARK    5  A    between atoms: C_5  and  C_6
REMARK    6  A    between atoms: C_6  and  N_7
REMARK    7  A    between atoms: C_8  and  C_10
REMARK    8  A    between atoms: C_10  and  O_30
REMARK    9  A    between atoms: N_20  and  C_21
REMARK                            x       y       z     vdW  Elec       q    Type
REMARK                         _______ _______ _______ _____ _____    ______ ____
ROOT
ATOM      1  C   UNL     1      -3.918  -6.215  -0.385  0.00  0.00    +0.247 C 
ATOM      2  C   UNL     1      -3.409  -6.556  -1.767  0.00  0.00    +0.034 A 
ATOM      3  C   UNL     1      -4.043  -6.092  -2.897  0.00  0.00    +0.025 A 
ATOM      4  C   UNL     1      -3.548  -6.424  -4.147  0.00  0.00    +0.018 A 
ATOM      5  C   UNL     1      -2.421  -7.219  -4.257  0.00  0.00    +0.017 A 
ATOM      6  C   UNL     1      -1.784  -7.686  -3.124  0.00  0.00    +0.025 A 
ATOM      7  C   UNL     1      -2.276  -7.355  -1.868  0.00  0.00    +0.043 A 
ATOM      8  N   UNL     1      -1.645  -7.816  -0.712  0.00  0.00    -0.269 N 
ATOM      9  C   UNL     1      -2.081  -7.524   0.521  0.00  0.00    +0.314 C 
ATOM     10  O   UNL     1      -1.468  -7.969   1.472  0.00  0.00    -0.252 OA
ATOM     11  N   UNL     1      -3.165  -6.763   0.756  0.00  0.00    -0.209 N 
ATOM     12 BR   UNL     1      -4.413  -5.792  -5.705  0.00  0.00    -0.050 Br
ATOM     13  H   UNL     1      -0.856  -8.372  -0.804  0.00  0.00    +0.156 HD
ENDROOT
BRANCH  11  14
ATOM     14  C   UNL     1      -3.571  -6.493   2.070  0.00  0.00    +0.111 A 
ATOM     15  C   UNL     1      -3.083  -5.374   2.734  0.00  0.00    +0.148 A 
ATOM     16  C   UNL     1      -3.487  -5.110   4.031  0.00  0.00    +0.040 A 
ATOM     17  C   UNL     1      -4.375  -5.959   4.666  0.00  0.00    +0.006 A 
ATOM     18  C   UNL     1      -4.862  -7.073   4.009  0.00  0.00    +0.040 A 
ATOM     19  C   UNL     1      -4.468  -7.340   2.710  0.00  0.00    +0.148 A 
ATOM     20  F   UNL     1      -4.948  -8.427   2.067  0.00  0.00    -0.203 F 
ATOM     21  F   UNL     1      -2.216  -4.544   2.114  0.00  0.00    -0.203 F 
ENDBRANCH  11  14
BRANCH   1  23
ATOM     22  N   UNL     1      -2.777  -4.025  -0.239  0.00  0.00    -0.311 N 
ATOM     23  C   UNL     1      -3.935  -4.714  -0.253  0.00  0.00    +0.269 C 
ATOM     24  O   UNL     1      -4.992  -4.126  -0.160  0.00  0.00    -0.270 OA
ATOM     25  H   UNL     1      -1.932  -4.496  -0.314  0.00  0.00    +0.149 HD
BRANCH  22  26
ATOM     26  C   UNL     1      -2.794  -2.566  -0.111  0.00  0.00    +0.102 C 
BRANCH  26  27
ATOM     27  C   UNL     1      -1.358  -2.037  -0.122  0.00  0.00    +0.000 C 
BRANCH  27  28
ATOM     28  C   UNL     1      -1.376  -0.512   0.012  0.00  0.00    -0.078 C 
BRANCH  28  30
ATOM     29  C   UNL     1      -0.018   1.465   0.010  0.00  0.00    -0.097 C 
ATOM     30  N   UNL     1       0.002  -0.004   0.002  0.00  0.00    +0.376 N 
ATOM     31  C   UNL     1       0.713  -0.491   1.192  0.00  0.00    -0.097 C 
ATOM     32  H   UNL     1       0.474  -0.330  -0.828  0.00  0.00    -0.083 HD
ENDBRANCH  28  30
ENDBRANCH  27  28
ENDBRANCH  26  27
ENDBRANCH  22  26
ENDBRANCH   1  23
BRANCH   1  33
ATOM     33  O   UNL     1      -5.266  -6.678  -0.286  0.00  0.00    -0.360 OA
ATOM     34  H   UNL     1      -5.855  -6.324  -0.967  0.00  0.00    +0.213 HD
ENDBRANCH   1  33
TORSDOF 7
