REMARK  Name = ZINC58989119
REMARK  12 active torsions:
REMARK  status: ('A' for Active; 'I' for Inactive)
REMARK    1  A    between atoms: C_1  and  C_2
REMARK    2  A    between atoms: C_2  and  O_3
REMARK    3  A    between atoms: O_3  and  C_4
REMARK    4  A    between atoms: C_7  and  C_10
REMARK    5  A    between atoms: N_11  and  N_12
REMARK    6  A    between atoms: C_13  and  C_15
REMARK    7  A    between atoms: C_15  and  C_16
REMARK    8  A    between atoms: C_16  and  C_17
REMARK    9  A    between atoms: C_17  and  S_18
REMARK   10  A    between atoms: S_18  and  C_19
REMARK   11  A    between atoms: C_22  and  C_25
REMARK   12  A    between atoms: N_23  and  N_24
REMARK                            x       y       z     vdW  Elec       q    Type
REMARK                         _______ _______ _______ _____ _____    ______ ____
ROOT
ATOM      1  C   UNL     1       3.168 -10.183  -5.681  0.00  0.00    +0.020 C 
ENDROOT
BRANCH   1   2
ATOM      2  C   UNL     1       2.540  -9.880  -4.319  0.00  0.00    +0.098 C 
BRANCH   2   4
ATOM      3  N   UNL     1       1.796  -7.890  -3.052  0.00  0.00    -0.207 N 
ATOM      4  C   UNL     1       2.339  -8.393  -4.179  0.00  0.00    +0.232 C 
ATOM      5  O   UNL     1       2.665  -7.649  -5.079  0.00  0.00    -0.274 OA
ATOM      6  H   UNL     1       1.534  -8.485  -2.332  0.00  0.00    +0.177 HD
BRANCH   3   8
ATOM      7  C   UNL     1       1.085  -6.024  -1.837  0.00  0.00    +0.138 C 
ATOM      8  N   UNL     1       1.608  -6.508  -2.921  0.00  0.00    -0.188 NA
BRANCH   7  12
ATOM      9  C   UNL     1       0.519  -1.835  -1.440  0.00  0.00    +0.121 A 
ATOM     10  C   UNL     1       0.144  -2.686  -0.407  0.00  0.00    +0.046 A 
ATOM     11  C   UNL     1       0.326  -4.046  -0.532  0.00  0.00    +0.013 A 
ATOM     12  C   UNL     1       0.888  -4.569  -1.699  0.00  0.00    -0.005 A 
ATOM     13  C   UNL     1       1.264  -3.710  -2.735  0.00  0.00    +0.013 A 
ATOM     14  C   UNL     1       1.074  -2.352  -2.604  0.00  0.00    +0.046 A 
BRANCH   9  15
ATOM     15  O   UNL     1       0.337  -0.495  -1.313  0.00  0.00    -0.492 OA
BRANCH  15  17
ATOM     16  C   UNL     1      -0.364   1.493  -0.131  0.00  0.00    +0.048 C 
ATOM     17  C   UNL     1      -0.238  -0.031  -0.090  0.00  0.00    +0.225 C 
ENDBRANCH  15  17
ENDBRANCH   9  15
ENDBRANCH   7  12
ENDBRANCH   3   8
ENDBRANCH   2   4
ENDBRANCH   1   2
BRANCH   1  18
ATOM     18  C   UNL     1       3.373 -11.692  -5.824  0.00  0.00    +0.078 C 
BRANCH  18  19
ATOM     19  S   UNL     1       4.117 -12.052  -7.439  0.00  0.00    -0.084 S 
BRANCH  19  20
ATOM     20  C   UNL     1       4.286 -13.805  -7.450  0.00  0.00    +0.209 A 
ATOM     21  N   UNL     1       3.934 -14.629  -6.488  0.00  0.00    -0.121 NA
ATOM     22  N   UNL     1       4.198 -15.840  -6.825  0.00  0.00    -0.127 NA
ATOM     23  C   UNL     1       4.735 -15.865  -8.022  0.00  0.00    +0.183 A 
ATOM     24  N   UNL     1       4.803 -14.563  -8.462  0.00  0.00    -0.224 N 
BRANCH  23  25
ATOM     25  C   UNL     1       5.178 -17.066  -8.761  0.00  0.00    +0.035 A 
ATOM     26  C   UNL     1       6.434 -17.090  -9.372  0.00  0.00    +0.013 A 
ATOM     27  C   UNL     1       6.841 -18.214 -10.059  0.00  0.00    +0.001 A 
ATOM     28  C   UNL     1       6.009 -19.317 -10.146  0.00  0.00    +0.001 A 
ATOM     29  C   UNL     1       4.764 -19.300  -9.544  0.00  0.00    +0.016 A 
ATOM     30  C   UNL     1       4.346 -18.184  -8.847  0.00  0.00    +0.029 A 
ATOM     31 BR   UNL     1       2.646 -18.166  -8.018  0.00  0.00    -0.050 Br
ENDBRANCH  23  25
BRANCH  24  32
ATOM     32  N   UNL     1       5.288 -14.120  -9.659  0.00  0.00    -0.295 N 
ATOM     33  H   UNL     1       6.290 -14.004  -9.622  0.00  0.00    +0.163 HD
ATOM     34  H   UNL     1       5.024 -14.742 -10.409  0.00  0.00    +0.163 HD
ENDBRANCH  24  32
ENDBRANCH  19  20
ENDBRANCH  18  19
ENDBRANCH   1  18
TORSDOF 11
