REMARK  Name = ZINC53511827
REMARK  10 active torsions:
REMARK  status: ('A' for Active; 'I' for Inactive)
REMARK    1  A    between atoms: C_1  and  C_2
REMARK    2  A    between atoms: N_7  and  C_9
REMARK    3  A    between atoms: C_9  and  C_10
REMARK    4  A    between atoms: C_13  and  C_16
REMARK    5  A    between atoms: C_16  and  N_17
REMARK    6  A    between atoms: C_18  and  C_20
REMARK    7  A    between atoms: C_20  and  C_21
REMARK    8  A    between atoms: C_20  and  C_22
REMARK    9  A    between atoms: C_20  and  N_23
REMARK   10  A    between atoms: N_26  and  C_27
REMARK                            x       y       z     vdW  Elec       q    Type
REMARK                         _______ _______ _______ _____ _____    ______ ____
ROOT
ATOM      1  C   UNL     1       1.321  -3.966   2.518  0.00  0.00    -0.064 A 
ATOM      2  C   UNL     1       0.233  -4.569   3.122  0.00  0.00    +0.002 A 
ATOM      3  C   UNL     1       0.149  -5.948   3.174  0.00  0.00    +0.005 A 
ATOM      4  C   UNL     1       1.151  -6.724   2.623  0.00  0.00    -0.030 A 
ATOM      5  C   UNL     1       2.239  -6.121   2.019  0.00  0.00    +0.005 A 
ATOM      6  C   UNL     1       2.321  -4.742   1.963  0.00  0.00    +0.002 A 
ENDROOT
BRANCH   1   7
ATOM      7  C   UNL     1       1.413  -2.463   2.461  0.00  0.00    -0.043 C 
BRANCH   7  13
ATOM      8  C   UNL     1      -0.019   1.526   0.010  0.00  0.00    +0.005 C 
ATOM      9  C   UNL     1       0.002  -0.004   0.002  0.00  0.00    -0.031 C 
ATOM     10  C   UNL     1       0.721  -0.499  -1.257  0.00  0.00    -0.001 C 
ATOM     11  C   UNL     1       0.805  -2.027  -1.217  0.00  0.00    -0.018 C 
ATOM     12  C   UNL     1       1.518  -2.460   0.066  0.00  0.00    -0.078 C 
ATOM     13  N   UNL     1       0.768  -1.979   1.233  0.00  0.00    +0.383 N 
ATOM     14  C   UNL     1       0.744  -0.512   1.240  0.00  0.00    -0.075 C 
ATOM     15  H   UNL     1      -0.177  -2.330   1.192  0.00  0.00    -0.081 HD
ENDBRANCH   7  13
ENDBRANCH   1   7
BRANCH   4  16
ATOM     16  C   UNL     1       1.060  -8.227   2.682  0.00  0.00    +0.139 C 
BRANCH  16  17
ATOM     17  N   UNL     1       0.361  -8.720   1.492  0.00  0.00    -0.309 N 
ATOM     18  C   UNL     1       0.161 -10.043   1.328  0.00  0.00    +0.236 C 
ATOM     19  O   UNL     1       0.559 -10.825   2.165  0.00  0.00    -0.273 OA
ATOM     20  H   UNL     1       0.043  -8.094   0.823  0.00  0.00    +0.149 HD
BRANCH  18  21
ATOM     21  C   UNL     1      -0.557 -10.550   0.104  0.00  0.00    +0.106 C 
ATOM     22  C   UNL     1       0.441 -10.707  -1.045  0.00  0.00    +0.041 C 
ATOM     23  C   UNL     1      -1.197 -11.905   0.413  0.00  0.00    +0.041 C 
BRANCH  21  24
ATOM     24  N   UNL     1      -1.599  -9.595  -0.281  0.00  0.00    -0.286 N 
ATOM     25  C   UNL     1      -2.375  -9.841  -1.355  0.00  0.00    +0.300 C 
ATOM     26  O   UNL     1      -2.210 -10.856  -2.005  0.00  0.00    -0.253 OA
ATOM     27  N   UNL     1      -3.333  -8.963  -1.710  0.00  0.00    -0.302 N 
ATOM     28  C   UNL     1      -4.177  -9.230  -2.878  0.00  0.00    +0.129 C 
ATOM     29  H   UNL     1      -1.730  -8.785   0.236  0.00  0.00    +0.151 HD
ATOM     30  H   UNL     1      -3.465  -8.153  -1.193  0.00  0.00    +0.150 HD
ENDBRANCH  21  24
ENDBRANCH  18  21
ENDBRANCH  16  17
ENDBRANCH   4  16
TORSDOF 6
