REMARK  Name = ZINC09698149
REMARK  7 active torsions:
REMARK  status: ('A' for Active; 'I' for Inactive)
REMARK    1  A    between atoms: C_1  and  C_2
REMARK    2  A    between atoms: C_2  and  C_3
REMARK    3  A    between atoms: C_3  and  S_4
REMARK    4  A    between atoms: S_4  and  C_5
REMARK    5  A    between atoms: C_16  and  C_19
REMARK    6  A    between atoms: C_16  and  C_20
REMARK    7  A    between atoms: C_20  and  C_21
REMARK                            x       y       z     vdW  Elec       q    Type
REMARK                         _______ _______ _______ _____ _____    ______ ____
ROOT
ATOM      1  C   UNL     1       1.641  -2.747   2.702  0.00  0.00    +0.170 A 
ATOM      2  N   UNL     1       1.837  -4.058   2.985  0.00  0.00    -0.333 N 
ATOM      3  C   UNL     1       2.527  -4.444   4.142  0.00  0.00    +0.066 A 
ATOM      4  C   UNL     1       2.814  -5.748   4.577  0.00  0.00    +0.013 A 
ATOM      5  C   UNL     1       3.504  -5.890   5.743  0.00  0.00    +0.001 A 
ATOM      6  S   UNL     1       3.788  -4.230   6.290  0.00  0.00    -0.086 S 
ATOM      7  C   UNL     1       2.978  -3.398   4.947  0.00  0.00    +0.102 A 
ATOM      8  C   UNL     1       2.748  -2.057   4.607  0.00  0.00    +0.288 A 
ATOM      9  N   UNL     1       2.081  -1.775   3.474  0.00  0.00    -0.184 NA
ATOM     10  O   UNL     1       3.153  -1.157   5.327  0.00  0.00    -0.265 OA
ATOM     11  C   UNL     1       3.911  -7.181   6.380  0.00  0.00    +0.077 C 
ATOM     12  C   UNL     1       3.733  -8.291   5.330  0.00  0.00    +0.071 C 
ATOM     13  O   UNL     1       2.468  -8.118   4.686  0.00  0.00    -0.369 OA
ATOM     14  C   UNL     1       2.387  -6.995   3.805  0.00  0.00    +0.198 C 
ATOM     15  C   UNL     1       4.854  -8.201   4.293  0.00  0.00    +0.042 C 
ATOM     16  H   UNL     1       1.495  -4.736   2.380  0.00  0.00    +0.168 HD
ENDROOT
BRANCH  12  17
ATOM     17  C   UNL     1       3.776  -9.658   6.017  0.00  0.00    +0.032 C 
ATOM     18  C   UNL     1       3.724 -10.762   4.960  0.00  0.00    +0.007 C 
ENDBRANCH  12  17
BRANCH   1  19
ATOM     19  S   UNL     1       0.767  -2.325   1.232  0.00  0.00    -0.088 S 
BRANCH  19  20
ATOM     20  C   UNL     1       0.742  -0.511   1.242  0.00  0.00    +0.077 C 
BRANCH  20  22
ATOM     21  C   UNL     1      -0.019   1.526   0.010  0.00  0.00    +0.004 C 
ATOM     22  C   UNL     1       0.002  -0.004   0.002  0.00  0.00    +0.008 C 
ENDBRANCH  20  22
ENDBRANCH  19  20
ENDBRANCH   1  19
TORSDOF 4
