REMARK  Name = ZINC38650790
REMARK  12 active torsions:
REMARK  status: ('A' for Active; 'I' for Inactive)
REMARK    1  A    between atoms: C_1  and  C_2
REMARK    2  A    between atoms: C_2  and  C_3
REMARK    3  A    between atoms: C_3  and  C_4
REMARK    4  A    between atoms: C_4  and  O_5
REMARK    5  A    between atoms: O_5  and  C_6
REMARK    6  A    between atoms: C_9  and  C_12
REMARK    7  A    between atoms: C_17  and  O_26
REMARK    8  A    between atoms: C_21  and  N_25
REMARK    9  A    between atoms: C_22  and  C_23
REMARK   10  A    between atoms: O_26  and  C_27
REMARK   11  A    between atoms: C_27  and  C_29
REMARK   12  A    between atoms: C_32  and  N_35
REMARK                            x       y       z     vdW  Elec       q    Type
REMARK                         _______ _______ _______ _____ _____    ______ ____
ROOT
ATOM      1  C   UNL     1       1.901  -8.117   2.933  0.00  0.00    +0.098 C 
ATOM      2  C   UNL     1       3.358  -8.492   2.985  0.00  0.00    +0.008 A 
ATOM      3  C   UNL     1       4.071  -8.616   1.805  0.00  0.00    +0.012 A 
ATOM      4  C   UNL     1       5.408  -8.959   1.833  0.00  0.00    +0.047 A 
ATOM      5  C   UNL     1       6.042  -9.182   3.047  0.00  0.00    +0.135 A 
ATOM      6  C   UNL     1       5.331  -9.059   4.230  0.00  0.00    +0.093 A 
ATOM      7  C   UNL     1       3.986  -8.713   4.200  0.00  0.00    +0.138 A 
ATOM      8  O   UNL     1       3.305  -8.597   5.367  0.00  0.00    -0.441 OA
ATOM      9  C   UNL     1       1.963  -8.650   5.367  0.00  0.00    +0.199 C 
ATOM     10  C   UNL     1       1.240  -8.432   4.246  0.00  0.00    +0.098 C 
ENDROOT
BRANCH   1  14
ATOM     11  C   UNL     1       1.543  -3.934   2.136  0.00  0.00    +0.121 A 
ATOM     12  C   UNL     1       0.994  -4.858   1.259  0.00  0.00    +0.046 A 
ATOM     13  C   UNL     1       1.111  -6.210   1.519  0.00  0.00    +0.008 A 
ATOM     14  C   UNL     1       1.775  -6.642   2.652  0.00  0.00    -0.034 A 
ATOM     15  C   UNL     1       2.323  -5.723   3.528  0.00  0.00    +0.008 A 
ATOM     16  C   UNL     1       2.213  -4.370   3.270  0.00  0.00    +0.046 A 
BRANCH  11  17
ATOM     17  O   UNL     1       1.429  -2.604   1.883  0.00  0.00    -0.492 OA
BRANCH  17  18
ATOM     18  C   UNL     1       0.726  -2.227   0.697  0.00  0.00    +0.229 C 
BRANCH  18  19
ATOM     19  C   UNL     1       0.701  -0.702   0.582  0.00  0.00    +0.041 C 
BRANCH  19  21
ATOM     20  C   UNL     1      -0.077   1.227  -0.803  0.00  0.00    +0.004 C 
ATOM     21  C   UNL     1      -0.052  -0.298  -0.687  0.00  0.00    -0.000 C 
ENDBRANCH  19  21
ENDBRANCH  18  19
ENDBRANCH  17  18
ENDBRANCH  11  17
ENDBRANCH   1  14
BRANCH   9  22
ATOM     22  N   UNL     1       1.308  -8.934   6.539  0.00  0.00    -0.328 N 
ATOM     23  H   UNL     1       1.813  -9.093   7.351  0.00  0.00    +0.145 HD
ATOM     24  H   UNL     1       0.339  -8.977   6.555  0.00  0.00    +0.145 HD
ENDBRANCH   9  22
BRANCH  10  25
ATOM     25  C   UNL     1      -0.189  -8.502   4.313  0.00  0.00    +0.101 C 
ATOM     26  N   UNL     1      -1.322  -8.558   4.367  0.00  0.00    -0.191 NA
ENDBRANCH  10  25
BRANCH   5  27
ATOM     27  O   UNL     1       7.358  -9.520   3.076  0.00  0.00    -0.422 OA
BRANCH  27  28
ATOM     28  C   UNL     1       8.260  -8.584   2.723  0.00  0.00    +0.344 C 
ATOM     29  O   UNL     1       7.897  -7.447   2.493  0.00  0.00    -0.245 OA
BRANCH  28  30
ATOM     30  C   UNL     1       9.690  -8.938   2.615  0.00  0.00    +0.060 A 
ATOM     31  C   UNL     1      10.110 -10.245   2.873  0.00  0.00    +0.017 A 
ATOM     32  C   UNL     1      11.446 -10.570   2.771  0.00  0.00    +0.033 A 
ATOM     33  C   UNL     1      12.371  -9.604   2.414  0.00  0.00    +0.126 A 
ATOM     34  C   UNL     1      11.962  -8.307   2.158  0.00  0.00    +0.033 A 
ATOM     35  C   UNL     1      10.627  -7.970   2.250  0.00  0.00    +0.017 A 
BRANCH  33  36
ATOM     36  N   UNL     1      13.803  -9.959   2.308  0.00  0.00    +0.056 N 
ATOM     37  O   UNL     1      14.164 -11.091   2.532  0.00  0.00    -0.126 OA
ATOM     38  O   UNL     1      14.614  -9.117   1.996  0.00  0.00    -0.126 OA
ENDBRANCH  33  36
ENDBRANCH  28  30
ENDBRANCH  27  28
ENDBRANCH   5  27
TORSDOF 11
