REMARK  Name = ZINC39595706
REMARK  9 active torsions:
REMARK  status: ('A' for Active; 'I' for Inactive)
REMARK    1  A    between atoms: C_1  and  C_2
REMARK    2  A    between atoms: C_2  and  C_3
REMARK    3  A    between atoms: C_6  and  C_9
REMARK    4  A    between atoms: C_13  and  C_22
REMARK    5  A    between atoms: N_24  and  C_25
REMARK    6  A    between atoms: C_25  and  C_26
REMARK    7  A    between atoms: C_26  and  C_28
REMARK    8  A    between atoms: C_26  and  O_29
REMARK    9  A    between atoms: O_29  and  C_30
REMARK                            x       y       z     vdW  Elec       q    Type
REMARK                         _______ _______ _______ _____ _____    ______ ____
ROOT
ATOM      1  C   UNL     1       2.627  -1.851  -4.660  0.00  0.00    +0.247 C 
ATOM      2  O   UNL     1       2.064  -1.419  -3.673  0.00  0.00    -0.270 OA
ATOM      3  N   UNL     1       3.942  -2.142  -4.613  0.00  0.00    -0.296 N 
ATOM      4  C   UNL     1       4.846  -2.075  -3.441  0.00  0.00    +0.121 C 
ATOM      5  C   UNL     1       5.758  -3.315  -3.580  0.00  0.00    +0.100 C 
ATOM      6  C   UNL     1       5.732  -3.654  -5.079  0.00  0.00    -0.004 C 
ATOM      7  C   UNL     1       4.809  -2.608  -5.721  0.00  0.00    +0.115 C 
ATOM      8  C   UNL     1       7.136  -3.554  -5.668  0.00  0.00    -0.010 C 
ATOM      9  C   UNL     1       7.095  -3.953  -7.146  0.00  0.00    -0.082 C 
ATOM     10  N   UNL     1       6.587  -5.324  -7.271  0.00  0.00    +0.379 N 
ATOM     11  C   UNL     1       5.203  -5.392  -6.787  0.00  0.00    -0.082 C 
ATOM     12  C   UNL     1       5.164  -5.054  -5.294  0.00  0.00    -0.010 C 
ATOM     13  H   UNL     1       6.618  -5.606  -8.239  0.00  0.00    -0.086 HD
ATOM     14  H   UNL     1       7.164  -5.946  -6.724  0.00  0.00    -0.086 HD
ENDROOT
BRANCH   1  18
ATOM     15  C   UNL     1       0.447  -2.444  -8.258  0.00  0.00    -0.048 A 
ATOM     16  C   UNL     1       1.772  -2.049  -8.312  0.00  0.00    +0.004 A 
ATOM     17  C   UNL     1       2.486  -1.855  -7.147  0.00  0.00    +0.013 A 
ATOM     18  C   UNL     1       1.868  -2.057  -5.912  0.00  0.00    +0.037 A 
ATOM     19  C   UNL     1       0.531  -2.455  -5.864  0.00  0.00    +0.013 A 
ATOM     20  C   UNL     1      -0.173  -2.641  -7.036  0.00  0.00    +0.004 A 
BRANCH  15  22
ATOM     21  C   UNL     1      -0.993  -1.342  -9.948  0.00  0.00    +0.009 C 
ATOM     22  C   UNL     1      -0.326  -2.655  -9.534  0.00  0.00    +0.032 C 
ENDBRANCH  15  22
ENDBRANCH   1  18
BRANCH   5  23
ATOM     23  C   UNL     1       5.211  -4.462  -2.770  0.00  0.00    +0.218 C 
ATOM     24  O   UNL     1       4.012  -4.610  -2.661  0.00  0.00    -0.275 OA
ATOM     25  N   UNL     1       6.054  -5.323  -2.167  0.00  0.00    -0.312 N 
ATOM     26  H   UNL     1       7.013  -5.204  -2.254  0.00  0.00    +0.149 HD
BRANCH  25  27
ATOM     27  C   UNL     1       5.522  -6.438  -1.379  0.00  0.00    +0.148 C 
BRANCH  27  28
ATOM     28  C   UNL     1       6.681  -7.257  -0.807  0.00  0.00    +0.187 C 
ATOM     29  C   UNL     1       6.130  -8.491  -0.090  0.00  0.00    +0.053 C 
BRANCH  28  30
ATOM     30  O   UNL     1       7.418  -6.457   0.120  0.00  0.00    -0.488 OA
BRANCH  30  31
ATOM     31  C   UNL     1       8.716  -6.798   0.336  0.00  0.00    +0.121 A 
ATOM     32  C   UNL     1       9.297  -7.817  -0.405  0.00  0.00    +0.048 A 
ATOM     33  C   UNL     1      10.617  -8.163  -0.185  0.00  0.00    +0.042 A 
ATOM     34  C   UNL     1      11.358  -7.495   0.775  0.00  0.00    +0.124 A 
ATOM     35  C   UNL     1      10.778  -6.478   1.515  0.00  0.00    +0.042 A 
ATOM     36  C   UNL     1       9.461  -6.125   1.292  0.00  0.00    +0.048 A 
ATOM     37  F   UNL     1      12.648  -7.835   0.989  0.00  0.00    -0.205 F 
ENDBRANCH  30  31
ENDBRANCH  28  30
ENDBRANCH  27  28
ENDBRANCH  25  27
ENDBRANCH   5  23
TORSDOF 7
