REMARK  Name = ZINC52566174
REMARK  9 active torsions:
REMARK  status: ('A' for Active; 'I' for Inactive)
REMARK    1  A    between atoms: C_1  and  C_2
REMARK    2  A    between atoms: C_2  and  C_3
REMARK    3  A    between atoms: C_7  and  C_14
REMARK    4  A    between atoms: C_16  and  O_20
REMARK    5  A    between atoms: O_20  and  C_21
REMARK    6  A    between atoms: C_21  and  C_22
REMARK    7  A    between atoms: C_22  and  C_24
REMARK    8  A    between atoms: C_22  and  N_34
REMARK    9  A    between atoms: C_24  and  C_25
REMARK                            x       y       z     vdW  Elec       q    Type
REMARK                         _______ _______ _______ _____ _____    ______ ____
ROOT
ATOM      1  C   UNL     1      -0.653  -5.261  -1.840  0.00  0.00    +0.004 A 
ATOM      2  C   UNL     1      -0.805  -6.636  -1.647  0.00  0.00    +0.057 A 
ATOM      3  C   UNL     1      -0.333  -7.494  -2.632  0.00  0.00    +0.139 A 
ATOM      4  C   UNL     1       0.267  -6.960  -3.764  0.00  0.00    +0.156 A 
ATOM      5  N   UNL     1       0.395  -5.656  -3.914  0.00  0.00    -0.259 NA
ATOM      6  C   UNL     1      -0.043  -4.806  -3.008  0.00  0.00    +0.119 A 
ENDROOT
BRANCH   1  10
ATOM      7  C   UNL     1      -1.433  -0.534   0.013  0.00  0.00    +0.107 C 
ATOM      8  C   UNL     1      -1.442  -2.043  -0.071  0.00  0.00    -0.014 A 
ATOM      9  C   UNL     1      -0.989  -2.927  -1.022  0.00  0.00    +0.014 A 
ATOM     10  C   UNL     1      -1.138  -4.299  -0.820  0.00  0.00    -0.016 A 
ATOM     11  C   UNL     1      -1.748  -4.761   0.346  0.00  0.00    +0.010 A 
ATOM     12  C   UNL     1      -2.199  -3.869   1.292  0.00  0.00    +0.024 A 
ATOM     13  C   UNL     1      -2.050  -2.496   1.093  0.00  0.00    +0.037 A 
ATOM     14  N   UNL     1      -2.421  -1.416   1.895  0.00  0.00    -0.285 N 
ATOM     15  C   UNL     1      -2.100  -0.233   1.338  0.00  0.00    +0.225 C 
ATOM     16  O   UNL     1      -2.304   0.866   1.809  0.00  0.00    -0.275 OA
ATOM     17  H   UNL     1      -2.862  -1.507   2.754  0.00  0.00    +0.155 HD
BRANCH   7  19
ATOM     18  C   UNL     1      -0.019   1.526   0.010  0.00  0.00    +0.005 C 
ATOM     19  C   UNL     1       0.002  -0.004   0.002  0.00  0.00    +0.014 C 
ENDBRANCH   7  19
ENDBRANCH   1  10
BRANCH   3  20
ATOM     20  O   UNL     1      -0.458  -8.840  -2.490  0.00  0.00    -0.492 OA
BRANCH  20  21
ATOM     21  C   UNL     1       0.052  -9.655  -3.547  0.00  0.00    +0.213 C 
BRANCH  21  22
ATOM     22  C   UNL     1      -0.177 -11.129  -3.210  0.00  0.00    -0.033 C 
BRANCH  22  23
ATOM     23  N   UNL     1      -1.619 -11.404  -3.170  0.00  0.00    +0.382 N 
ATOM     24  H   UNL     1      -2.026 -11.197  -4.069  0.00  0.00    -0.089 HD
ATOM     25  H   UNL     1      -1.770 -12.377  -2.948  0.00  0.00    -0.089 HD
ATOM     26  H   UNL     1      -2.051 -10.827  -2.464  0.00  0.00    -0.089 HD
ENDBRANCH  22  23
BRANCH  22  27
ATOM     27  C   UNL     1       0.479 -12.004  -4.280  0.00  0.00    +0.020 C 
BRANCH  27  28
ATOM     28  C   UNL     1       0.361 -13.454  -3.886  0.00  0.00    -0.043 C 
ATOM     29  C   UNL     1      -0.594 -14.328  -4.279  0.00  0.00    -0.001 A 
ATOM     30  C   UNL     1      -1.764 -14.195  -5.155  0.00  0.00    +0.010 A 
ATOM     31  C   UNL     1      -2.554 -15.273  -5.362  0.00  0.00    +0.001 A 
ATOM     32  C   UNL     1      -2.285 -16.511  -4.761  0.00  0.00    +0.002 A 
ATOM     33  C   UNL     1      -1.230 -16.710  -3.944  0.00  0.00    +0.026 A 
ATOM     34  C   UNL     1      -0.332 -15.645  -3.656  0.00  0.00    +0.043 A 
ATOM     35  N   UNL     1       0.744 -15.588  -2.909  0.00  0.00    -0.380 N 
ATOM     36  C   UNL     1       1.289 -14.228  -2.977  0.00  0.00    +0.144 C 
ATOM     37  H   UNL     1       1.118 -16.323  -2.399  0.00  0.00    +0.160 HD
ENDBRANCH  27  28
ENDBRANCH  22  27
ENDBRANCH  21  22
ENDBRANCH  20  21
ENDBRANCH   3  20
TORSDOF 8
