REMARK  Name = ZINC39685191
REMARK  8 active torsions:
REMARK  status: ('A' for Active; 'I' for Inactive)
REMARK    1  A    between atoms: C_1  and  O_2
REMARK    2  A    between atoms: O_2  and  C_3
REMARK    3  A    between atoms: C_6  and  C_10
REMARK    4  A    between atoms: C_14  and  C_23
REMARK    5  A    between atoms: N_25  and  C_26
REMARK    6  A    between atoms: C_26  and  C_27
REMARK    7  A    between atoms: C_27  and  O_28
REMARK    8  A    between atoms: O_28  and  C_29
REMARK                            x       y       z     vdW  Elec       q    Type
REMARK                         _______ _______ _______ _____ _____    ______ ____
ROOT
ATOM      1  C   UNL     1       2.573  -2.537   4.288  0.00  0.00    +0.247 C 
ATOM      2  O   UNL     1       3.732  -2.889   4.179  0.00  0.00    -0.270 OA
ATOM      3  N   UNL     1       1.903  -2.772   5.434  0.00  0.00    -0.296 N 
ATOM      4  C   UNL     1       0.466  -2.537   5.709  0.00  0.00    +0.121 C 
ATOM      5  C   UNL     1       0.028  -3.749   6.561  0.00  0.00    +0.100 C 
ATOM      6  C   UNL     1       1.325  -4.260   7.212  0.00  0.00    -0.004 C 
ATOM      7  C   UNL     1       2.435  -3.330   6.700  0.00  0.00    +0.115 C 
ATOM      8  C   UNL     1       1.223  -4.176   8.731  0.00  0.00    -0.010 C 
ATOM      9  C   UNL     1       2.500  -4.743   9.357  0.00  0.00    -0.082 C 
ATOM     10  N   UNL     1       2.676  -6.138   8.935  0.00  0.00    +0.379 N 
ATOM     11  C   UNL     1       2.867  -6.201   7.480  0.00  0.00    -0.082 C 
ATOM     12  C   UNL     1       1.605  -5.695   6.776  0.00  0.00    -0.010 C 
ATOM     13  H   UNL     1       3.485  -6.528   9.396  0.00  0.00    -0.086 HD
ATOM     14  H   UNL     1       1.858  -6.671   9.188  0.00  0.00    -0.086 HD
ENDROOT
BRANCH   1  18
ATOM     15  C   UNL     1       0.638  -0.568   1.059  0.00  0.00    +0.157 A 
ATOM     16  C   UNL     1       1.721  -1.405   0.813  0.00  0.00    +0.085 A 
ATOM     17  C   UNL     1       2.351  -2.046   1.858  0.00  0.00    +0.036 A 
ATOM     18  C   UNL     1       1.901  -1.853   3.167  0.00  0.00    +0.040 A 
ATOM     19  C   UNL     1       0.813  -1.010   3.411  0.00  0.00    +0.036 A 
ATOM     20  C   UNL     1       0.191  -0.369   2.361  0.00  0.00    +0.085 A 
ATOM     21 CL   UNL     1      -1.156   0.682   2.664  0.00  0.00    -0.080 Cl
ATOM     22 CL   UNL     1       2.278  -1.645  -0.814  0.00  0.00    -0.080 Cl
BRANCH  15  24
ATOM     23  C   UNL     1       0.522   1.347  -0.342  0.00  0.00    +0.277 C 
ATOM     24  O   UNL     1       0.020   0.061   0.028  0.00  0.00    -0.492 OA
ENDBRANCH  15  24
ENDBRANCH   1  18
BRANCH   5  25
ATOM     25  C   UNL     1      -0.958  -3.320   7.617  0.00  0.00    +0.218 C 
ATOM     26  O   UNL     1      -0.963  -2.174   8.012  0.00  0.00    -0.275 OA
ATOM     27  N   UNL     1      -1.833  -4.211   8.123  0.00  0.00    -0.312 N 
ATOM     28  H   UNL     1      -1.829  -5.128   7.807  0.00  0.00    +0.149 HD
BRANCH  27  29
ATOM     29  C   UNL     1      -2.792  -3.794   9.149  0.00  0.00    +0.145 C 
BRANCH  29  30
ATOM     30  C   UNL     1      -3.663  -4.987   9.548  0.00  0.00    +0.248 C 
BRANCH  30  31
ATOM     31  O   UNL     1      -2.851  -5.983  10.172  0.00  0.00    -0.488 OA
BRANCH  31  32
ATOM     32  C   UNL     1      -3.475  -7.116  10.589  0.00  0.00    +0.156 A 
ATOM     33  C   UNL     1      -4.840  -7.268  10.397  0.00  0.00    +0.048 A 
ATOM     34  C   UNL     1      -5.473  -8.421  10.822  0.00  0.00    +0.004 A 
ATOM     35  C   UNL     1      -4.747  -9.423  11.439  0.00  0.00    +0.003 A 
ATOM     36  C   UNL     1      -3.386  -9.275  11.633  0.00  0.00    +0.042 A 
ATOM     37  C   UNL     1      -2.746  -8.126  11.204  0.00  0.00    +0.165 A 
ATOM     38  F   UNL     1      -1.415  -7.984  11.388  0.00  0.00    -0.202 F 
ENDBRANCH  31  32
ENDBRANCH  30  31
ENDBRANCH  29  30
ENDBRANCH  27  29
ENDBRANCH   5  25
TORSDOF 7
