REMARK  Name = ZINC20686369
REMARK  10 active torsions:
REMARK  status: ('A' for Active; 'I' for Inactive)
REMARK    1  A    between atoms: C_1  and  C_2
REMARK    2  A    between atoms: C_7  and  N_8
REMARK    3  A    between atoms: C_9  and  C_11
REMARK    4  A    between atoms: C_11  and  N_12
REMARK    5  A    between atoms: N_12  and  C_13
REMARK    6  A    between atoms: N_12  and  C_14
REMARK    7  A    between atoms: C_14  and  C_15
REMARK    8  A    between atoms: N_17  and  C_18
REMARK    9  A    between atoms: C_18  and  C_20
REMARK   10  A    between atoms: C_18  and  C_21
REMARK                            x       y       z     vdW  Elec       q    Type
REMARK                         _______ _______ _______ _____ _____    ______ ____
ROOT
ATOM      1  C   UNL     1      -6.646  -0.184   2.381  0.00  0.00    +0.019 C 
ENDROOT
BRANCH   1   2
ATOM      2  C   UNL     1      -5.663  -0.854   1.456  0.00  0.00    +0.197 C 
ATOM      3  O   UNL     1      -5.762  -2.040   1.222  0.00  0.00    -0.278 OA
ATOM      4  N   UNL     1      -4.673  -0.136   0.889  0.00  0.00    -0.310 N 
ATOM      5  H   UNL     1      -4.583   0.939   1.101  0.00  0.00    +0.149 HD
BRANCH   4   6
ATOM      6  C   UNL     1      -3.717  -0.788  -0.010  0.00  0.00    +0.100 C 
ATOM      7  C   UNL     1      -4.297  -0.832  -1.425  0.00  0.00    +0.033 C 
BRANCH   6   8
ATOM      8  C   UNL     1      -2.426  -0.011  -0.020  0.00  0.00    -0.024 A 
ATOM      9  C   UNL     1      -2.453   1.372  -0.016  0.00  0.00    +0.009 A 
ATOM     10  C   UNL     1      -1.272   2.088  -0.029  0.00  0.00    +0.050 A 
ATOM     11  C   UNL     1      -0.055   1.422  -0.041  0.00  0.00    +0.162 A 
ATOM     12  C   UNL     1      -0.028   0.033  -0.043  0.00  0.00    +0.162 A 
ATOM     13  C   UNL     1      -1.218  -0.680  -0.033  0.00  0.00    +0.055 A 
ATOM     14  O   UNL     1       1.154  -0.641  -0.053  0.00  0.00    -0.485 OA
ATOM     15  C   UNL     1       2.315   0.102  -0.441  0.00  0.00    +0.270 C 
ATOM     16  C   UNL     1       2.297   1.443   0.305  0.00  0.00    +0.270 C 
ATOM     17  O   UNL     1       1.100   2.141  -0.055  0.00  0.00    -0.485 OA
ENDBRANCH   6   8
ENDBRANCH   4   6
ENDBRANCH   1   2
BRANCH   1  18
ATOM     18  N   UNL     1      -7.618  -1.174   2.864  0.00  0.00    +0.389 N 
ATOM     19  C   UNL     1      -8.455  -1.669   1.763  0.00  0.00    -0.095 C 
ATOM     20  H   UNL     1      -7.056  -2.027   3.272  0.00  0.00    -0.081 HD
BRANCH  18  21
ATOM     21  C   UNL     1      -8.443  -0.618   3.944  0.00  0.00    +0.019 C 
BRANCH  21  23
ATOM     22  N   UNL     1     -10.087  -1.444   5.597  0.00  0.00    -0.287 N 
ATOM     23  C   UNL     1      -9.252  -1.721   4.577  0.00  0.00    +0.201 C 
ATOM     24  O   UNL     1      -9.150  -2.858   4.168  0.00  0.00    -0.278 OA
ATOM     25  H   UNL     1     -10.113  -0.432   6.028  0.00  0.00    +0.155 HD
BRANCH  22  32
ATOM     26  C   UNL     1     -10.976  -1.204   8.290  0.00  0.00    +0.046 C 
ATOM     27  C   UNL     1     -11.379  -2.365   7.418  0.00  0.00    -0.028 A 
ATOM     28  C   UNL     1     -12.208  -3.350   7.919  0.00  0.00    +0.020 A 
ATOM     29  C   UNL     1     -12.574  -4.420   7.121  0.00  0.00    +0.018 A 
ATOM     30  C   UNL     1     -12.116  -4.503   5.818  0.00  0.00    +0.017 A 
ATOM     31  C   UNL     1     -11.292  -3.518   5.310  0.00  0.00    +0.024 A 
ATOM     32  C   UNL     1     -10.923  -2.443   6.109  0.00  0.00    +0.036 A 
ATOM     33 BR   UNL     1     -13.702  -5.771   7.812  0.00  0.00    -0.050 Br
ENDBRANCH  22  32
ENDBRANCH  21  23
ENDBRANCH  18  21
ENDBRANCH   1  18
TORSDOF 7
