REMARK  Name = ZINC12093957
REMARK  7 active torsions:
REMARK  status: ('A' for Active; 'I' for Inactive)
REMARK    1  A    between atoms: C_3  and  C_8
REMARK    2  A    between atoms: C_8  and  C_9
REMARK    3  A    between atoms: C_9  and  N_10
REMARK    4  A    between atoms: C_11  and  C_13
REMARK    5  A    between atoms: C_13  and  C_14
REMARK    6  A    between atoms: C_21  and  C_22
REMARK    7  A    between atoms: C_21  and  N_51
REMARK                            x       y       z     vdW  Elec       q    Type
REMARK                         _______ _______ _______ _____ _____    ______ ____
ROOT
ATOM      1  C   UNL     1       1.155  -4.351  -1.553  0.00  0.00    +0.028 C 
ATOM      2  C   UNL     1       1.278  -5.197  -2.789  0.00  0.00    +0.200 C 
ATOM      3  O   UNL     1       0.888  -6.345  -2.748  0.00  0.00    -0.278 OA
ATOM      4  N   UNL     1       1.799  -4.738  -3.931  0.00  0.00    -0.318 N 
ATOM      5  C   UNL     1       2.263  -3.364  -4.096  0.00  0.00    +0.085 C 
ATOM      6  C   UNL     1       2.486  -2.718  -2.727  0.00  0.00    -0.058 C 
ATOM      7  H   UNL     1       1.871  -5.345  -4.684  0.00  0.00    +0.149 HD
ATOM      8  N   UNL     1       1.268  -2.927  -1.919  0.00  0.00    +0.391 N 
ATOM      9  H   UNL     1       0.447  -2.657  -2.474  0.00  0.00    -0.080 HD
ENDROOT
BRANCH   1  10
ATOM     10  C   UNL     1      -0.210  -4.592  -0.906  0.00  0.00    +0.089 C 
BRANCH  10  12
ATOM     11  N   UNL     1      -2.591  -4.424  -1.554  0.00  0.00    -0.315 N 
ATOM     12  C   UNL     1      -1.300  -4.212  -1.875  0.00  0.00    +0.212 C 
ATOM     13  O   UNL     1      -1.014  -3.716  -2.945  0.00  0.00    -0.276 OA
ATOM     14  H   UNL     1      -2.820  -4.821  -0.699  0.00  0.00    +0.149 HD
BRANCH  11  15
ATOM     15  C   UNL     1      -3.650  -4.054  -2.497  0.00  0.00    +0.109 C 
BRANCH  15  16
ATOM     16  C   UNL     1      -5.013  -4.398  -1.893  0.00  0.00    +0.054 C 
BRANCH  16  19
ATOM     17  C   UNL     1      -7.545  -4.586  -4.687  0.00  0.00    +0.002 A 
ATOM     18  C   UNL     1      -6.545  -4.934  -3.797  0.00  0.00    +0.004 A 
ATOM     19  C   UNL     1      -6.103  -4.018  -2.862  0.00  0.00    -0.045 A 
ATOM     20  C   UNL     1      -6.663  -2.755  -2.812  0.00  0.00    +0.023 A 
ATOM     21  C   UNL     1      -7.660  -2.405  -3.704  0.00  0.00    +0.041 A 
ATOM     22  C   UNL     1      -8.102  -3.322  -4.641  0.00  0.00    +0.020 A 
ATOM     23 CL   UNL     1      -8.360  -0.818  -3.646  0.00  0.00    -0.084 Cl
ENDBRANCH  16  19
ENDBRANCH  15  16
ENDBRANCH  11  15
ENDBRANCH  10  12
ENDBRANCH   1  10
BRANCH   8  24
ATOM     24  C   UNL     1       1.320  -2.092  -0.697  0.00  0.00    -0.042 C 
BRANCH  24  25
ATOM     25  C   UNL     1       0.970  -0.672  -1.062  0.00  0.00    -0.061 A 
ATOM     26  C   UNL     1      -0.348  -0.256  -1.033  0.00  0.00    +0.002 A 
ATOM     27  C   UNL     1      -0.669   1.046  -1.367  0.00  0.00    +0.003 A 
ATOM     28  C   UNL     1       0.326   1.933  -1.730  0.00  0.00    +0.038 A 
ATOM     29  C   UNL     1       1.646   1.518  -1.759  0.00  0.00    +0.124 A 
ATOM     30  C   UNL     1       1.968   0.213  -1.424  0.00  0.00    +0.040 A 
ATOM     31  F   UNL     1       2.621   2.384  -2.113  0.00  0.00    -0.205 F 
ENDBRANCH  24  25
ENDBRANCH   8  24
TORSDOF 7
