REMARK  Name = ZINC21225881
REMARK  9 active torsions:
REMARK  status: ('A' for Active; 'I' for Inactive)
REMARK    1  A    between atoms: C_1  and  C_2
REMARK    2  A    between atoms: C_2  and  O_3
REMARK    3  A    between atoms: O_3  and  C_4
REMARK    4  A    between atoms: C_7  and  C_11
REMARK    5  A    between atoms: C_16  and  C_21
REMARK    6  A    between atoms: C_24  and  O_27
REMARK    7  A    between atoms: O_27  and  C_28
REMARK    8  A    between atoms: C_28  and  C_29
REMARK    9  A    between atoms: C_28  and  C_30
REMARK                            x       y       z     vdW  Elec       q    Type
REMARK                         _______ _______ _______ _____ _____    ______ ____
ROOT
ATOM      1  C   UNL     1      -3.944   1.748   0.060  0.00  0.00    +0.136 C 
ATOM      2  C   UNL     1      -4.130   1.337   1.500  0.00  0.00    +0.036 C 
ATOM      3  C   UNL     1      -5.212   1.589   2.260  0.00  0.00    +0.017 C 
ATOM      4  C   UNL     1      -5.275   1.104   3.698  0.00  0.00    +0.059 C 
ATOM      5  C   UNL     1      -3.874   1.091   4.308  0.00  0.00    +0.032 C 
ATOM      6  C   UNL     1      -3.006   0.151   3.462  0.00  0.00    +0.088 C 
ATOM      7  C   UNL     1      -3.032   0.628   2.041  0.00  0.00    +0.163 C 
ATOM      8  O   UNL     1      -2.075   0.397   1.328  0.00  0.00    -0.292 OA
ATOM      9  N   UNL     1      -6.314   2.256   1.834  0.00  0.00    -0.316 N 
ATOM     10  C   UNL     1      -6.298   3.448   1.119  0.00  0.00    +0.052 A 
ATOM     11  C   UNL     1      -6.857   4.614   1.612  0.00  0.00    +0.025 A 
ATOM     12  C   UNL     1      -6.912   5.736   0.802  0.00  0.00    +0.002 A 
ATOM     13  C   UNL     1      -6.412   5.690  -0.487  0.00  0.00    +0.002 A 
ATOM     14  C   UNL     1      -5.832   4.531  -0.973  0.00  0.00    +0.025 A 
ATOM     15  C   UNL     1      -5.760   3.413  -0.158  0.00  0.00    +0.049 A 
ATOM     16  N   UNL     1      -5.144   2.238  -0.586  0.00  0.00    -0.331 N 
ATOM     17  H   UNL     1      -7.316   1.857   2.051  0.00  0.00    +0.152 HD
ATOM     18  H   UNL     1      -5.582   1.681  -1.427  0.00  0.00    +0.147 HD
ENDROOT
BRANCH   1  22
ATOM     19  C   UNL     1      -0.974   4.818  -0.104  0.00  0.00    +0.139 A 
ATOM     20  C   UNL     1      -0.741   3.591  -0.710  0.00  0.00    +0.047 A 
ATOM     21  C   UNL     1      -1.701   2.600  -0.652  0.00  0.00    +0.009 A 
ATOM     22  C   UNL     1      -2.897   2.830   0.004  0.00  0.00    -0.021 A 
ATOM     23  C   UNL     1      -3.130   4.049   0.613  0.00  0.00    +0.029 A 
ATOM     24  C   UNL     1      -2.173   5.045   0.558  0.00  0.00    +0.083 A 
ATOM     25 CL   UNL     1      -2.469   6.578   1.316  0.00  0.00    -0.080 Cl
BRANCH  19  26
ATOM     26  O   UNL     1      -0.031   5.795  -0.160  0.00  0.00    -0.491 OA
BRANCH  26  28
ATOM     27  C   UNL     1       2.110   6.703  -0.816  0.00  0.00    +0.048 C 
ATOM     28  C   UNL     1       1.177   5.491  -0.859  0.00  0.00    +0.226 C 
ENDBRANCH  26  28
ENDBRANCH  19  26
ENDBRANCH   1  22
BRANCH   5  29
ATOM     29  C   UNL     1      -3.939   0.588   5.727  0.00  0.00    -0.043 A 
ATOM     30  C   UNL     1      -4.430  -0.678   5.989  0.00  0.00    +0.007 A 
ATOM     31  C   UNL     1      -4.485  -1.143   7.288  0.00  0.00    +0.046 A 
ATOM     32  C   UNL     1      -4.059  -0.335   8.332  0.00  0.00    +0.121 A 
ATOM     33  C   UNL     1      -3.572   0.937   8.067  0.00  0.00    +0.046 A 
ATOM     34  C   UNL     1      -3.514   1.396   6.765  0.00  0.00    +0.007 A 
BRANCH  32  35
ATOM     35  O   UNL     1      -4.117  -0.789   9.611  0.00  0.00    -0.489 OA
BRANCH  35  36
ATOM     36  C   UNL     1      -3.624   0.082  10.632  0.00  0.00    +0.167 C 
ATOM     37  C   UNL     1      -4.715   1.082  11.020  0.00  0.00    +0.051 C 
ATOM     38  C   UNL     1      -3.227  -0.743  11.858  0.00  0.00    +0.051 C 
ENDBRANCH  35  36
ENDBRANCH  32  35
ENDBRANCH   5  29
TORSDOF 6
