REMARK  Name = ZINC39659803
REMARK  9 active torsions:
REMARK  status: ('A' for Active; 'I' for Inactive)
REMARK    1  A    between atoms: C_1  and  O_2
REMARK    2  A    between atoms: O_2  and  C_3
REMARK    3  A    between atoms: C_5  and  C_13
REMARK    4  A    between atoms: C_7  and  O_11
REMARK    5  A    between atoms: C_8  and  O_9
REMARK    6  A    between atoms: O_9  and  C_10
REMARK    7  A    between atoms: O_11  and  C_12
REMARK    8  A    between atoms: C_17  and  C_26
REMARK    9  A    between atoms: N_28  and  C_29
REMARK                            x       y       z     vdW  Elec       q    Type
REMARK                         _______ _______ _______ _____ _____    ______ ____
ROOT
ATOM      1  C   UNL     1       2.393   0.353  -4.216  0.00  0.00    +0.247 C 
ATOM      2  O   UNL     1       2.258   1.561  -4.209  0.00  0.00    -0.270 OA
ATOM      3  N   UNL     1       3.080  -0.242  -5.212  0.00  0.00    -0.296 N 
ATOM      4  C   UNL     1       3.243  -1.694  -5.461  0.00  0.00    +0.121 C 
ATOM      5  C   UNL     1       3.155  -1.838  -6.997  0.00  0.00    +0.100 C 
ATOM      6  C   UNL     1       3.551  -0.457  -7.544  0.00  0.00    -0.004 C 
ATOM      7  C   UNL     1       3.837   0.408  -6.308  0.00  0.00    +0.115 C 
ATOM      8  C   UNL     1       2.401   0.145  -8.346  0.00  0.00    -0.010 C 
ATOM      9  C   UNL     1       2.839   1.492  -8.927  0.00  0.00    -0.082 C 
ATOM     10  N   UNL     1       4.012   1.297  -9.788  0.00  0.00    +0.379 N 
ATOM     11  C   UNL     1       5.142   0.806  -8.990  0.00  0.00    -0.082 C 
ATOM     12  C   UNL     1       4.801  -0.570  -8.412  0.00  0.00    -0.010 C 
ATOM     13  H   UNL     1       3.792   0.625 -10.507  0.00  0.00    -0.086 HD
ATOM     14  H   UNL     1       4.261   2.175 -10.217  0.00  0.00    -0.086 HD
ENDROOT
BRANCH   1  17
ATOM     15  C   UNL     1       0.160  -0.749  -1.403  0.00  0.00    +0.166 A 
ATOM     16  C   UNL     1       0.709   0.016  -2.415  0.00  0.00    +0.062 A 
ATOM     17  C   UNL     1       1.806  -0.462  -3.135  0.00  0.00    +0.044 A 
ATOM     18  C   UNL     1       2.348  -1.713  -2.829  0.00  0.00    +0.062 A 
ATOM     19  C   UNL     1       1.796  -2.475  -1.816  0.00  0.00    +0.166 A 
ATOM     20  C   UNL     1       0.705  -1.994  -1.097  0.00  0.00    +0.204 A 
BRANCH  15  22
ATOM     21  C   UNL     1      -1.416   1.000  -1.069  0.00  0.00    +0.277 C 
ATOM     22  O   UNL     1      -0.908  -0.284  -0.702  0.00  0.00    -0.491 OA
ENDBRANCH  15  22
BRANCH  20  23
ATOM     23  O   UNL     1       0.168  -2.742  -0.098  0.00  0.00    -0.488 OA
ATOM     24  C   UNL     1      -0.876  -3.650  -0.457  0.00  0.00    +0.277 C 
ENDBRANCH  20  23
BRANCH  19  25
ATOM     25  O   UNL     1       2.322  -3.693  -1.518  0.00  0.00    -0.491 OA
ATOM     26  C   UNL     1       3.444  -4.122  -2.292  0.00  0.00    +0.277 C 
ENDBRANCH  19  25
ENDBRANCH   1  17
BRANCH   5  27
ATOM     27  C   UNL     1       4.116  -2.892  -7.481  0.00  0.00    +0.218 C 
ATOM     28  O   UNL     1       5.103  -3.159  -6.828  0.00  0.00    -0.275 OA
ATOM     29  N   UNL     1       3.881  -3.539  -8.640  0.00  0.00    -0.312 N 
ATOM     30  H   UNL     1       3.092  -3.325  -9.163  0.00  0.00    +0.149 HD
BRANCH  29  31
ATOM     31  C   UNL     1       4.815  -4.564  -9.111  0.00  0.00    +0.073 C 
ATOM     32  C   UNL     1       5.955  -3.898  -9.884  0.00  0.00    +0.022 C 
ATOM     33  C   UNL     1       7.116  -4.884 -10.031  0.00  0.00    +0.002 C 
ATOM     34  C   UNL     1       7.352  -5.596  -8.697  0.00  0.00    +0.000 C 
ATOM     35  C   UNL     1       6.999  -7.078  -8.841  0.00  0.00    +0.000 C 
ATOM     36  C   UNL     1       5.477  -7.240  -8.841  0.00  0.00    +0.000 C 
ATOM     37  C   UNL     1       4.919  -6.810 -10.200  0.00  0.00    +0.002 C 
ATOM     38  C   UNL     1       4.080  -5.542 -10.028  0.00  0.00    +0.022 C 
ENDBRANCH  29  31
ENDBRANCH   5  27
TORSDOF 6
