REMARK  Name = ZINC14162832
REMARK  10 active torsions:
REMARK  status: ('A' for Active; 'I' for Inactive)
REMARK    1  A    between atoms: C_1  and  C_2
REMARK    2  A    between atoms: C_2  and  C_4
REMARK    3  A    between atoms: C_2  and  N_14
REMARK    4  A    between atoms: C_7  and  S_10
REMARK    5  A    between atoms: S_10  and  N_13
REMARK    6  A    between atoms: C_15  and  C_17
REMARK    7  A    between atoms: C_17  and  S_18
REMARK    8  A    between atoms: S_18  and  C_19
REMARK    9  A    between atoms: C_22  and  C_27
REMARK   10  A    between atoms: N_23  and  C_24
REMARK                            x       y       z     vdW  Elec       q    Type
REMARK                         _______ _______ _______ _____ _____    ______ ____
ROOT
ATOM      1  C   UNL     1       2.934  -1.208   2.156  0.00  0.00    +0.173 C 
ENDROOT
BRANCH   1   3
ATOM      2  N   UNL     1       0.949  -0.670   0.783  0.00  0.00    -0.308 N 
ATOM      3  C   UNL     1       2.291  -0.746   0.874  0.00  0.00    +0.224 C 
ATOM      4  O   UNL     1       2.981  -0.443  -0.076  0.00  0.00    -0.275 OA
ATOM      5  H   UNL     1       0.397  -0.912   1.543  0.00  0.00    +0.149 HD
BRANCH   2   7
ATOM      6  C   UNL     1       0.265   1.308  -0.483  0.00  0.00    +0.033 C 
ATOM      7  C   UNL     1       0.323  -0.221  -0.463  0.00  0.00    +0.100 C 
BRANCH   7   8
ATOM      8  C   UNL     1      -1.074  -0.778  -0.553  0.00  0.00    -0.027 A 
ATOM      9  C   UNL     1      -1.874  -0.824   0.573  0.00  0.00    +0.007 A 
ATOM     10  C   UNL     1      -3.156  -1.335   0.491  0.00  0.00    +0.029 A 
ATOM     11  C   UNL     1      -3.638  -1.801  -0.718  0.00  0.00    +0.105 A 
ATOM     12  C   UNL     1      -2.838  -1.755  -1.845  0.00  0.00    +0.029 A 
ATOM     13  C   UNL     1      -1.558  -1.239  -1.764  0.00  0.00    +0.007 A 
BRANCH  11  14
ATOM     14  S   UNL     1      -5.271  -2.454  -0.823  0.00  0.00    +0.056 S 
ATOM     15  O   UNL     1      -5.289  -3.325  -1.946  0.00  0.00    -0.153 OA
ATOM     16  O   UNL     1      -5.619  -2.889   0.484  0.00  0.00    -0.153 OA
BRANCH  14  17
ATOM     17  N   UNL     1      -6.280  -1.192  -1.187  0.00  0.00    -0.204 NA
ATOM     18  H   UNL     1      -7.088  -1.350  -1.699  0.00  0.00    +0.144 HD
ATOM     19  H   UNL     1      -6.063  -0.295  -0.888  0.00  0.00    +0.144 HD
ENDBRANCH  14  17
ENDBRANCH  11  14
ENDBRANCH   7   8
ENDBRANCH   2   7
ENDBRANCH   1   3
BRANCH   1  20
ATOM     20  S   UNL     1       4.738  -1.202   1.964  0.00  0.00    -0.077 S 
BRANCH  20  21
ATOM     21  C   UNL     1       5.335  -1.758   3.526  0.00  0.00    +0.193 A 
ATOM     22  N   UNL     1       4.605  -2.095   4.563  0.00  0.00    -0.122 NA
ATOM     23  N   UNL     1       5.362  -2.454   5.538  0.00  0.00    -0.128 NA
ATOM     24  C   UNL     1       6.623  -2.366   5.183  0.00  0.00    +0.167 A 
ATOM     25  N   UNL     1       6.646  -1.924   3.881  0.00  0.00    -0.299 N 
BRANCH  24  26
ATOM     26  C   UNL     1       7.795  -2.688   6.022  0.00  0.00    +0.044 A 
ATOM     27  C   UNL     1       9.093  -2.718   5.625  0.00  0.00    +0.095 A 
ATOM     28  N   UNL     1       9.890  -3.056   6.680  0.00  0.00    -0.360 N 
ATOM     29  H   UNL     1      10.856  -3.141   6.641  0.00  0.00    +0.165 HD
ATOM     30  C   UNL     1       9.125  -3.259   7.808  0.00  0.00    +0.047 A 
ATOM     31  C   UNL     1       7.785  -3.034   7.454  0.00  0.00    +0.010 A 
ATOM     32  C   UNL     1       6.779  -3.163   8.410  0.00  0.00    +0.011 A 
ATOM     33  C   UNL     1       7.107  -3.509   9.702  0.00  0.00    +0.001 A 
ATOM     34  C   UNL     1       8.431  -3.728  10.054  0.00  0.00    +0.002 A 
ATOM     35  C   UNL     1       9.435  -3.612   9.118  0.00  0.00    +0.026 A 
ENDBRANCH  24  26
BRANCH  25  36
ATOM     36  C   UNL     1       7.827  -1.679   3.050  0.00  0.00    +0.091 C 
ATOM     37  C   UNL     1       7.636  -0.851   1.777  0.00  0.00    +0.027 C 
ATOM     38  C   UNL     1       7.880  -2.358   1.680  0.00  0.00    +0.027 C 
ENDBRANCH  25  36
ENDBRANCH  20  21
ENDBRANCH   1  20
TORSDOF 9
