REMARK  Name = ZINC12202741
REMARK  7 active torsions:
REMARK  status: ('A' for Active; 'I' for Inactive)
REMARK    1  A    between atoms: N_10  and  C_11
REMARK    2  A    between atoms: C_11  and  C_12
REMARK    3  A    between atoms: C_12  and  N_13
REMARK    4  A    between atoms: C_14  and  C_16
REMARK    5  A    between atoms: C_16  and  C_17
REMARK    6  A    between atoms: C_24  and  C_25
REMARK    7  A    between atoms: C_24  and  N_60
REMARK                            x       y       z     vdW  Elec       q    Type
REMARK                         _______ _______ _______ _____ _____    ______ ____
ROOT
ATOM      1  C   UNL     1      -1.670   6.480  -1.811  0.00  0.00    +0.089 C 
ENDROOT
BRANCH   1   2
ATOM      2  C   UNL     1      -1.693   5.050  -2.353  0.00  0.00    +0.028 C 
ATOM      3  C   UNL     1      -2.550   4.193  -1.464  0.00  0.00    +0.200 C 
ATOM      4  O   UNL     1      -3.603   4.642  -1.063  0.00  0.00    -0.278 OA
ATOM      5  N   UNL     1      -2.199   2.956  -1.095  0.00  0.00    -0.318 N 
ATOM      6  C   UNL     1      -0.938   2.337  -1.492  0.00  0.00    +0.085 C 
ATOM      7  C   UNL     1      -0.344   3.079  -2.691  0.00  0.00    -0.058 C 
ATOM      8  H   UNL     1      -2.811   2.448  -0.539  0.00  0.00    +0.149 HD
ATOM      9  N   UNL     1      -0.317   4.520  -2.369  0.00  0.00    +0.391 N 
ATOM     10  H   UNL     1       0.103   4.648  -1.440  0.00  0.00    -0.080 HD
BRANCH   9  11
ATOM     11  C   UNL     1       0.495   5.249  -3.369  0.00  0.00    -0.042 C 
BRANCH  11  12
ATOM     12  C   UNL     1      -0.144   5.153  -4.731  0.00  0.00    -0.064 A 
ATOM     13  C   UNL     1       0.105   4.056  -5.535  0.00  0.00    +0.004 A 
ATOM     14  C   UNL     1      -0.476   3.969  -6.785  0.00  0.00    +0.038 A 
ATOM     15  C   UNL     1      -1.317   4.976  -7.229  0.00  0.00    +0.123 A 
ATOM     16  C   UNL     1      -1.570   6.071  -6.421  0.00  0.00    +0.038 A 
ATOM     17  C   UNL     1      -0.983   6.159  -5.173  0.00  0.00    +0.004 A 
ATOM     18  F   UNL     1      -1.890   4.889  -8.449  0.00  0.00    -0.205 F 
ENDBRANCH  11  12
ENDBRANCH   9  11
ENDBRANCH   1   2
BRANCH   1  20
ATOM     19  N   UNL     1      -0.822   7.659   0.191  0.00  0.00    -0.314 N 
ATOM     20  C   UNL     1      -1.026   6.491  -0.449  0.00  0.00    +0.212 C 
ATOM     21  O   UNL     1      -0.691   5.448   0.072  0.00  0.00    -0.276 OA
ATOM     22  H   UNL     1      -1.090   8.493  -0.225  0.00  0.00    +0.149 HD
BRANCH  19  23
ATOM     23  C   UNL     1      -0.195   7.670   1.516  0.00  0.00    +0.123 C 
BRANCH  23  24
ATOM     24  C   UNL     1      -0.082   9.111   2.014  0.00  0.00    +0.124 C 
BRANCH  24  34
ATOM     25  C   UNL     1      -1.552   6.874   6.071  0.00  0.00    +0.000 A 
ATOM     26  C   UNL     1      -2.199   7.598   5.086  0.00  0.00    +0.002 A 
ATOM     27  C   UNL     1      -1.466   8.336   4.181  0.00  0.00    +0.023 A 
ATOM     28  C   UNL     1      -0.072   8.358   4.251  0.00  0.00    +0.033 A 
ATOM     29  C   UNL     1       0.570   7.628   5.236  0.00  0.00    -0.026 A 
ATOM     30  C   UNL     1      -0.173   6.891   6.144  0.00  0.00    +0.005 A 
ATOM     31  C   UNL     1       2.073   7.603   5.360  0.00  0.00    +0.038 C 
ATOM     32  C   UNL     1       2.676   8.749   4.544  0.00  0.00    +0.024 C 
ATOM     33  C   UNL     1       2.015   8.741   3.160  0.00  0.00    +0.105 C 
ATOM     34  N   UNL     1       0.610   9.128   3.310  0.00  0.00    -0.328 N 
ENDBRANCH  24  34
ENDBRANCH  23  24
ENDBRANCH  19  23
ENDBRANCH   1  20
TORSDOF 7
