REMARK  Name = ZINC08790803
REMARK  6 active torsions:
REMARK  status: ('A' for Active; 'I' for Inactive)
REMARK    1  A    between atoms: C_1  and  C_2
REMARK    2  A    between atoms: C_17  and  C_19
REMARK    3  A    between atoms: C_19  and  C_20
REMARK    4  A    between atoms: N_28  and  C_31
REMARK    5  A    between atoms: C_31  and  C_32
REMARK    6  A    between atoms: C_32  and  C_33
REMARK                            x       y       z     vdW  Elec       q    Type
REMARK                         _______ _______ _______ _____ _____    ______ ____
ROOT
ATOM      1  C   UNL     1      12.027   0.681  -1.829  0.00  0.00    +0.044 C 
ATOM      2  C   UNL     1      10.811   0.956  -0.982  0.00  0.00    -0.049 A 
ATOM      3  C   UNL     1       9.698   0.140  -1.082  0.00  0.00    +0.008 A 
ATOM      4  C   UNL     1       8.587   0.392  -0.308  0.00  0.00    -0.026 A 
ATOM      5  C   UNL     1       8.569   1.464   0.579  0.00  0.00    +0.054 A 
ATOM      6  C   UNL     1       9.694   2.280   0.675  0.00  0.00    +0.063 A 
ATOM      7  C   UNL     1      10.806   2.023  -0.103  0.00  0.00    +0.025 A 
ATOM      8 CL   UNL     1       9.699   3.623   1.775  0.00  0.00    -0.082 Cl
ATOM      9  N   UNL     1       7.342   1.518   1.246  0.00  0.00    -0.285 N 
ATOM     10  C   UNL     1       6.510   0.532   0.860  0.00  0.00    +0.211 C 
ATOM     11  O   UNL     1       5.385   0.333   1.267  0.00  0.00    -0.277 OA
ATOM     12  C   UNL     1       7.248  -0.276  -0.173  0.00  0.00    +0.050 C 
ATOM     13  C   UNL     1       6.494  -0.302  -1.508  0.00  0.00    +0.088 C 
ATOM     14  C   UNL     1       5.736  -1.659  -1.504  0.00  0.00    +0.073 C 
ATOM     15  C   UNL     1       6.088  -2.322  -0.155  0.00  0.00    -0.053 C 
ATOM     16  C   UNL     1       4.282  -1.244  -1.489  0.00  0.00    +0.224 C 
ATOM     17  O   UNL     1       3.337  -2.004  -1.484  0.00  0.00    -0.275 OA
ATOM     18  N   UNL     1       4.200   0.091  -1.480  0.00  0.00    -0.241 N 
ATOM     19  C   UNL     1       5.381   0.720  -1.493  0.00  0.00    +0.225 C 
ATOM     20  O   UNL     1       5.534   1.923  -1.492  0.00  0.00    -0.275 OA
ATOM     21  H   UNL     1       7.116   2.188   1.910  0.00  0.00    +0.155 HD
ATOM     22  N   UNL     1       7.358  -1.669   0.228  0.00  0.00    +0.394 N 
ATOM     23  H   UNL     1       7.498  -1.736   1.242  0.00  0.00    -0.083 HD
ATOM     24  H   UNL     1       8.145  -2.116  -0.257  0.00  0.00    -0.083 HD
ENDROOT
BRANCH  15  25
ATOM     25  C   UNL     1       6.252  -3.833  -0.332  0.00  0.00    +0.020 C 
BRANCH  25  26
ATOM     26  C   UNL     1       6.473  -4.475   1.014  0.00  0.00    -0.049 A 
ATOM     27  C   UNL     1       7.757  -4.631   1.503  0.00  0.00    +0.003 A 
ATOM     28  C   UNL     1       7.959  -5.216   2.739  0.00  0.00    +0.000 A 
ATOM     29  C   UNL     1       6.878  -5.653   3.482  0.00  0.00    +0.000 A 
ATOM     30  C   UNL     1       5.595  -5.501   2.991  0.00  0.00    +0.000 A 
ATOM     31  C   UNL     1       5.393  -4.912   1.757  0.00  0.00    +0.003 A 
ENDBRANCH  25  26
ENDBRANCH  15  25
BRANCH  18  32
ATOM     32  C   UNL     1       2.921   0.806  -1.464  0.00  0.00    +0.121 C 
BRANCH  32  33
ATOM     33  C   UNL     1       2.490   1.048  -0.016  0.00  0.00    +0.054 C 
BRANCH  33  34
ATOM     34  C   UNL     1       1.175   1.783   0.000  0.00  0.00    -0.046 A 
ATOM     35  C   UNL     1      -0.013   1.076   0.008  0.00  0.00    +0.004 A 
ATOM     36  C   UNL     1      -1.219   1.751   0.017  0.00  0.00    +0.000 A 
ATOM     37  C   UNL     1      -1.238   3.133   0.030  0.00  0.00    +0.000 A 
ATOM     38  C   UNL     1      -0.050   3.840   0.022  0.00  0.00    +0.000 A 
ATOM     39  C   UNL     1       1.156   3.165   0.008  0.00  0.00    +0.004 A 
ENDBRANCH  33  34
ENDBRANCH  32  33
ENDBRANCH  18  32
TORSDOF 5
