REMARK  Name = ZINC11592432
REMARK  6 active torsions:
REMARK  status: ('A' for Active; 'I' for Inactive)
REMARK    1  A    between atoms: C_5  and  N_7
REMARK    2  A    between atoms: C_8  and  C_10
REMARK    3  A    between atoms: C_10  and  S_11
REMARK    4  A    between atoms: S_11  and  C_12
REMARK    5  A    between atoms: C_15  and  C_18
REMARK    6  A    between atoms: N_16  and  N_17
REMARK                            x       y       z     vdW  Elec       q    Type
REMARK                         _______ _______ _______ _____ _____    ______ ____
ROOT
ATOM      1  S   UNL     1      -4.956  -1.807  -0.390  0.00  0.00    -0.075 S 
ENDROOT
BRANCH   1   2
ATOM      2  C   UNL     1      -3.213  -1.663  -0.171  0.00  0.00    +0.209 A 
ATOM      3  N   UNL     1      -2.385  -2.631   0.151  0.00  0.00    -0.120 NA
ATOM      4  N   UNL     1      -1.185  -2.180   0.228  0.00  0.00    -0.123 NA
ATOM      5  C   UNL     1      -1.171  -0.892  -0.042  0.00  0.00    +0.217 A 
ATOM      6  N   UNL     1      -2.472  -0.521  -0.301  0.00  0.00    -0.221 N 
BRANCH   5   7
ATOM      7  C   UNL     1       0.009  -0.014  -0.058  0.00  0.00    +0.173 A 
ATOM      8  C   UNL     1       1.309  -0.421  -0.080  0.00  0.00    +0.053 A 
ATOM      9  C   UNL     1       2.099   0.745  -0.090  0.00  0.00    +0.042 A 
ATOM     10  C   UNL     1       1.254   1.795  -0.072  0.00  0.00    +0.196 A 
ATOM     11  O   UNL     1      -0.007   1.333  -0.053  0.00  0.00    -0.460 OA
ENDBRANCH   5   7
BRANCH   6  12
ATOM     12  N   UNL     1      -2.927   0.726  -0.622  0.00  0.00    -0.294 N 
ATOM     13  H   UNL     1      -2.919   0.867  -1.621  0.00  0.00    +0.163 HD
ATOM     14  H   UNL     1      -3.848   0.885  -0.242  0.00  0.00    +0.163 HD
ENDBRANCH   6  12
ENDBRANCH   1   2
BRANCH   1  15
ATOM     15  C   UNL     1      -5.170  -3.572  -0.049  0.00  0.00    +0.173 C 
BRANCH  15  17
ATOM     16  N   UNL     1      -7.025  -5.206   0.030  0.00  0.00    -0.284 N 
ATOM     17  C   UNL     1      -6.626  -3.936  -0.180  0.00  0.00    +0.228 C 
ATOM     18  O   UNL     1      -7.439  -3.086  -0.475  0.00  0.00    -0.275 OA
ATOM     19  H   UNL     1      -6.368  -5.899   0.202  0.00  0.00    +0.155 HD
BRANCH  16  24
ATOM     20  C   UNL     1     -10.581  -5.186  -0.905  0.00  0.00    +0.002 A 
ATOM     21  C   UNL     1     -11.081  -6.157  -0.056  0.00  0.00    +0.001 A 
ATOM     22  C   UNL     1     -10.237  -6.813   0.821  0.00  0.00    +0.016 A 
ATOM     23  C   UNL     1      -8.892  -6.500   0.852  0.00  0.00    +0.035 A 
ATOM     24  C   UNL     1      -8.387  -5.526   0.001  0.00  0.00    +0.047 A 
ATOM     25  C   UNL     1      -9.238  -4.865  -0.875  0.00  0.00    +0.024 A 
ATOM     26  I   UNL     1      -7.614  -7.495   2.182  0.00  0.00    -0.042 I 
ENDBRANCH  16  24
ENDBRANCH  15  17
ENDBRANCH   1  15
TORSDOF 6
