REMARK  Name = ZINC40680901
REMARK  6 active torsions:
REMARK  status: ('A' for Active; 'I' for Inactive)
REMARK    1  A    between atoms: C_1  and  C_2
REMARK    2  A    between atoms: C_9  and  N_26
REMARK    3  A    between atoms: C_10  and  N_14
REMARK    4  A    between atoms: C_16  and  C_25
REMARK    5  A    between atoms: C_21  and  C_23
REMARK    6  A    between atoms: C_21  and  C_24
REMARK                            x       y       z     vdW  Elec       q    Type
REMARK                         _______ _______ _______ _____ _____    ______ ____
ROOT
ATOM      1  C   UNL     1       0.387  -1.169   3.910  0.00  0.00    +0.089 C 
ATOM      2  C   UNL     1       0.256  -2.010   2.666  0.00  0.00    +0.136 A 
ATOM      3  C   UNL     1      -0.875  -2.212   1.968  0.00  0.00    +0.091 A 
ATOM      4  C   UNL     1      -0.570  -3.056   0.875  0.00  0.00    +0.167 A 
ATOM      5  N   UNL     1       0.707  -3.341   0.932  0.00  0.00    -0.063 NA
ATOM      6  O   UNL     1       1.249  -2.680   2.061  0.00  0.00    -0.358 OA
ATOM      7  N   UNL     1      -1.468  -3.506  -0.089  0.00  0.00    -0.282 N 
ATOM      8  C   UNL     1      -2.830  -3.267   0.064  0.00  0.00    +0.127 A 
ATOM      9  C   UNL     1      -3.721  -4.328   0.233  0.00  0.00    +0.104 A 
ATOM     10  C   UNL     1      -5.077  -4.033   0.382  0.00  0.00    +0.147 A 
ATOM     11  N   UNL     1      -5.466  -2.761   0.358  0.00  0.00    -0.221 NA
ATOM     12  C   UNL     1      -4.592  -1.788   0.197  0.00  0.00    +0.200 A 
ATOM     13  N   UNL     1      -3.303  -2.023   0.057  0.00  0.00    -0.333 N 
ATOM     14  H   UNL     1      -1.144  -3.985  -0.868  0.00  0.00    +0.155 HD
ATOM     15  H   UNL     1      -2.691  -1.279  -0.056  0.00  0.00    +0.168 HD
ENDROOT
BRANCH  10  16
ATOM     16  N   UNL     1      -6.007  -5.052   0.553  0.00  0.00    -0.310 N 
ATOM     17  C   UNL     1      -5.723  -6.495   0.493  0.00  0.00    +0.113 C 
ATOM     18  C   UNL     1      -7.078  -7.214   0.688  0.00  0.00    -0.014 C 
ATOM     19  C   UNL     1      -7.873  -6.189   1.541  0.00  0.00    +0.030 C 
ATOM     20  C   UNL     1      -7.445  -4.877   0.838  0.00  0.00    +0.076 C 
ATOM     21  C   UNL     1      -8.211  -4.799  -0.479  0.00  0.00    +0.029 C 
ATOM     22  C   UNL     1      -8.028  -6.013  -1.372  0.00  0.00    -0.033 C 
ATOM     23  C   UNL     1      -7.779  -7.330  -0.663  0.00  0.00    +0.014 C 
ATOM     24  C   UNL     1      -9.330  -6.174  -2.196  0.00  0.00    +0.011 C 
ATOM     25  C   UNL     1      -6.905  -5.743  -2.385  0.00  0.00    +0.011 C 
ATOM     26  C   UNL     1      -6.922  -8.569   1.395  0.00  0.00    +0.013 C 
ENDBRANCH  10  16
BRANCH   9  27
ATOM     27  N   UNL     1      -3.265  -5.656   0.251  0.00  0.00    -0.353 N 
ATOM     28  H   UNL     1      -2.313  -5.843   0.261  0.00  0.00    +0.143 HD
ATOM     29  H   UNL     1      -3.902  -6.388   0.254  0.00  0.00    +0.143 HD
ENDBRANCH   9  27
TORSDOF 2
