REMARK  Name = ZINC09135483
REMARK  8 active torsions:
REMARK  status: ('A' for Active; 'I' for Inactive)
REMARK    1  A    between atoms: C_1  and  C_2
REMARK    2  A    between atoms: N_4  and  C_5
REMARK    3  A    between atoms: C_8  and  N_11
REMARK    4  A    between atoms: C_12  and  C_14
REMARK    5  A    between atoms: C_14  and  S_15
REMARK    6  A    between atoms: S_15  and  C_16
REMARK    7  A    between atoms: C_17  and  C_38
REMARK    8  A    between atoms: C_18  and  C_29
REMARK                            x       y       z     vdW  Elec       q    Type
REMARK                         _______ _______ _______ _____ _____    ______ ____
ROOT
ATOM      1  C   UNL     1      -2.768 -11.088  -0.402  0.00  0.00    +0.111 C 
ATOM      2  C   UNL     1      -3.883 -11.857  -0.532  0.00  0.00    +0.069 C 
ATOM      3  C   UNL     1      -3.837 -13.339  -0.285  0.00  0.00    +0.078 C 
ATOM      4  C   UNL     1      -2.456 -13.904  -0.451  0.00  0.00    +0.112 C 
ATOM      5  C   UNL     1      -1.350 -12.903  -0.256  0.00  0.00    +0.031 C 
ATOM      6  N   UNL     1      -1.547 -11.641  -0.189  0.00  0.00    -0.248 NA
ATOM      7  C   UNL     1       0.060 -13.464  -0.298  0.00  0.00    +0.052 C 
ATOM      8  C   UNL     1       0.250 -14.110  -1.677  0.00  0.00    +0.013 C 
ATOM      9  C   UNL     1      -0.804 -15.187  -1.934  0.00  0.00    +0.075 C 
ATOM     10  C   UNL     1      -2.192 -14.588  -1.767  0.00  0.00    +0.143 C 
ATOM     11  O   UNL     1      -3.034 -14.667  -2.630  0.00  0.00    -0.297 OA
ENDROOT
BRANCH   3  12
ATOM     12  C   UNL     1      -4.763 -14.024  -1.256  0.00  0.00    -0.034 A 
ATOM     13  C   UNL     1      -5.048 -13.432  -2.473  0.00  0.00    +0.008 A 
ATOM     14  C   UNL     1      -5.897 -14.058  -3.367  0.00  0.00    +0.050 A 
ATOM     15  C   UNL     1      -6.464 -15.280  -3.046  0.00  0.00    +0.166 A 
ATOM     16  C   UNL     1      -6.177 -15.877  -1.820  0.00  0.00    +0.167 A 
ATOM     17  C   UNL     1      -5.321 -15.247  -0.931  0.00  0.00    +0.053 A 
ATOM     18  O   UNL     1      -6.851 -17.061  -1.743  0.00  0.00    -0.453 OA
ATOM     19  C   UNL     1      -7.871 -16.990  -2.757  0.00  0.00    +0.466 C 
ATOM     20  O   UNL     1      -7.317 -16.091  -3.736  0.00  0.00    -0.453 OA
ENDBRANCH   3  12
BRANCH   2  21
ATOM     21  C   UNL     1      -5.120 -11.244  -0.911  0.00  0.00    +0.098 C 
ATOM     22  N   UNL     1      -6.102 -10.758  -1.211  0.00  0.00    -0.191 NA
ENDBRANCH   2  21
BRANCH   1  23
ATOM     23  S   UNL     1      -2.911  -9.336  -0.520  0.00  0.00    -0.096 S 
BRANCH  23  24
ATOM     24  C   UNL     1      -1.212  -8.741  -0.299  0.00  0.00    +0.172 C 
BRANCH  24  26
ATOM     25  N   UNL     1      -0.029  -6.569  -0.242  0.00  0.00    -0.285 N 
ATOM     26  C   UNL     1      -1.192  -7.236  -0.379  0.00  0.00    +0.227 C 
ATOM     27  O   UNL     1      -2.223  -6.626  -0.567  0.00  0.00    -0.275 OA
ATOM     28  H   UNL     1       0.784  -7.052  -0.025  0.00  0.00    +0.155 HD
BRANCH  25  32
ATOM     29  C   UNL     1       0.074  -2.432  -0.752  0.00  0.00    +0.033 A 
ATOM     30  C   UNL     1       1.151  -3.209  -1.158  0.00  0.00    +0.025 A 
ATOM     31  C   UNL     1       1.117  -4.578  -0.989  0.00  0.00    +0.025 A 
ATOM     32  C   UNL     1       0.006  -5.179  -0.413  0.00  0.00    +0.034 A 
ATOM     33  C   UNL     1      -1.072  -4.403  -0.007  0.00  0.00    +0.025 A 
ATOM     34  C   UNL     1      -1.035  -3.033  -0.171  0.00  0.00    +0.025 A 
BRANCH  29  38
ATOM     35  C   UNL     1      -0.332   1.260  -0.135  0.00  0.00    +0.109 C 
ATOM     36  C   UNL     1      -0.459  -0.236  -0.005  0.00  0.00    +0.214 C 
ATOM     37  O   UNL     1      -1.073  -0.714   0.926  0.00  0.00    -0.276 OA
ATOM     38  N   UNL     1       0.108  -1.042  -0.924  0.00  0.00    -0.286 N 
ATOM     39  H   UNL     1       0.540  -0.660  -1.704  0.00  0.00    +0.155 HD
ENDBRANCH  29  38
ENDBRANCH  25  32
ENDBRANCH  24  26
ENDBRANCH  23  24
ENDBRANCH   1  23
TORSDOF 7
