REMARK  Name = ZINC56207529
REMARK  9 active torsions:
REMARK  status: ('A' for Active; 'I' for Inactive)
REMARK    1  A    between atoms: C_1  and  C_2
REMARK    2  A    between atoms: C_5  and  N_9
REMARK    3  A    between atoms: C_6  and  C_8
REMARK    4  A    between atoms: C_10  and  C_12
REMARK    5  A    between atoms: C_12  and  C_14
REMARK    6  A    between atoms: C_12  and  N_15
REMARK    7  A    between atoms: N_15  and  C_16
REMARK    8  A    between atoms: C_19  and  O_23
REMARK    9  A    between atoms: O_23  and  C_24
REMARK                            x       y       z     vdW  Elec       q    Type
REMARK                         _______ _______ _______ _____ _____    ______ ____
ROOT
ATOM      1  C   UNL     1      -0.134  -6.343  -1.187  0.00  0.00    +0.154 C 
ATOM      2  C   UNL     1      -1.376  -6.777  -0.406  0.00  0.00    +0.038 C 
ENDROOT
BRANCH   1   4
ATOM      3  N   UNL     1       0.059  -4.170  -0.021  0.00  0.00    -0.284 N 
ATOM      4  C   UNL     1      -0.040  -4.839  -1.187  0.00  0.00    +0.237 C 
ATOM      5  O   UNL     1      -0.054  -4.230  -2.236  0.00  0.00    -0.273 OA
ATOM      6  H   UNL     1       0.135  -4.658   0.814  0.00  0.00    +0.155 HD
BRANCH   3  11
ATOM      7  C   UNL     1       0.025   1.503   0.005  0.00  0.00    +0.044 C 
ATOM      8  C   UNL     1       0.034  -0.004  -0.002  0.00  0.00    -0.050 A 
ATOM      9  C   UNL     1       0.631  -0.685  -1.046  0.00  0.00    +0.005 A 
ATOM     10  C   UNL     1       0.641  -2.066  -1.055  0.00  0.00    +0.024 A 
ATOM     11  C   UNL     1       0.051  -2.771  -0.014  0.00  0.00    +0.036 A 
ATOM     12  C   UNL     1      -0.548  -2.083   1.033  0.00  0.00    -0.029 A 
ATOM     13  C   UNL     1      -0.550  -0.702   1.039  0.00  0.00    +0.008 A 
ATOM     14  C   UNL     1      -1.190  -2.844   2.165  0.00  0.00    +0.045 C 
ENDBRANCH   3  11
ENDBRANCH   1   4
BRANCH   1  15
ATOM     15  N   UNL     1      -0.232  -6.826  -2.567  0.00  0.00    -0.333 N 
ATOM     16  H   UNL     1      -0.586  -6.246  -3.259  0.00  0.00    +0.147 HD
BRANCH  15  17
ATOM     17  C   UNL     1       0.185  -8.123  -2.885  0.00  0.00    +0.033 A 
ATOM     18  C   UNL     1       0.687  -8.954  -1.893  0.00  0.00    +0.065 A 
ATOM     19  C   UNL     1       1.099 -10.236  -2.208  0.00  0.00    +0.169 A 
ATOM     20  C   UNL     1       1.012 -10.692  -3.516  0.00  0.00    +0.190 A 
ATOM     21  C   UNL     1       0.510  -9.861  -4.508  0.00  0.00    +0.169 A 
ATOM     22  C   UNL     1       0.093  -8.581  -4.193  0.00  0.00    +0.065 A 
ATOM     23  F   UNL     1       0.426 -10.304  -5.782  0.00  0.00    -0.201 F 
ATOM     24  F   UNL     1       1.587 -11.045  -1.242  0.00  0.00    -0.201 F 
BRANCH  20  25
ATOM     25  O   UNL     1       1.418 -11.953  -3.826  0.00  0.00    -0.490 OA
ATOM     26  C   UNL     1       0.437 -12.989  -3.744  0.00  0.00    +0.277 C 
ENDBRANCH  20  25
ENDBRANCH  15  17
ENDBRANCH   1  15
TORSDOF 5
