REMARK  Name = ZINC58161594
REMARK  12 active torsions:
REMARK  status: ('A' for Active; 'I' for Inactive)
REMARK    1  A    between atoms: C_1  and  C_2
REMARK    2  A    between atoms: C_5  and  N_9
REMARK    3  A    between atoms: C_6  and  C_8
REMARK    4  A    between atoms: N_9  and  S_10
REMARK    5  A    between atoms: S_10  and  C_13
REMARK    6  A    between atoms: C_16  and  N_22
REMARK    7  A    between atoms: C_17  and  N_19
REMARK    8  A    between atoms: N_22  and  C_23
REMARK    9  A    between atoms: C_23  and  C_24
REMARK   10  A    between atoms: N_28  and  C_30
REMARK   11  A    between atoms: C_30  and  C_31
REMARK   12  A    between atoms: C_30  and  C_32
REMARK                            x       y       z     vdW  Elec       q    Type
REMARK                         _______ _______ _______ _____ _____    ______ ____
ROOT
ATOM      1  C   UNL     1       2.523  -4.732  -1.168  0.00  0.00    +0.111 A 
ATOM      2  C   UNL     1       3.114  -3.626  -1.751  0.00  0.00    +0.031 A 
ATOM      3  C   UNL     1       4.469  -3.406  -1.599  0.00  0.00    +0.027 A 
ATOM      4  C   UNL     1       5.238  -4.296  -0.860  0.00  0.00    +0.058 A 
ATOM      5  C   UNL     1       4.640  -5.406  -0.276  0.00  0.00    +0.149 A 
ATOM      6  C   UNL     1       3.284  -5.617  -0.427  0.00  0.00    +0.063 A 
ENDROOT
BRANCH   1   7
ATOM      7  S   UNL     1       0.793  -5.009  -1.363  0.00  0.00    +0.072 S 
ATOM      8  O   UNL     1       0.581  -6.401  -1.172  0.00  0.00    -0.150 OA
ATOM      9  O   UNL     1       0.406  -4.335  -2.553  0.00  0.00    -0.150 OA
BRANCH   7  10
ATOM     10  N   UNL     1       0.030  -4.238  -0.112  0.00  0.00    -0.216 N 
ATOM     11  H   UNL     1      -0.514  -4.745   0.510  0.00  0.00    +0.174 HD
BRANCH  10  16
ATOM     12  C   UNL     1       0.592   1.368   0.530  0.00  0.00    +0.044 C 
ATOM     13  C   UNL     1       0.443  -0.121   0.359  0.00  0.00    -0.050 A 
ATOM     14  C   UNL     1       0.390  -0.669  -0.910  0.00  0.00    +0.005 A 
ATOM     15  C   UNL     1       0.253  -2.033  -1.070  0.00  0.00    +0.025 A 
ATOM     16  C   UNL     1       0.169  -2.857   0.046  0.00  0.00    +0.051 A 
ATOM     17  C   UNL     1       0.222  -2.304   1.319  0.00  0.00    -0.028 A 
ATOM     18  C   UNL     1       0.365  -0.939   1.472  0.00  0.00    +0.008 A 
ATOM     19  C   UNL     1       0.131  -3.193   2.532  0.00  0.00    +0.046 C 
ENDBRANCH  10  16
ENDBRANCH   7  10
ENDBRANCH   1   7
BRANCH   5  20
ATOM     20  N   UNL     1       5.455  -6.357   0.512  0.00  0.00    +0.058 N 
ATOM     21  O   UNL     1       6.581  -6.623   0.161  0.00  0.00    -0.126 OA
ATOM     22  O   UNL     1       4.995  -6.868   1.506  0.00  0.00    -0.126 OA
ENDBRANCH   5  20
BRANCH   4  23
ATOM     23  N   UNL     1       6.608  -4.077  -0.706  0.00  0.00    -0.342 N 
ATOM     24  H   UNL     1       7.156  -4.734  -0.248  0.00  0.00    +0.146 HD
BRANCH  23  25
ATOM     25  C   UNL     1       7.219  -2.854  -1.234  0.00  0.00    +0.103 C 
BRANCH  25  26
ATOM     26  C   UNL     1       8.719  -2.862  -0.933  0.00  0.00    -0.012 C 
ATOM     27  C   UNL     1       8.961  -2.730   0.588  0.00  0.00    -0.015 C 
ATOM     28  C   UNL     1      10.194  -1.795   0.663  0.00  0.00    -0.078 C 
ATOM     29  N   UNL     1       9.958  -0.832  -0.443  0.00  0.00    +0.381 N 
ATOM     30  C   UNL     1       9.396  -1.628  -1.559  0.00  0.00    -0.074 C 
ATOM     31  H   UNL     1       9.300  -0.124  -0.154  0.00  0.00    -0.081 HD
BRANCH  29  32
ATOM     32  C   UNL     1      11.224  -0.211  -0.854  0.00  0.00    -0.075 C 
ATOM     33  C   UNL     1      10.968   0.750  -2.016  0.00  0.00    -0.014 C 
ATOM     34  C   UNL     1      11.819   0.561   0.325  0.00  0.00    -0.014 C 
ENDBRANCH  29  32
ENDBRANCH  25  26
ENDBRANCH  23  25
ENDBRANCH   4  23
TORSDOF 8
