REMARK  Name = ZINC61865551
REMARK  6 active torsions:
REMARK  status: ('A' for Active; 'I' for Inactive)
REMARK    1  A    between atoms: C_4  and  C_7
REMARK    2  A    between atoms: C_7  and  C_8
REMARK    3  A    between atoms: C_7  and  N_14
REMARK    4  A    between atoms: N_17  and  N_18
REMARK    5  A    between atoms: C_19  and  C_21
REMARK    6  A    between atoms: C_24  and  C_27
REMARK                            x       y       z     vdW  Elec       q    Type
REMARK                         _______ _______ _______ _____ _____    ______ ____
ROOT
ATOM      1  N   UNL     1       3.611  -1.865  -0.930  0.00  0.00    -0.291 N 
ATOM      2  C   UNL     1       4.721  -2.370  -1.504  0.00  0.00    +0.316 C 
ATOM      3  O   UNL     1       5.805  -1.866  -1.281  0.00  0.00    -0.251 OA
ATOM      4  N   UNL     1       4.629  -3.435  -2.325  0.00  0.00    -0.218 N 
ATOM      5  H   UNL     1       2.747  -2.267  -1.108  0.00  0.00    +0.151 HD
ATOM      6  H   UNL     1       5.428  -3.799  -2.738  0.00  0.00    +0.174 HD
ENDROOT
BRANCH   4   7
ATOM      7  N   UNL     1       3.381  -4.016  -2.582  0.00  0.00    -0.229 N 
ATOM      8  C   UNL     1       3.289  -5.081  -3.404  0.00  0.00    +0.260 C 
ATOM      9  O   UNL     1       4.290  -5.537  -3.921  0.00  0.00    -0.269 OA
ATOM     10  H   UNL     1       2.582  -3.652  -2.169  0.00  0.00    +0.173 HD
BRANCH   8  11
ATOM     11  C   UNL     1       1.971  -5.694  -3.675  0.00  0.00    +0.038 A 
ATOM     12  C   UNL     1       0.821  -5.166  -3.085  0.00  0.00    +0.014 A 
ATOM     13  C   UNL     1      -0.407  -5.737  -3.338  0.00  0.00    +0.019 A 
ATOM     14  C   UNL     1      -0.502  -6.844  -4.184  0.00  0.00    +0.052 A 
ATOM     15  C   UNL     1       0.649  -7.372  -4.774  0.00  0.00    +0.019 A 
ATOM     16  C   UNL     1       1.876  -6.797  -4.526  0.00  0.00    +0.014 A 
BRANCH  14  17
ATOM     17  C   UNL     1      -1.778  -7.438  -4.447  0.00  0.00    +0.099 C 
ATOM     18  N   UNL     1      -2.791  -7.909  -4.655  0.00  0.00    -0.191 NA
ENDBRANCH  14  17
ENDBRANCH   8  11
ENDBRANCH   4   7
BRANCH   1  19
ATOM     19  C   UNL     1       3.711  -0.707  -0.038  0.00  0.00    +0.108 C 
BRANCH  19  23
ATOM     20  C   UNL     1      -0.017   1.378   0.010  0.00  0.00    +0.000 A 
ATOM     21  C   UNL     1       1.171   2.086   0.002  0.00  0.00    +0.000 A 
ATOM     22  C   UNL     1       2.377   1.411  -0.013  0.00  0.00    +0.005 A 
ATOM     23  C   UNL     1       2.396   0.029  -0.020  0.00  0.00    -0.027 A 
ATOM     24  C   UNL     1       1.208  -0.679  -0.012  0.00  0.00    +0.005 A 
ATOM     25  C   UNL     1       0.002  -0.004   0.002  0.00  0.00    +0.000 A 
ENDBRANCH  19  23
BRANCH  19  26
ATOM     26  C   UNL     1       4.049  -1.182   1.377  0.00  0.00    +0.014 C 
ATOM     27  C   UNL     1       4.153   0.027   2.309  0.00  0.00    +0.006 C 
ATOM     28  C   UNL     1       4.491  -0.448   3.724  0.00  0.00    +0.000 C 
ATOM     29  C   UNL     1       5.826  -1.195   3.707  0.00  0.00    +0.000 C 
ATOM     30  C   UNL     1       5.722  -2.403   2.774  0.00  0.00    +0.000 C 
ATOM     31  C   UNL     1       5.384  -1.929   1.359  0.00  0.00    +0.006 C 
ENDBRANCH  19  26
ENDBRANCH   1  19
TORSDOF 6
