REMARK  Name = ZINC08713697
REMARK  11 active torsions:
REMARK  status: ('A' for Active; 'I' for Inactive)
REMARK    1  A    between atoms: C_1  and  C_2
REMARK    2  A    between atoms: C_4  and  C_44
REMARK    3  A    between atoms: C_6  and  S_8
REMARK    4  A    between atoms: S_8  and  C_9
REMARK    5  A    between atoms: C_9  and  C_10
REMARK    6  A    between atoms: N_12  and  C_13
REMARK    7  A    between atoms: N_12  and  C_21
REMARK    8  A    between atoms: C_13  and  C_14
REMARK    9  A    between atoms: C_21  and  C_23
REMARK   10  A    between atoms: C_21  and  C_32
REMARK   11  A    between atoms: N_34  and  C_35
REMARK                            x       y       z     vdW  Elec       q    Type
REMARK                         _______ _______ _______ _____ _____    ______ ____
ROOT
ATOM      1  C   UNL     1      -0.017  -2.362  -2.291  0.00  0.00    +0.193 C 
ENDROOT
BRANCH   1   2
ATOM      2  C   UNL     1       0.604  -0.993  -2.400  0.00  0.00    -0.014 A 
ATOM      3  C   UNL     1       1.351  -0.490  -1.352  0.00  0.00    +0.010 A 
ATOM      4  C   UNL     1       1.927   0.763  -1.449  0.00  0.00    +0.050 A 
ATOM      5  C   UNL     1       1.747   1.522  -2.594  0.00  0.00    +0.166 A 
ATOM      6  C   UNL     1       0.989   1.017  -3.648  0.00  0.00    +0.167 A 
ATOM      7  C   UNL     1       0.420  -0.242  -3.546  0.00  0.00    +0.055 A 
ATOM      8  O   UNL     1       0.961   1.945  -4.649  0.00  0.00    -0.453 OA
ATOM      9  C   UNL     1       2.044   2.850  -4.364  0.00  0.00    +0.466 C 
ATOM     10  O   UNL     1       2.193   2.767  -2.934  0.00  0.00    -0.453 OA
ENDBRANCH   1   2
BRANCH   1  11
ATOM     11  C   UNL     1      -1.269  -2.281  -1.456  0.00  0.00    +0.242 C 
ATOM     12  O   UNL     1      -1.187  -2.152  -0.253  0.00  0.00    -0.273 OA
ATOM     13  N   UNL     1      -2.478  -2.352  -2.046  0.00  0.00    -0.284 N 
ATOM     14  H   UNL     1      -2.545  -2.556  -2.992  0.00  0.00    +0.155 HD
BRANCH  13  15
ATOM     15  C   UNL     1      -3.639  -2.130  -1.293  0.00  0.00    +0.037 A 
ATOM     16  C   UNL     1      -4.817  -2.786  -1.625  0.00  0.00    +0.027 A 
ATOM     17  C   UNL     1      -5.962  -2.571  -0.880  0.00  0.00    +0.051 A 
ATOM     18  C   UNL     1      -5.939  -1.696   0.193  0.00  0.00    +0.166 A 
ATOM     19  C   UNL     1      -4.760  -1.033   0.525  0.00  0.00    +0.168 A 
ATOM     20  C   UNL     1      -3.612  -1.252  -0.219  0.00  0.00    +0.072 A 
ATOM     21  O   UNL     1      -4.997  -0.236   1.607  0.00  0.00    -0.453 OA
ATOM     22  C   UNL     1      -6.429  -0.105   1.683  0.00  0.00    +0.466 C 
ATOM     23  O   UNL     1      -6.915  -1.313   1.069  0.00  0.00    -0.453 OA
ENDBRANCH  13  15
ENDBRANCH   1  11
BRANCH   1  26
ATOM     24  C   UNL     1       1.586  -4.194  -2.405  0.00  0.00    +0.227 C 
ATOM     25  O   UNL     1       1.303  -4.335  -3.576  0.00  0.00    -0.275 OA
ATOM     26  N   UNL     1       0.933  -3.281  -1.659  0.00  0.00    -0.281 N 
BRANCH  24  27
ATOM     27  C   UNL     1       2.668  -5.039  -1.785  0.00  0.00    +0.173 C 
BRANCH  27  28
ATOM     28  S   UNL     1       3.535  -5.957  -3.082  0.00  0.00    -0.077 S 
BRANCH  28  34
ATOM     29  C   UNL     1       5.581  -7.104   1.466  0.00  0.00    +0.066 C 
ATOM     30  C   UNL     1       5.582  -7.305  -0.027  0.00  0.00    +0.043 A 
ATOM     31  C   UNL     1       6.494  -8.166  -0.618  0.00  0.00    +0.046 A 
ATOM     32  C   UNL     1       6.461  -8.323  -1.995  0.00  0.00    +0.043 A 
ATOM     33  N   UNL     1       5.567  -7.650  -2.700  0.00  0.00    -0.227 NA
ATOM     34  C   UNL     1       4.709  -6.834  -2.104  0.00  0.00    +0.189 A 
ATOM     35  N   UNL     1       4.718  -6.658  -0.790  0.00  0.00    -0.227 NA
ATOM     36  C   UNL     1       7.432  -9.249  -2.680  0.00  0.00    +0.066 C 
ENDBRANCH  28  34
ENDBRANCH  27  28
ENDBRANCH  24  27
BRANCH  26  37
ATOM     37  C   UNL     1       1.174  -3.207  -0.216  0.00  0.00    +0.144 C 
BRANCH  37  38
ATOM     38  C   UNL     1       0.766  -4.506   0.429  0.00  0.00    -0.030 A 
ATOM     39  C   UNL     1       1.669  -5.202   1.211  0.00  0.00    +0.008 A 
ATOM     40  C   UNL     1       1.296  -6.394   1.803  0.00  0.00    +0.038 A 
ATOM     41  C   UNL     1       0.018  -6.891   1.611  0.00  0.00    +0.123 A 
ATOM     42  C   UNL     1      -0.885  -6.193   0.827  0.00  0.00    +0.038 A 
ATOM     43  C   UNL     1      -0.510  -5.002   0.237  0.00  0.00    +0.008 A 
ATOM     44  F   UNL     1      -0.348  -8.056   2.189  0.00  0.00    -0.205 F 
ENDBRANCH  37  38
ENDBRANCH  26  37
ENDBRANCH   1  26
TORSDOF 9
