REMARK  Name = ZINC11439923
REMARK  9 active torsions:
REMARK  status: ('A' for Active; 'I' for Inactive)
REMARK    1  A    between atoms: C_1  and  C_2
REMARK    2  A    between atoms: C_2  and  C_4
REMARK    3  A    between atoms: C_2  and  O_16
REMARK    4  A    between atoms: C_4  and  C_6
REMARK    5  A    between atoms: O_16  and  C_17
REMARK    6  A    between atoms: C_17  and  C_19
REMARK    7  A    between atoms: C_19  and  C_20
REMARK    8  A    between atoms: C_20  and  N_21
REMARK    9  A    between atoms: N_24  and  C_25
REMARK                            x       y       z     vdW  Elec       q    Type
REMARK                         _______ _______ _______ _____ _____    ______ ____
ROOT
ATOM      1  C   UNL     1      -8.629   0.577   1.955  0.00  0.00    +0.139 C 
ENDROOT
BRANCH   1   2
ATOM      2  C   UNL     1      -9.551   0.922   3.096  0.00  0.00    +0.309 C 
ATOM      3  O   UNL     1      -9.156   1.617   4.002  0.00  0.00    -0.251 OA
BRANCH   2   4
ATOM      4  O   UNL     1     -10.810   0.458   3.106  0.00  0.00    -0.454 OA
BRANCH   4   6
ATOM      5  C   UNL     1     -12.373   2.137   3.922  0.00  0.00    +0.061 C 
ATOM      6  C   UNL     1     -11.642   0.830   4.236  0.00  0.00    +0.244 C 
BRANCH   6   7
ATOM      7  C   UNL     1     -12.650  -0.259   4.499  0.00  0.00    +0.205 C 
ATOM      8  O   UNL     1     -12.854  -1.112   3.660  0.00  0.00    -0.288 OA
BRANCH   7   9
ATOM      9  C   UNL     1     -13.359  -0.287   5.726  0.00  0.00    +0.046 A 
ATOM     10  C   UNL     1     -13.236   0.600   6.774  0.00  0.00    +0.095 A 
ATOM     11  N   UNL     1     -14.076   0.248   7.765  0.00  0.00    -0.360 N 
ATOM     12  H   UNL     1     -14.169   0.725   8.605  0.00  0.00    +0.165 HD
ATOM     13  C   UNL     1     -14.784  -0.887   7.426  0.00  0.00    +0.047 A 
ATOM     14  C   UNL     1     -14.373  -1.276   6.141  0.00  0.00    +0.010 A 
ATOM     15  C   UNL     1     -14.928  -2.402   5.540  0.00  0.00    +0.011 A 
ATOM     16  C   UNL     1     -15.883  -3.133   6.213  0.00  0.00    +0.001 A 
ATOM     17  C   UNL     1     -16.291  -2.751   7.482  0.00  0.00    +0.002 A 
ATOM     18  C   UNL     1     -15.749  -1.638   8.088  0.00  0.00    +0.026 A 
ENDBRANCH   7   9
ENDBRANCH   6   7
ENDBRANCH   4   6
ENDBRANCH   2   4
ENDBRANCH   1   2
BRANCH   1  19
ATOM     19  C   UNL     1      -7.264   1.227   2.188  0.00  0.00    +0.117 C 
BRANCH  19  20
ATOM     20  N   UNL     1      -6.368   0.892   1.079  0.00  0.00    -0.299 N 
ATOM     21  C   UNL     1      -5.103   1.358   1.069  0.00  0.00    +0.300 C 
ATOM     22  O   UNL     1      -4.706   2.058   1.981  0.00  0.00    -0.253 OA
ATOM     23  N   UNL     1      -4.279   1.049   0.049  0.00  0.00    -0.294 N 
ATOM     24  H   UNL     1      -6.684   0.334   0.351  0.00  0.00    +0.150 HD
ATOM     25  H   UNL     1      -4.595   0.491  -0.679  0.00  0.00    +0.151 HD
BRANCH  23  26
ATOM     26  C   UNL     1      -2.904   1.556   0.038  0.00  0.00    +0.037 C 
ATOM     27  C   UNL     1      -2.188   1.063  -1.221  0.00  0.00    +0.029 C 
ATOM     28  C   UNL     1      -0.753   1.593  -1.232  0.00  0.00    -0.008 C 
ATOM     29  C   UNL     1      -0.013   1.086   0.008  0.00  0.00    +0.007 C 
ATOM     30  C   UNL     1      -0.729   1.579   1.267  0.00  0.00    -0.008 C 
ATOM     31  C   UNL     1      -2.164   1.050   1.278  0.00  0.00    +0.029 C 
ATOM     32  C   UNL     1      -0.750   3.109   1.275  0.00  0.00    +0.007 C 
ATOM     33  C   UNL     1      -1.490   3.616   0.036  0.00  0.00    -0.008 C 
ATOM     34  C   UNL     1      -0.773   3.123  -1.223  0.00  0.00    +0.007 C 
ATOM     35  C   UNL     1      -2.925   3.086   0.047  0.00  0.00    +0.029 C 
ENDBRANCH  23  26
ENDBRANCH  19  20
ENDBRANCH   1  19
TORSDOF 8
