REMARK  Name = ZINC46728383
REMARK  6 active torsions:
REMARK  status: ('A' for Active; 'I' for Inactive)
REMARK    1  A    between atoms: C_9  and  C_12
REMARK    2  A    between atoms: C_12  and  N_13
REMARK    3  A    between atoms: N_16  and  C_17
REMARK    4  A    between atoms: C_17  and  C_18
REMARK    5  A    between atoms: C_18  and  C_20
REMARK    6  A    between atoms: C_18  and  N_25
REMARK                            x       y       z     vdW  Elec       q    Type
REMARK                         _______ _______ _______ _____ _____    ______ ____
ROOT
ATOM      1  N   UNL     1       5.900  -2.152   1.338  0.00  0.00    -0.296 N 
ATOM      2  C   UNL     1       7.137  -2.538   0.965  0.00  0.00    +0.300 C 
ATOM      3  O   UNL     1       7.276  -3.366   0.086  0.00  0.00    -0.253 OA
ATOM      4  N   UNL     1       8.219  -2.005   1.566  0.00  0.00    -0.301 N 
ATOM      5  H   UNL     1       5.789  -1.491   2.039  0.00  0.00    +0.150 HD
ATOM      6  H   UNL     1       8.108  -1.344   2.267  0.00  0.00    +0.150 HD
ENDROOT
BRANCH   1   7
ATOM      7  C   UNL     1       4.724  -2.731   0.685  0.00  0.00    +0.153 C 
BRANCH   7  16
ATOM      8  C   UNL     1      -0.234   1.164   1.590  0.00  0.00    +0.004 A 
ATOM      9  C   UNL     1       0.925   1.904   1.446  0.00  0.00    +0.004 A 
ATOM     10  C   UNL     1       2.134   1.266   1.241  0.00  0.00    +0.049 A 
ATOM     11  C   UNL     1       2.187  -0.119   1.178  0.00  0.00    +0.163 A 
ATOM     12  C   UNL     1       1.022  -0.863   1.325  0.00  0.00    +0.162 A 
ATOM     13  C   UNL     1      -0.188  -0.216   1.530  0.00  0.00    +0.049 A 
ATOM     14  O   UNL     1       1.053  -2.222   1.275  0.00  0.00    -0.485 OA
ATOM     15  C   UNL     1       2.220  -2.819   0.698  0.00  0.00    +0.275 C 
ATOM     16  C   UNL     1       3.455  -2.127   1.290  0.00  0.00    +0.228 C 
ATOM     17  O   UNL     1       3.384  -0.733   0.971  0.00  0.00    -0.480 OA
ENDBRANCH   7  16
ENDBRANCH   1   7
BRANCH   4  18
ATOM     18  C   UNL     1       9.563  -2.424   1.161  0.00  0.00    +0.098 C 
BRANCH  18  19
ATOM     19  C   UNL     1      10.604  -1.581   1.898  0.00  0.00    +0.016 C 
BRANCH  19  20
ATOM     20  N   UNL     1      10.329  -0.155   1.673  0.00  0.00    +0.387 N 
ATOM     21  C   UNL     1      10.402   0.135   0.236  0.00  0.00    -0.078 C 
ATOM     22  C   UNL     1      10.037   1.600  -0.011  0.00  0.00    -0.019 C 
ATOM     23  C   UNL     1      11.019   2.500   0.744  0.00  0.00    -0.004 C 
ATOM     24  C   UNL     1      10.988   2.138   2.231  0.00  0.00    -0.019 C 
ATOM     25  C   UNL     1      11.319   0.653   2.396  0.00  0.00    -0.078 C 
ATOM     26  H   UNL     1       9.404   0.065   2.012  0.00  0.00    -0.081 HD
ENDBRANCH  19  20
BRANCH  19  27
ATOM     27  C   UNL     1      10.538  -1.878   3.374  0.00  0.00    +0.093 A 
ATOM     28  C   UNL     1      11.370  -2.690   4.051  0.00  0.00    +0.043 A 
ATOM     29  C   UNL     1      10.946  -2.678   5.400  0.00  0.00    +0.041 A 
ATOM     30  C   UNL     1       9.881  -1.860   5.466  0.00  0.00    +0.195 A 
ATOM     31  O   UNL     1       9.641  -1.374   4.237  0.00  0.00    -0.469 OA
ENDBRANCH  19  27
ENDBRANCH  18  19
ENDBRANCH   4  18
TORSDOF 6
