REMARK  Name = ZINC21222632
REMARK  8 active torsions:
REMARK  status: ('A' for Active; 'I' for Inactive)
REMARK    1  A    between atoms: C_1  and  O_2
REMARK    2  A    between atoms: O_2  and  C_3
REMARK    3  A    between atoms: C_5  and  C_13
REMARK    4  A    between atoms: C_7  and  O_11
REMARK    5  A    between atoms: C_8  and  O_9
REMARK    6  A    between atoms: O_9  and  C_10
REMARK    7  A    between atoms: O_11  and  C_12
REMARK    8  A    between atoms: C_18  and  C_28
REMARK                            x       y       z     vdW  Elec       q    Type
REMARK                         _______ _______ _______ _____ _____    ______ ____
ROOT
ATOM      1  C   UNL     1       6.120  -1.611  -2.928  0.00  0.00    +0.032 C 
ATOM      2  C   UNL     1       5.666  -1.744  -1.476  0.00  0.00    +0.059 C 
ATOM      3  C   UNL     1       4.861  -0.520  -1.070  0.00  0.00    +0.017 C 
ATOM      4  C   UNL     1       5.141   0.684  -1.597  0.00  0.00    +0.036 C 
ATOM      5  C   UNL     1       4.427   1.976  -1.281  0.00  0.00    +0.136 C 
ATOM      6  N   UNL     1       3.541   1.909  -0.138  0.00  0.00    -0.331 N 
ATOM      7  C   UNL     1       2.411   1.094  -0.154  0.00  0.00    +0.049 A 
ATOM      8  C   UNL     1       1.133   1.629  -0.133  0.00  0.00    +0.025 A 
ATOM      9  C   UNL     1       0.040   0.786  -0.229  0.00  0.00    +0.002 A 
ATOM     10  C   UNL     1       0.218  -0.582  -0.338  0.00  0.00    +0.002 A 
ATOM     11  C   UNL     1       1.493  -1.122  -0.331  0.00  0.00    +0.025 A 
ATOM     12  C   UNL     1       2.586  -0.280  -0.231  0.00  0.00    +0.052 A 
ATOM     13  N   UNL     1       3.889  -0.758  -0.153  0.00  0.00    -0.316 N 
ATOM     14  C   UNL     1       6.177   0.821  -2.550  0.00  0.00    +0.163 C 
ATOM     15  O   UNL     1       6.425   1.926  -2.992  0.00  0.00    -0.292 OA
ATOM     16  C   UNL     1       6.982  -0.348  -3.034  0.00  0.00    +0.088 C 
ATOM     17  H   UNL     1       3.756   2.506   0.760  0.00  0.00    +0.147 HD
ATOM     18  H   UNL     1       4.109  -1.371   0.734  0.00  0.00    +0.152 HD
ENDROOT
BRANCH   5  19
ATOM     19  C   UNL     1       3.621   2.385  -2.487  0.00  0.00    -0.022 A 
ATOM     20  C   UNL     1       3.925   3.575  -3.145  0.00  0.00    +0.006 A 
ATOM     21  C   UNL     1       3.217   3.972  -4.237  0.00  0.00    +0.009 A 
ATOM     22  C   UNL     1       2.162   3.173  -4.711  0.00  0.00    -0.018 A 
ATOM     23  C   UNL     1       1.409   3.550  -5.836  0.00  0.00    +0.008 A 
ATOM     24  C   UNL     1       0.395   2.751  -6.266  0.00  0.00    +0.001 A 
ATOM     25  C   UNL     1       0.090   1.561  -5.607  0.00  0.00    +0.001 A 
ATOM     26  C   UNL     1       0.798   1.164  -4.515  0.00  0.00    +0.008 A 
ATOM     27  C   UNL     1       1.853   1.963  -4.041  0.00  0.00    -0.018 A 
ATOM     28  C   UNL     1       2.610   1.583  -2.920  0.00  0.00    +0.014 A 
ENDBRANCH   5  19
BRANCH   1  31
ATOM     29  C   UNL     1       7.255  -4.734  -4.730  0.00  0.00    +0.165 A 
ATOM     30  C   UNL     1       6.511  -3.622  -4.365  0.00  0.00    +0.053 A 
ATOM     31  C   UNL     1       6.932  -2.818  -3.322  0.00  0.00    -0.036 A 
ATOM     32  C   UNL     1       8.098  -3.116  -2.642  0.00  0.00    +0.053 A 
ATOM     33  C   UNL     1       8.845  -4.228  -2.998  0.00  0.00    +0.165 A 
ATOM     34  C   UNL     1       8.426  -5.039  -4.045  0.00  0.00    +0.204 A 
BRANCH  29  36
ATOM     35  C   UNL     1       5.628  -5.150  -6.413  0.00  0.00    +0.277 C 
ATOM     36  O   UNL     1       6.840  -5.524  -5.756  0.00  0.00    -0.491 OA
ENDBRANCH  29  36
BRANCH  34  37
ATOM     37  O   UNL     1       9.159  -6.130  -4.400  0.00  0.00    -0.488 OA
ATOM     38  C   UNL     1      10.173  -5.936  -5.388  0.00  0.00    +0.277 C 
ENDBRANCH  34  37
BRANCH  33  39
ATOM     39  O   UNL     1       9.990  -4.523  -2.325  0.00  0.00    -0.491 OA
ATOM     40  C   UNL     1      10.360  -3.646  -1.259  0.00  0.00    +0.277 C 
ENDBRANCH  33  39
ENDBRANCH   1  31
TORSDOF 5
