REMARK  Name = ZINC01717322
REMARK  8 active torsions:
REMARK  status: ('A' for Active; 'I' for Inactive)
REMARK    1  A    between atoms: C_1  and  C_2
REMARK    2  A    between atoms: C_5  and  S_8
REMARK    3  A    between atoms: S_8  and  N_11
REMARK    4  A    between atoms: N_11  and  C_12
REMARK    5  A    between atoms: C_17  and  C_18
REMARK    6  A    between atoms: N_19  and  N_20
REMARK    7  A    between atoms: N_20  and  C_21
REMARK    8  A    between atoms: C_21  and  N_23
REMARK                            x       y       z     vdW  Elec       q    Type
REMARK                         _______ _______ _______ _____ _____    ______ ____
ROOT
ATOM      1  C   UNL     1      -0.135   3.867  -0.141  0.00  0.00    +0.057 A 
ATOM      2  C   UNL     1       1.013   3.091  -0.221  0.00  0.00    +0.025 A 
ATOM      3  C   UNL     1       0.913   1.724  -0.390  0.00  0.00    +0.002 A 
ATOM      4  C   UNL     1      -0.329   1.117  -0.481  0.00  0.00    +0.001 A 
ATOM      5  C   UNL     1      -1.480   1.873  -0.409  0.00  0.00    +0.011 A 
ATOM      6  C   UNL     1      -1.395   3.256  -0.233  0.00  0.00    +0.017 A 
ENDROOT
BRANCH   1   7
ATOM      7  N   UNL     1      -0.036   5.247   0.030  0.00  0.00    -0.216 N 
ATOM      8  H   UNL     1      -0.689   5.716   0.573  0.00  0.00    +0.174 HD
BRANCH   7   9
ATOM      9  S   UNL     1       1.195   6.085  -0.694  0.00  0.00    +0.072 S 
ATOM     10  O   UNL     1       0.952   7.462  -0.441  0.00  0.00    -0.150 OA
ATOM     11  O   UNL     1       2.403   5.442  -0.313  0.00  0.00    -0.150 OA
BRANCH   9  16
ATOM     12  C   UNL     1       0.628   5.300  -6.650  0.00  0.00    +0.044 C 
ATOM     13  C   UNL     1       0.770   5.496  -5.162  0.00  0.00    -0.050 A 
ATOM     14  C   UNL     1       0.137   6.557  -4.542  0.00  0.00    +0.005 A 
ATOM     15  C   UNL     1       0.267   6.737  -3.177  0.00  0.00    +0.029 A 
ATOM     16  C   UNL     1       1.029   5.856  -2.433  0.00  0.00    +0.109 A 
ATOM     17  C   UNL     1       1.666   4.798  -3.055  0.00  0.00    +0.029 A 
ATOM     18  C   UNL     1       1.533   4.615  -4.418  0.00  0.00    +0.005 A 
ENDBRANCH   9  16
ENDBRANCH   7   9
ENDBRANCH   1   7
BRANCH   6  19
ATOM     19  C   UNL     1      -2.620   4.070  -0.150  0.00  0.00    +0.140 C 
ATOM     20  N   UNL     1      -2.537   5.355   0.008  0.00  0.00    -0.188 NA
BRANCH  20  21
ATOM     21  N   UNL     1      -3.703   6.129   0.087  0.00  0.00    -0.219 N 
ATOM     22  H   UNL     1      -4.572   5.703   0.023  0.00  0.00    +0.176 HD
BRANCH  21  23
ATOM     23  C   UNL     1      -3.616   7.463   0.251  0.00  0.00    +0.147 C 
ATOM     24  S   UNL     1      -5.040   8.408   0.347  0.00  0.00    -0.017 S 
BRANCH  23  25
ATOM     25  N   UNL     1      -2.408   8.055   0.340  0.00  0.00    -0.339 N 
ATOM     26  H   UNL     1      -1.601   7.519   0.285  0.00  0.00    +0.144 HD
ATOM     27  H   UNL     1      -2.345   9.015   0.458  0.00  0.00    +0.144 HD
ENDBRANCH  23  25
ENDBRANCH  21  23
ENDBRANCH  20  21
ENDBRANCH   6  19
TORSDOF 7
