REMARK  Name = ZINC18750808
REMARK  6 active torsions:
REMARK  status: ('A' for Active; 'I' for Inactive)
REMARK    1  A    between atoms: C_4  and  N_10
REMARK    2  A    between atoms: C_6  and  N_7
REMARK    3  A    between atoms: C_11  and  C_13
REMARK    4  A    between atoms: C_13  and  O_14
REMARK    5  A    between atoms: O_14  and  C_15
REMARK    6  A    between atoms: C_15  and  C_17
REMARK                            x       y       z     vdW  Elec       q    Type
REMARK                         _______ _______ _______ _____ _____    ______ ____
ROOT
ATOM      1  N   UNL     1       1.143   1.898   0.001  0.00  0.00    -0.281 N 
ATOM      2  C   UNL     1      -0.014   1.208   0.002  0.00  0.00    +0.255 C 
ATOM      3  O   UNL     1       0.003  -0.004  -0.001  0.00  0.00    -0.272 OA
ATOM      4  H   UNL     1       1.131   2.866  -0.062  0.00  0.00    +0.155 HD
ENDROOT
BRANCH   1   8
ATOM      5  C   UNL     1       4.776  -0.126   0.271  0.00  0.00    +0.034 A 
ATOM      6  C   UNL     1       4.630   1.110   0.873  0.00  0.00    +0.024 A 
ATOM      7  C   UNL     1       3.426   1.784   0.786  0.00  0.00    +0.062 A 
ATOM      8  C   UNL     1       2.364   1.218   0.092  0.00  0.00    +0.054 A 
ATOM      9  C   UNL     1       2.513  -0.025  -0.507  0.00  0.00    +0.057 A 
ATOM     10  C   UNL     1       3.721  -0.691  -0.421  0.00  0.00    +0.128 A 
ATOM     11 CL   UNL     1       3.243   3.336   1.543  0.00  0.00    -0.082 Cl
BRANCH  10  12
ATOM     12  N   UNL     1       3.882  -2.014  -1.064  0.00  0.00    +0.056 N 
ATOM     13  O   UNL     1       4.944  -2.605  -0.984  0.00  0.00    -0.126 OA
ATOM     14  O   UNL     1       2.953  -2.513  -1.674  0.00  0.00    -0.126 OA
ENDBRANCH  10  12
ENDBRANCH   1   8
BRANCH   2  15
ATOM     15  C   UNL     1      -1.330   1.944   0.001  0.00  0.00    +0.328 C 
BRANCH  15  16
ATOM     16  O   UNL     1      -2.420   0.985  -0.004  0.00  0.00    -0.450 OA
BRANCH  16  17
ATOM     17  C   UNL     1      -3.673   1.483  -0.006  0.00  0.00    +0.375 C 
ATOM     18  O   UNL     1      -3.849   2.686  -0.004  0.00  0.00    -0.241 OA
BRANCH  17  19
ATOM     19  C   UNL     1      -4.825   0.572  -0.012  0.00  0.00    +0.213 A 
ATOM     20  C   UNL     1      -6.128   0.959  -0.014  0.00  0.00    +0.065 A 
ATOM     21  C   UNL     1      -6.916  -0.273  -0.020  0.00  0.00    +0.022 A 
ATOM     22  C   UNL     1      -8.284  -0.553  -0.025  0.00  0.00    +0.031 A 
ATOM     23  C   UNL     1      -8.710  -1.852  -0.031  0.00  0.00    +0.042 A 
ATOM     24  C   UNL     1      -7.790  -2.894  -0.032  0.00  0.00    +0.023 A 
ATOM     25  C   UNL     1      -6.436  -2.638  -0.027  0.00  0.00    +0.048 A 
ATOM     26  C   UNL     1      -5.980  -1.324  -0.021  0.00  0.00    +0.136 A 
ATOM     27  O   UNL     1      -4.750  -0.775  -0.021  0.00  0.00    -0.448 OA
ATOM     28 CL   UNL     1     -10.410  -2.203  -0.038  0.00  0.00    -0.084 Cl
ENDBRANCH  17  19
ENDBRANCH  16  17
ENDBRANCH  15  16
ENDBRANCH   2  15
TORSDOF 6
