REMARK  Name = ZINC03127131
REMARK  7 active torsions:
REMARK  status: ('A' for Active; 'I' for Inactive)
REMARK    1  A    between atoms: C_1  and  C_2
REMARK    2  A    between atoms: C_2  and  C_4
REMARK    3  A    between atoms: C_2  and  N_10
REMARK    4  A    between atoms: C_11  and  C_13
REMARK    5  A    between atoms: N_15  and  N_16
REMARK    6  A    between atoms: C_17  and  C_18
REMARK    7  A    between atoms: C_23  and  O_24
REMARK                            x       y       z     vdW  Elec       q    Type
REMARK                         _______ _______ _______ _____ _____    ______ ____
ROOT
ATOM      1  C   UNL     1       3.177   5.816   2.354  0.00  0.00    +0.318 C 
ATOM      2  O   UNL     1       4.157   5.131   2.573  0.00  0.00    -0.263 OA
ATOM      3  N   UNL     1       3.066   7.033   2.921  0.00  0.00    -0.199 N 
ATOM      4  H   UNL     1       2.284   7.580   2.746  0.00  0.00    +0.178 HD
ENDROOT
BRANCH   1   6
ATOM      5  N   UNL     1       2.210   4.090   0.890  0.00  0.00    -0.301 N 
ATOM      6  C   UNL     1       2.098   5.308   1.457  0.00  0.00    +0.301 C 
ATOM      7  O   UNL     1       1.120   5.992   1.238  0.00  0.00    -0.265 OA
ATOM      8  H   UNL     1       2.992   3.544   1.065  0.00  0.00    +0.150 HD
BRANCH   5  10
ATOM      9  C   UNL     1       1.381   4.113  -1.410  0.00  0.00    +0.033 C 
ATOM     10  C   UNL     1       1.151   3.592   0.010  0.00  0.00    +0.101 C 
BRANCH  10  11
ATOM     11  C   UNL     1       1.171   2.086   0.002  0.00  0.00    -0.027 A 
ATOM     12  C   UNL     1      -0.017   1.378   0.010  0.00  0.00    +0.005 A 
ATOM     13  C   UNL     1       0.002  -0.004   0.002  0.00  0.00    +0.000 A 
ATOM     14  C   UNL     1       1.208  -0.679  -0.014  0.00  0.00    +0.000 A 
ATOM     15  C   UNL     1       2.396   0.029  -0.021  0.00  0.00    +0.000 A 
ATOM     16  C   UNL     1       2.377   1.411  -0.014  0.00  0.00    +0.005 A 
ENDBRANCH  10  11
ENDBRANCH   5  10
ENDBRANCH   1   6
BRANCH   3  17
ATOM     17  N   UNL     1       4.079   7.510   3.763  0.00  0.00    -0.187 NA
ATOM     18  C   UNL     1       3.971   8.684   4.309  0.00  0.00    +0.142 C 
BRANCH  18  19
ATOM     19  C   UNL     1       5.036   9.184   5.194  0.00  0.00    +0.037 A 
ATOM     20  C   UNL     1       4.925  10.446   5.784  0.00  0.00    +0.028 A 
ATOM     21  C   UNL     1       5.926  10.909   6.613  0.00  0.00    +0.019 A 
ATOM     22  C   UNL     1       7.043  10.127   6.862  0.00  0.00    +0.019 A 
ATOM     23  C   UNL     1       7.165   8.878   6.284  0.00  0.00    +0.047 A 
ATOM     24  C   UNL     1       6.166   8.395   5.455  0.00  0.00    +0.126 A 
ATOM     25 BR   UNL     1       5.774  12.617   7.411  0.00  0.00    -0.050 Br
BRANCH  24  26
ATOM     26  O   UNL     1       6.283   7.165   4.891  0.00  0.00    -0.506 OA
ATOM     27  H   UNL     1       6.727   7.167   4.032  0.00  0.00    +0.292 HD
ENDBRANCH  24  26
ENDBRANCH  18  19
ENDBRANCH   3  17
TORSDOF 6
