REMARK  Name = ZINC05562127
REMARK  6 active torsions:
REMARK  status: ('A' for Active; 'I' for Inactive)
REMARK    1  A    between atoms: C_1  and  C_2
REMARK    2  A    between atoms: C_5  and  N_8
REMARK    3  A    between atoms: N_8  and  N_9
REMARK    4  A    between atoms: C_10  and  C_11
REMARK    5  A    between atoms: C_10  and  C_13
REMARK    6  A    between atoms: C_15  and  C_18
REMARK                            x       y       z     vdW  Elec       q    Type
REMARK                         _______ _______ _______ _____ _____    ______ ____
ROOT
ATOM      1  N   UNL     1       0.299   9.804   0.152  0.00  0.00    -0.169 NA
ATOM      2  C   UNL     1      -0.308   8.643   0.061  0.00  0.00    +0.190 C 
ENDROOT
BRANCH   2   3
ATOM      3  C   UNL     1       0.478   7.395   0.088  0.00  0.00    +0.139 A 
ATOM      4  N   UNL     1       1.793   7.234   0.109  0.00  0.00    -0.236 NA
ATOM      5  C   UNL     1       2.335   6.029   0.133  0.00  0.00    +0.085 A 
ATOM      6  C   UNL     1       1.521   4.925   0.131  0.00  0.00    +0.076 A 
ATOM      7  S   UNL     1      -0.090   5.700   0.102  0.00  0.00    -0.073 S 
BRANCH   5   8
ATOM      8  C   UNL     1       3.806   5.873   0.156  0.00  0.00    +0.038 A 
ATOM      9  C   UNL     1       4.776   6.838   0.156  0.00  0.00    +0.017 A 
ATOM     10  C   UNL     1       6.098   6.448   0.186  0.00  0.00    +0.008 A 
ATOM     11  C   UNL     1       6.397   5.125   0.202  0.00  0.00    +0.046 A 
ATOM     12  S   UNL     1       4.777   4.375   0.189  0.00  0.00    -0.095 S 
ENDBRANCH   5   8
ENDBRANCH   2   3
BRANCH   1  13
ATOM     13  N   UNL     1       1.698   9.866   0.140  0.00  0.00    -0.237 N 
ATOM     14  H   UNL     1       2.218   9.061  -0.015  0.00  0.00    +0.174 HD
BRANCH  13  19
ATOM     15  C   UNL     1       4.325  14.816   0.995  0.00  0.00    +0.044 C 
ATOM     16  C   UNL     1       3.627  13.500   0.768  0.00  0.00    -0.050 A 
ATOM     17  C   UNL     1       4.370  12.354   0.548  0.00  0.00    +0.005 A 
ATOM     18  C   UNL     1       3.733  11.147   0.339  0.00  0.00    +0.025 A 
ATOM     19  C   UNL     1       2.345  11.084   0.351  0.00  0.00    +0.048 A 
ATOM     20  C   UNL     1       1.602  12.239   0.567  0.00  0.00    +0.025 A 
ATOM     21  C   UNL     1       2.245  13.441   0.780  0.00  0.00    +0.005 A 
ENDBRANCH  13  19
ENDBRANCH   1  13
BRANCH   2  22
ATOM     22  C   UNL     1      -1.734   8.588  -0.064  0.00  0.00    +0.123 C 
ATOM     23  N   UNL     1      -2.865   8.544  -0.163  0.00  0.00    -0.189 NA
ENDBRANCH   2  22
TORSDOF 5
