REMARK  Name = ZINC17903397
REMARK  8 active torsions:
REMARK  status: ('A' for Active; 'I' for Inactive)
REMARK    1  A    between atoms: C_1  and  C_2
REMARK    2  A    between atoms: C_2  and  C_3
REMARK    3  A    between atoms: C_8  and  N_9
REMARK    4  A    between atoms: C_10  and  C_12
REMARK    5  A    between atoms: C_12  and  N_13
REMARK    6  A    between atoms: N_13  and  C_14
REMARK    7  A    between atoms: C_15  and  C_17
REMARK    8  A    between atoms: C_29  and  C_32
REMARK                            x       y       z     vdW  Elec       q    Type
REMARK                         _______ _______ _______ _____ _____    ______ ____
ROOT
ATOM      1  N   UNL     1      -3.154   9.475   2.962  0.00  0.00    -0.292 N 
ATOM      2  C   UNL     1      -3.532   9.406   4.375  0.00  0.00    +0.133 C 
ATOM      3  C   UNL     1      -2.468   8.460   2.398  0.00  0.00    +0.247 C 
ATOM      4  O   UNL     1      -2.070   8.558   1.253  0.00  0.00    -0.270 OA
ENDROOT
BRANCH   3   5
ATOM      5  C   UNL     1      -2.201   7.231   3.170  0.00  0.00    +0.038 A 
ATOM      6  C   UNL     1      -2.042   7.317   4.557  0.00  0.00    +0.015 A 
ATOM      7  C   UNL     1      -1.791   6.217   5.334  0.00  0.00    +0.027 A 
ATOM      8  C   UNL     1      -1.698   4.983   4.688  0.00  0.00    +0.047 A 
ATOM      9  C   UNL     1      -1.859   4.883   3.280  0.00  0.00    +0.004 A 
ATOM     10  C   UNL     1      -2.113   6.008   2.497  0.00  0.00    +0.023 A 
ATOM     11  C   UNL     1      -1.703   3.478   2.960  0.00  0.00    -0.019 A 
ATOM     12  C   UNL     1      -1.467   2.831   4.121  0.00  0.00    +0.020 A 
ATOM     13  N   UNL     1      -1.463   3.726   5.159  0.00  0.00    -0.358 N 
ATOM     14  H   UNL     1      -1.316   3.499   6.090  0.00  0.00    +0.166 HD
ATOM     15  C   UNL     1      -1.245   1.340   4.220  0.00  0.00    +0.054 C 
ATOM     16  C   UNL     1      -0.917   0.800   2.824  0.00  0.00    +0.009 C 
ATOM     17  C   UNL     1      -1.964   1.301   1.825  0.00  0.00    -0.009 C 
ATOM     18  C   UNL     1      -1.781   2.808   1.611  0.00  0.00    +0.040 C 
ATOM     19  C   UNL     1      -1.788   0.571   0.492  0.00  0.00    +0.008 C 
ENDBRANCH   3   5
BRANCH   1  20
ATOM     20  C   UNL     1      -3.520  10.646   2.161  0.00  0.00    +0.203 C 
BRANCH  20  22
ATOM     21  N   UNL     1      -5.412  11.370   0.742  0.00  0.00    -0.284 N 
ATOM     22  C   UNL     1      -4.869  10.420   1.528  0.00  0.00    +0.235 C 
ATOM     23  O   UNL     1      -5.466   9.383   1.727  0.00  0.00    -0.274 OA
ATOM     24  H   UNL     1      -4.972  12.229   0.645  0.00  0.00    +0.155 HD
BRANCH  21  30
ATOM     25  C   UNL     1      -7.428  12.172  -0.318  0.00  0.00    -0.026 A 
ATOM     26  C   UNL     1      -8.611  11.920  -0.985  0.00  0.00    +0.005 A 
ATOM     27  C   UNL     1      -8.981  10.618  -1.271  0.00  0.00    +0.000 A 
ATOM     28  C   UNL     1      -8.169   9.566  -0.889  0.00  0.00    +0.002 A 
ATOM     29  C   UNL     1      -6.983   9.812  -0.227  0.00  0.00    +0.023 A 
ATOM     30  C   UNL     1      -6.611  11.118   0.066  0.00  0.00    +0.037 A 
BRANCH  25  32
ATOM     31  C   UNL     1      -6.092  14.107  -1.105  0.00  0.00    +0.009 C 
ATOM     32  C   UNL     1      -7.025  13.591  -0.008  0.00  0.00    +0.033 C 
ENDBRANCH  25  32
ENDBRANCH  21  30
ENDBRANCH  20  22
ENDBRANCH   1  20
TORSDOF 5
