REMARK  Name = ZINC59293352
REMARK  11 active torsions:
REMARK  status: ('A' for Active; 'I' for Inactive)
REMARK    1  A    between atoms: C_1  and  C_2
REMARK    2  A    between atoms: C_2  and  N_3
REMARK    3  A    between atoms: C_13  and  C_27
REMARK    4  A    between atoms: C_14  and  N_26
REMARK    5  A    between atoms: C_16  and  C_25
REMARK    6  A    between atoms: C_17  and  C_18
REMARK    7  A    between atoms: C_18  and  O_20
REMARK    8  A    between atoms: O_20  and  C_21
REMARK    9  A    between atoms: C_21  and  C_22
REMARK   10  A    between atoms: C_21  and  C_23
REMARK   11  A    between atoms: C_21  and  C_24
REMARK                            x       y       z     vdW  Elec       q    Type
REMARK                         _______ _______ _______ _____ _____    ______ ____
ROOT
ATOM      1  N   UNL     1       0.688  -0.476  -1.203  0.00  0.00    -0.270 N 
ATOM      2  C   UNL     1       0.044  -0.733  -2.415  0.00  0.00    +0.041 A 
ATOM      3  C   UNL     1      -1.297  -0.620  -2.776  0.00  0.00    +0.024 A 
ATOM      4  C   UNL     1      -1.699  -0.938  -4.057  0.00  0.00    +0.002 A 
ATOM      5  C   UNL     1      -0.776  -1.371  -4.992  0.00  0.00    +0.000 A 
ATOM      6  C   UNL     1       0.557  -1.485  -4.641  0.00  0.00    +0.007 A 
ATOM      7  C   UNL     1       0.962  -1.168  -3.364  0.00  0.00    -0.001 A 
ATOM      8  C   UNL     1       2.304  -1.181  -2.676  0.00  0.00    +0.148 C 
ATOM      9  C   UNL     1       2.011  -0.708  -1.272  0.00  0.00    +0.240 C 
ATOM     10  O   UNL     1       2.815  -0.566  -0.375  0.00  0.00    -0.274 OA
ATOM     11  C   UNL     1       3.250  -0.232  -3.355  0.00  0.00    +0.110 C 
ATOM     12  C   UNL     1       4.262  -0.704  -4.126  0.00  0.00    +0.199 C 
ATOM     13  O   UNL     1       4.447  -2.024  -4.307  0.00  0.00    -0.445 OA
ATOM     14  C   UNL     1       3.892  -2.906  -3.460  0.00  0.00    +0.116 C 
ATOM     15  C   UNL     1       2.871  -2.570  -2.658  0.00  0.00    +0.099 C 
ATOM     16  C   UNL     1       4.431  -4.312  -3.411  0.00  0.00    +0.087 C 
ENDROOT
BRANCH  12  17
ATOM     17  N   UNL     1       5.113   0.184  -4.735  0.00  0.00    -0.328 N 
ATOM     18  H   UNL     1       4.988   1.138  -4.612  0.00  0.00    +0.145 HD
ATOM     19  H   UNL     1       5.840  -0.142  -5.288  0.00  0.00    +0.145 HD
ENDBRANCH  12  17
BRANCH   1  21
ATOM     20  C   UNL     1      -0.019   1.526   0.010  0.00  0.00    +0.025 C 
ATOM     21  C   UNL     1       0.002  -0.004   0.002  0.00  0.00    +0.110 C 
ENDBRANCH   1  21
BRANCH  15  22
ATOM     22  C   UNL     1       2.321  -3.539  -1.783  0.00  0.00    +0.341 C 
ATOM     23  O   UNL     1       2.775  -4.667  -1.763  0.00  0.00    -0.245 OA
BRANCH  22  24
ATOM     24  O   UNL     1       1.294  -3.210  -0.973  0.00  0.00    -0.456 OA
BRANCH  24  25
ATOM     25  C   UNL     1       0.789  -4.237  -0.117  0.00  0.00    +0.106 C 
ATOM     26  C   UNL     1       1.905  -4.723   0.810  0.00  0.00    +0.055 C 
ATOM     27  C   UNL     1      -0.364  -3.681   0.721  0.00  0.00    +0.055 C 
ATOM     28  C   UNL     1       0.285  -5.406  -0.965  0.00  0.00    +0.055 C 
ENDBRANCH  24  25
ENDBRANCH  22  24
ENDBRANCH  15  22
BRANCH  11  29
ATOM     29  C   UNL     1       3.083   1.180  -3.187  0.00  0.00    +0.102 C 
ATOM     30  N   UNL     1       2.950   2.301  -3.054  0.00  0.00    -0.191 NA
ENDBRANCH  11  29
TORSDOF 6
