REMARK  Name = ZINC64028752
REMARK  7 active torsions:
REMARK  status: ('A' for Active; 'I' for Inactive)
REMARK    1  A    between atoms: C_1  and  C_2
REMARK    2  A    between atoms: C_2  and  S_3
REMARK    3  A    between atoms: S_3  and  N_6
REMARK    4  A    between atoms: C_9  and  N_12
REMARK    5  A    between atoms: C_13  and  C_15
REMARK    6  A    between atoms: C_15  and  C_16
REMARK    7  A    between atoms: C_24  and  C_26
REMARK                            x       y       z     vdW  Elec       q    Type
REMARK                         _______ _______ _______ _____ _____    ______ ____
ROOT
ATOM      1  N   UNL     1      -3.411  -6.012   0.105  0.00  0.00    -0.312 N 
ATOM      2  C   UNL     1      -3.171  -7.170   0.753  0.00  0.00    +0.217 C 
ATOM      3  O   UNL     1      -2.164  -7.296   1.417  0.00  0.00    -0.275 OA
ATOM      4  H   UNL     1      -4.216  -5.912  -0.426  0.00  0.00    +0.149 HD
ENDROOT
BRANCH   1   8
ATOM      5  N   UNL     1      -1.741  -2.173   0.341  0.00  0.00    -0.181 NA
ATOM      6  C   UNL     1      -1.562  -2.872  -0.939  0.00  0.00    +0.111 C 
ATOM      7  C   UNL     1      -2.587  -4.008  -1.028  0.00  0.00    +0.039 C 
ATOM      8  C   UNL     1      -2.455  -4.907   0.203  0.00  0.00    +0.075 C 
ATOM      9  C   UNL     1      -2.745  -4.092   1.466  0.00  0.00    +0.039 C 
ATOM     10  C   UNL     1      -1.717  -2.957   1.584  0.00  0.00    +0.111 C 
BRANCH   5  11
ATOM     11  S   UNL     1      -1.960  -0.532   0.383  0.00  0.00    +0.032 S 
ATOM     12  O   UNL     1      -2.676  -0.292   1.586  0.00  0.00    -0.158 OA
ATOM     13  O   UNL     1      -2.531  -0.210  -0.878  0.00  0.00    -0.158 OA
BRANCH  11  15
ATOM     14  C   UNL     1      -0.366   1.685   0.550  0.00  0.00    +0.029 C 
ATOM     15  C   UNL     1      -0.286   0.158   0.504  0.00  0.00    +0.182 C 
ENDBRANCH  11  15
ENDBRANCH   5  11
ENDBRANCH   1   8
BRANCH   2  16
ATOM     16  C   UNL     1      -4.155  -8.307   0.652  0.00  0.00    +0.129 C 
BRANCH  16  17
ATOM     17  C   UNL     1      -3.596  -9.518   1.354  0.00  0.00    -0.030 C 
ATOM     18  C   UNL     1      -2.904 -10.536   0.792  0.00  0.00    -0.000 A 
ATOM     19  C   UNL     1      -2.481 -10.809  -0.586  0.00  0.00    +0.010 A 
ATOM     20  C   UNL     1      -1.784 -11.939  -0.847  0.00  0.00    +0.001 A 
ATOM     21  C   UNL     1      -1.456 -12.852   0.165  0.00  0.00    +0.002 A 
ATOM     22  C   UNL     1      -1.809 -12.669   1.455  0.00  0.00    +0.026 A 
ATOM     23  C   UNL     1      -2.544 -11.516   1.842  0.00  0.00    +0.043 A 
ATOM     24  N   UNL     1      -2.997 -11.119   3.007  0.00  0.00    -0.378 N 
ATOM     25  C   UNL     1      -3.690  -9.839   2.829  0.00  0.00    +0.104 C 
ATOM     26  C   UNL     1      -5.155  -9.973   3.247  0.00  0.00    +0.035 C 
ATOM     27  H   UNL     1      -2.888 -11.592   3.847  0.00  0.00    +0.160 HD
ENDBRANCH  16  17
ENDBRANCH   2  16
TORSDOF 5
