REMARK  Name = ZINC13061812
REMARK  11 active torsions:
REMARK  status: ('A' for Active; 'I' for Inactive)
REMARK    1  A    between atoms: C_1  and  C_2
REMARK    2  A    between atoms: C_2  and  C_4
REMARK    3  A    between atoms: C_2  and  N_13
REMARK    4  A    between atoms: C_7  and  C_10
REMARK    5  A    between atoms: C_10  and  C_11
REMARK    6  A    between atoms: C_10  and  C_12
REMARK    7  A    between atoms: N_13  and  C_14
REMARK    8  A    between atoms: C_14  and  C_15
REMARK    9  A    between atoms: N_17  and  C_18
REMARK   10  A    between atoms: C_21  and  S_24
REMARK   11  A    between atoms: S_24  and  N_27
REMARK                            x       y       z     vdW  Elec       q    Type
REMARK                         _______ _______ _______ _____ _____    ______ ____
ROOT
ATOM      1  C   UNL     1       2.850  -0.580   2.344  0.00  0.00    +0.200 C 
ATOM      2  O   UNL     1       2.252  -1.206   3.193  0.00  0.00    -0.278 OA
ATOM      3  N   UNL     1       4.165  -0.324   2.495  0.00  0.00    -0.287 N 
ATOM      4  H   UNL     1       4.658   0.117   1.787  0.00  0.00    +0.155 HD
ENDROOT
BRANCH   3   5
ATOM      5  C   UNL     1       4.818  -0.696   3.676  0.00  0.00    +0.033 A 
ATOM      6  C   UNL     1       5.830   0.103   4.192  0.00  0.00    +0.025 A 
ATOM      7  C   UNL     1       6.473  -0.267   5.357  0.00  0.00    +0.031 A 
ATOM      8  C   UNL     1       6.110  -1.431   6.010  0.00  0.00    +0.113 A 
ATOM      9  C   UNL     1       5.103  -2.228   5.498  0.00  0.00    +0.031 A 
ATOM     10  C   UNL     1       4.452  -1.861   4.336  0.00  0.00    +0.025 A 
BRANCH   8  11
ATOM     11  S   UNL     1       6.933  -1.899   7.496  0.00  0.00    +0.100 S 
ATOM     12  O   UNL     1       6.782  -3.306   7.617  0.00  0.00    -0.146 OA
ATOM     13  O   UNL     1       8.206  -1.268   7.471  0.00  0.00    -0.146 OA
BRANCH  11  14
ATOM     14  N   UNL     1       6.094  -1.223   8.753  0.00  0.00    -0.118 NA
ATOM     15  C   UNL     1       6.490  -1.411   9.970  0.00  0.00    +0.117 C 
ATOM     16  C   UNL     1       7.733  -2.252  10.249  0.00  0.00    +0.073 C 
ATOM     17  C   UNL     1       8.808  -1.312  10.751  0.00  0.00    +0.008 C 
ATOM     18  C   UNL     1       8.779  -1.108  12.267  0.00  0.00    +0.002 C 
ATOM     19  C   UNL     1       7.365  -0.926  12.820  0.00  0.00    +0.019 C 
ATOM     20  C   UNL     1       6.503  -0.020  11.969  0.00  0.00    +0.102 C 
ATOM     21  N   UNL     1       5.823  -0.874  10.973  0.00  0.00    -0.331 N 
ATOM     22  H   UNL     1       4.872  -1.042  11.060  0.00  0.00    +0.147 HD
ENDBRANCH  11  14
ENDBRANCH   8  11
ENDBRANCH   3   5
BRANCH   1  23
ATOM     23  C   UNL     1       2.124  -0.088   1.119  0.00  0.00    +0.016 C 
BRANCH  23  24
ATOM     24  N   UNL     1       0.713  -0.493   1.190  0.00  0.00    +0.389 N 
ATOM     25  H   UNL     1       0.290  -0.094   2.015  0.00  0.00    -0.084 HD
ATOM     26  H   UNL     1       0.654  -1.499   1.235  0.00  0.00    -0.084 HD
BRANCH  24  28
ATOM     27  C   UNL     1      -0.013   1.516  -0.006  0.00  0.00    -0.009 C 
ATOM     28  C   UNL     1       0.005  -0.013  -0.004  0.00  0.00    -0.043 C 
BRANCH  28  29
ATOM     29  C   UNL     1      -1.410  -0.532   0.009  0.00  0.00    -0.062 A 
ATOM     30  C   UNL     1      -2.122  -0.568   1.194  0.00  0.00    +0.002 A 
ATOM     31  C   UNL     1      -3.420  -1.043   1.206  0.00  0.00    +0.004 A 
ATOM     32  C   UNL     1      -4.006  -1.483   0.034  0.00  0.00    -0.045 A 
ATOM     33  C   UNL     1      -3.294  -1.447  -1.151  0.00  0.00    +0.004 A 
ATOM     34  C   UNL     1      -1.998  -0.967  -1.164  0.00  0.00    +0.002 A 
BRANCH  32  35
ATOM     35  C   UNL     1      -5.420  -2.003   0.047  0.00  0.00    +0.013 C 
ATOM     36  C   UNL     1      -6.287  -1.147  -0.879  0.00  0.00    +0.012 C 
ATOM     37  C   UNL     1      -5.435  -3.454  -0.438  0.00  0.00    +0.012 C 
ENDBRANCH  32  35
ENDBRANCH  28  29
ENDBRANCH  24  28
ENDBRANCH  23  24
ENDBRANCH   1  23
TORSDOF 8
