REMARK  Name = ZINC63503457
REMARK  8 active torsions:
REMARK  status: ('A' for Active; 'I' for Inactive)
REMARK    1  A    between atoms: C_1  and  C_2
REMARK    2  A    between atoms: C_19  and  C_21
REMARK    3  A    between atoms: C_21  and  N_22
REMARK    4  A    between atoms: N_22  and  C_23
REMARK    5  A    between atoms: C_23  and  C_24
REMARK    6  A    between atoms: C_24  and  C_25
REMARK    7  A    between atoms: C_28  and  O_34
REMARK    8  A    between atoms: O_34  and  C_35
REMARK                            x       y       z     vdW  Elec       q    Type
REMARK                         _______ _______ _______ _____ _____    ______ ____
ROOT
ATOM      1  C   UNL     1       5.351   0.139  -0.640  0.00  0.00    -0.068 C 
ENDROOT
BRANCH   1  17
ATOM      2  C   UNL     1      -0.019   1.526   0.010  0.00  0.00    +0.012 C 
ATOM      3  C   UNL     1       0.002  -0.004   0.002  0.00  0.00    -0.022 C 
ATOM      4  C   UNL     1      -1.429  -0.537   0.016  0.00  0.00    +0.007 C 
ATOM      5  C   UNL     1      -2.179   0.028   1.224  0.00  0.00    +0.005 C 
ATOM      6  C   UNL     1      -1.516  -0.463   2.515  0.00  0.00    +0.030 C 
ATOM      7  C   UNL     1      -0.044  -0.113   2.469  0.00  0.00    -0.073 C 
ATOM      8  C   UNL     1       0.530   0.522   3.461  0.00  0.00    +0.008 C 
ATOM      9  C   UNL     1       0.744  -0.517   1.245  0.00  0.00    +0.021 C 
ATOM     10  C   UNL     1       2.120   0.142   1.282  0.00  0.00    +0.016 C 
ATOM     11  C   UNL     1       2.945  -0.268   0.060  0.00  0.00    +0.042 C 
ATOM     12  C   UNL     1       2.168  -0.009  -1.245  0.00  0.00    +0.181 C 
ATOM     13  C   UNL     1       0.755  -0.501  -1.232  0.00  0.00    +0.052 C 
ATOM     14  O   UNL     1       2.239   1.412  -1.407  0.00  0.00    -0.461 OA
ATOM     15  C   UNL     1       3.493   1.796  -1.078  0.00  0.00    +0.309 C 
ATOM     16  O   UNL     1       4.061   2.774  -1.502  0.00  0.00    -0.251 OA
ATOM     17  C   UNL     1       4.084   0.786  -0.078  0.00  0.00    +0.087 C 
ENDBRANCH   1  17
BRANCH   1  18
ATOM     18  N   UNL     1       6.442   1.123  -0.648  0.00  0.00    +0.380 N 
ATOM     19  H   UNL     1       6.181   1.909  -1.225  0.00  0.00    -0.086 HD
ATOM     20  H   UNL     1       6.615   1.440   0.293  0.00  0.00    -0.086 HD
BRANCH  18  21
ATOM     21  C   UNL     1       7.658   0.501  -1.188  0.00  0.00    -0.078 C 
BRANCH  21  22
ATOM     22  C   UNL     1       8.794   1.526  -1.197  0.00  0.00    +0.014 C 
BRANCH  22  23
ATOM     23  C   UNL     1      10.042   0.889  -1.751  0.00  0.00    -0.043 C 
ATOM     24  C   UNL     1      10.481   0.936  -3.029  0.00  0.00    +0.002 A 
ATOM     25  C   UNL     1       9.950   1.570  -4.240  0.00  0.00    +0.055 A 
ATOM     26  C   UNL     1      10.623   1.444  -5.409  0.00  0.00    +0.121 A 
ATOM     27  C   UNL     1      11.825   0.721  -5.509  0.00  0.00    +0.047 A 
ATOM     28  C   UNL     1      12.391   0.103  -4.450  0.00  0.00    +0.029 A 
ATOM     29  C   UNL     1      11.747   0.175  -3.135  0.00  0.00    +0.043 A 
ATOM     30  N   UNL     1      12.077  -0.323  -1.970  0.00  0.00    -0.380 N 
ATOM     31  C   UNL     1      11.061   0.071  -0.988  0.00  0.00    +0.144 C 
ATOM     32  H   UNL     1      12.864  -0.859  -1.785  0.00  0.00    +0.160 HD
BRANCH  26  33
ATOM     33  O   UNL     1      10.119   2.035  -6.524  0.00  0.00    -0.495 OA
ATOM     34  C   UNL     1      10.861   1.877  -7.735  0.00  0.00    +0.277 C 
ENDBRANCH  26  33
ENDBRANCH  22  23
ENDBRANCH  21  22
ENDBRANCH  18  21
ENDBRANCH   1  18
TORSDOF 6
