REMARK  Name = ZINC16901790
REMARK  6 active torsions:
REMARK  status: ('A' for Active; 'I' for Inactive)
REMARK    1  A    between atoms: C_1  and  C_2
REMARK    2  A    between atoms: C_4  and  O_28
REMARK    3  A    between atoms: C_7  and  N_8
REMARK    4  A    between atoms: C_12  and  N_16
REMARK    5  A    between atoms: N_16  and  C_17
REMARK    6  A    between atoms: C_22  and  C_23
REMARK                            x       y       z     vdW  Elec       q    Type
REMARK                         _______ _______ _______ _____ _____    ______ ____
ROOT
ATOM      1  N   UNL     1       0.025  -0.010   2.419  0.00  0.00    -0.209 N 
ATOM      2  C   UNL     1      -1.099   0.329   3.062  0.00  0.00    +0.228 C 
ATOM      3  O   UNL     1      -2.225   0.085   2.684  0.00  0.00    -0.275 OA
ATOM      4  C   UNL     1      -0.743   1.063   4.336  0.00  0.00    +0.128 C 
ATOM      5  C   UNL     1       0.799   1.091   4.318  0.00  0.00    +0.166 C 
ATOM      6  C   UNL     1       1.152   0.364   3.038  0.00  0.00    +0.247 C 
ATOM      7  O   UNL     1       2.276   0.156   2.636  0.00  0.00    -0.273 OA
ENDROOT
BRANCH   1  14
ATOM      8  C   UNL     1      -0.018   1.503   0.010  0.00  0.00    +0.046 C 
ATOM      9  C   UNL     1       0.002  -0.004   0.002  0.00  0.00    -0.025 A 
ATOM     10  C   UNL     1       0.006  -0.688  -1.198  0.00  0.00    +0.050 A 
ATOM     11  C   UNL     1       0.025  -2.075  -1.205  0.00  0.00    +0.117 A 
ATOM     12  C   UNL     1       0.040  -2.776  -0.008  0.00  0.00    +0.047 A 
ATOM     13  C   UNL     1       0.036  -2.093   1.192  0.00  0.00    +0.028 A 
ATOM     14  C   UNL     1       0.023  -0.705   1.200  0.00  0.00    +0.047 A 
BRANCH  11  15
ATOM     15  O   UNL     1       0.027  -2.748  -2.387  0.00  0.00    -0.507 OA
ATOM     16  H   UNL     1       0.911  -2.931  -2.733  0.00  0.00    +0.292 HD
ENDBRANCH  11  15
ENDBRANCH   1  14
BRANCH   5  17
ATOM     17  N   UNL     1       1.342   0.381   5.479  0.00  0.00    -0.332 N 
ATOM     18  H   UNL     1       0.817  -0.310   5.913  0.00  0.00    +0.147 HD
BRANCH  17  19
ATOM     19  C   UNL     1       2.615   0.699   5.960  0.00  0.00    +0.040 A 
ATOM     20  C   UNL     1       3.364   1.692   5.342  0.00  0.00    +0.025 A 
ATOM     21  C   UNL     1       4.622   2.004   5.820  0.00  0.00    +0.022 A 
ATOM     22  C   UNL     1       5.135   1.329   6.914  0.00  0.00    +0.042 A 
ATOM     23  C   UNL     1       4.391   0.339   7.531  0.00  0.00    +0.034 A 
ATOM     24  C   UNL     1       3.130   0.026   7.060  0.00  0.00    +0.077 A 
ATOM     25 CL   UNL     1       6.716   1.723   7.511  0.00  0.00    -0.084 Cl
BRANCH  24  26
ATOM     26  C   UNL     1       2.317  -1.047   7.737  0.00  0.00    +0.419 C 
ATOM     27  F   UNL     1       3.042  -1.574   8.811  0.00  0.00    -0.166 F 
ATOM     28  F   UNL     1       1.119  -0.498   8.207  0.00  0.00    -0.166 F 
ATOM     29  F   UNL     1       2.035  -2.066   6.821  0.00  0.00    -0.166 F 
ENDBRANCH  24  26
ENDBRANCH  17  19
ENDBRANCH   5  17
TORSDOF 5
