REMARK  Name = ZINC38702102
REMARK  11 active torsions:
REMARK  status: ('A' for Active; 'I' for Inactive)
REMARK    1  A    between atoms: C_1  and  C_2
REMARK    2  A    between atoms: C_2  and  O_3
REMARK    3  A    between atoms: O_3  and  C_4
REMARK    4  A    between atoms: C_7  and  C_12
REMARK    5  A    between atoms: C_9  and  O_10
REMARK    6  A    between atoms: O_10  and  C_11
REMARK    7  A    between atoms: C_15  and  C_31
REMARK    8  A    between atoms: N_22  and  C_23
REMARK    9  A    between atoms: C_33  and  C_39
REMARK   10  A    between atoms: C_35  and  C_38
REMARK   11  A    between atoms: C_36  and  O_37
REMARK                            x       y       z     vdW  Elec       q    Type
REMARK                         _______ _______ _______ _____ _____    ______ ____
ROOT
ATOM      1  C   UNL     1       0.457  -5.660   1.788  0.00  0.00    +0.142 C 
ATOM      2  C   UNL     1       1.459  -6.584   1.153  0.00  0.00    +0.035 A 
ATOM      3  C   UNL     1       2.805  -6.918   0.970  0.00  0.00    +0.102 A 
ATOM      4  N   UNL     1       2.846  -7.979   0.188  0.00  0.00    -0.173 NA
ATOM      5  N   UNL     1       1.659  -8.348  -0.141  0.00  0.00    -0.272 N 
ATOM      6  H   UNL     1       1.449  -9.104  -0.710  0.00  0.00    +0.189 HD
ATOM      7  C   UNL     1       0.739  -7.516   0.430  0.00  0.00    +0.126 A 
ATOM      8  C   UNL     1      -0.691  -7.220   0.581  0.00  0.00    +0.266 C 
ATOM      9  O   UNL     1      -1.590  -7.857   0.067  0.00  0.00    -0.268 OA
ATOM     10  N   UNL     1      -0.866  -6.142   1.370  0.00  0.00    -0.280 N 
ENDROOT
BRANCH   3  11
ATOM     11  C   UNL     1       3.973  -6.209   1.550  0.00  0.00    +0.044 A 
ATOM     12  C   UNL     1       3.781  -5.182   2.470  0.00  0.00    +0.017 A 
ATOM     13  C   UNL     1       4.870  -4.525   3.006  0.00  0.00    -0.049 A 
ATOM     14  C   UNL     1       6.153  -4.883   2.633  0.00  0.00    +0.010 A 
ATOM     15  C   UNL     1       6.355  -5.901   1.720  0.00  0.00    -0.008 A 
ATOM     16  C   UNL     1       5.270  -6.573   1.179  0.00  0.00    +0.129 A 
ATOM     17  C   UNL     1       7.755  -6.286   1.318  0.00  0.00    +0.047 C 
ATOM     18  C   UNL     1       4.660  -3.413   4.002  0.00  0.00    +0.044 C 
BRANCH  16  19
ATOM     19  O   UNL     1       5.467  -7.578   0.286  0.00  0.00    -0.506 OA
ATOM     20  H   UNL     1       5.499  -7.286  -0.635  0.00  0.00    +0.292 HD
ENDBRANCH  16  19
ENDBRANCH   3  11
BRANCH  10  21
ATOM     21  C   UNL     1      -2.153  -5.553   1.746  0.00  0.00    +0.100 C 
ATOM     22  C   UNL     1      -3.014  -6.602   2.467  0.00  0.00    +0.047 C 
ATOM     23  C   UNL     1      -4.474  -6.099   2.581  0.00  0.00    +0.168 C 
ATOM     24  S   UNL     1      -4.635  -4.993   1.121  0.00  0.00    -0.029 S 
ATOM     25  O   UNL     1      -5.521  -5.590   0.184  0.00  0.00    -0.174 OA
ATOM     26  O   UNL     1      -4.881  -3.667   1.570  0.00  0.00    -0.174 OA
ATOM     27  C   UNL     1      -2.915  -5.096   0.469  0.00  0.00    +0.188 C 
ENDBRANCH  10  21
BRANCH   1  31
ATOM     28  C   UNL     1       1.069  -1.656   0.418  0.00  0.00    +0.162 A 
ATOM     29  C   UNL     1       1.358  -1.994   1.731  0.00  0.00    +0.050 A 
ATOM     30  C   UNL     1       1.159  -3.289   2.171  0.00  0.00    +0.009 A 
ATOM     31  C   UNL     1       0.672  -4.250   1.304  0.00  0.00    -0.019 A 
ATOM     32  C   UNL     1       0.382  -3.919  -0.007  0.00  0.00    +0.055 A 
ATOM     33  C   UNL     1       0.574  -2.621  -0.453  0.00  0.00    +0.162 A 
BRANCH  33  34
ATOM     34  O   UNL     1       0.283  -2.293  -1.740  0.00  0.00    -0.491 OA
ATOM     35  C   UNL     1      -0.287  -3.316  -2.558  0.00  0.00    +0.277 C 
ENDBRANCH  33  34
BRANCH  28  36
ATOM     36  O   UNL     1       1.265  -0.382  -0.016  0.00  0.00    -0.489 OA
BRANCH  36  38
ATOM     37  C   UNL     1       1.928   1.925   0.267  0.00  0.00    +0.048 C 
ATOM     38  C   UNL     1       1.776   0.556   0.933  0.00  0.00    +0.226 C 
ENDBRANCH  36  38
ENDBRANCH  28  36
ENDBRANCH   1  31
TORSDOF 7
