REMARK  Name = ZINC55100393
REMARK  8 active torsions:
REMARK  status: ('A' for Active; 'I' for Inactive)
REMARK    1  A    between atoms: C_4  and  N_20
REMARK    2  A    between atoms: C_5  and  C_7
REMARK    3  A    between atoms: C_8  and  C_9
REMARK    4  A    between atoms: C_16  and  O_19
REMARK    5  A    between atoms: C_21  and  C_23
REMARK    6  A    between atoms: C_23  and  C_25
REMARK    7  A    between atoms: C_23  and  N_32
REMARK    8  A    between atoms: C_25  and  C_26
REMARK                            x       y       z     vdW  Elec       q    Type
REMARK                         _______ _______ _______ _____ _____    ______ ____
ROOT
ATOM      1  C   UNL     1      -0.008   1.389   0.035  0.00  0.00    +0.001 A 
ATOM      2  C   UNL     1       1.181   2.100   0.023  0.00  0.00    +0.002 A 
ATOM      3  C   UNL     1       2.392   1.436  -0.001  0.00  0.00    +0.024 A 
ATOM      4  C   UNL     1       2.425   0.050  -0.013  0.00  0.00    +0.041 A 
ATOM      5  C   UNL     1       1.223  -0.674  -0.000  0.00  0.00    -0.004 A 
ATOM      6  C   UNL     1       0.005   0.011   0.023  0.00  0.00    +0.010 A 
ENDROOT
BRANCH   4   7
ATOM      7  N   UNL     1       3.648  -0.622  -0.037  0.00  0.00    -0.286 N 
ATOM      8  C   UNL     1       4.690  -0.101  -0.715  0.00  0.00    +0.203 C 
ATOM      9  O   UNL     1       4.591   0.991  -1.234  0.00  0.00    -0.277 OA
ATOM     10  H   UNL     1       3.748  -1.464   0.433  0.00  0.00    +0.155 HD
BRANCH   8  11
ATOM     11  C   UNL     1       5.979  -0.874  -0.827  0.00  0.00    +0.019 C 
BRANCH  11  12
ATOM     12  N   UNL     1       6.760  -0.362  -1.961  0.00  0.00    +0.386 N 
ATOM     13  H   UNL     1       7.623  -0.880  -2.036  0.00  0.00    -0.089 HD
ATOM     14  H   UNL     1       6.229  -0.470  -2.811  0.00  0.00    -0.089 HD
ATOM     15  H   UNL     1       6.966   0.615  -1.814  0.00  0.00    -0.089 HD
ENDBRANCH  11  12
BRANCH  11  16
ATOM     16  C   UNL     1       6.785  -0.711   0.463  0.00  0.00    +0.050 C 
BRANCH  16  17
ATOM     17  C   UNL     1       8.014  -1.581   0.401  0.00  0.00    +0.058 A 
ATOM     18  C   UNL     1       9.285  -1.169   0.571  0.00  0.00    +0.107 A 
ATOM     19  N   UNL     1      10.082  -2.273   0.434  0.00  0.00    -0.351 N 
ATOM     20  H   UNL     1      11.049  -2.298   0.504  0.00  0.00    +0.166 HD
ATOM     21  C   UNL     1       9.269  -3.323   0.185  0.00  0.00    +0.196 A 
ATOM     22  N   UNL     1       8.034  -2.902   0.172  0.00  0.00    -0.241 NA
ENDBRANCH  16  17
ENDBRANCH  11  16
ENDBRANCH   8  11
ENDBRANCH   4   7
BRANCH   5  23
ATOM     23  C   UNL     1       1.244  -2.146  -0.013  0.00  0.00    +0.012 C 
ATOM     24  C   UNL     1       0.090  -2.835  -0.001  0.00  0.00    +0.028 C 
BRANCH  24  25
ATOM     25  C   UNL     1       0.111  -4.306  -0.014  0.00  0.00    +0.065 A 
ATOM     26  C   UNL     1      -1.106  -5.013  -0.007  0.00  0.00    +0.028 A 
ATOM     27  C   UNL     1      -1.098  -6.375  -0.019  0.00  0.00    +0.012 A 
ATOM     28  C   UNL     1       0.147  -7.037  -0.039  0.00  0.00    +0.004 A 
ATOM     29  C   UNL     1       0.225  -8.438  -0.052  0.00  0.00    +0.010 A 
ATOM     30  C   UNL     1       1.443  -9.048  -0.071  0.00  0.00    +0.004 A 
ATOM     31  C   UNL     1       2.618  -8.301  -0.077  0.00  0.00    +0.047 A 
ATOM     32  C   UNL     1       2.583  -6.936  -0.064  0.00  0.00    +0.143 A 
ATOM     33  C   UNL     1       1.338  -6.270  -0.045  0.00  0.00    +0.113 A 
ATOM     34  N   UNL     1       1.274  -4.937  -0.037  0.00  0.00    -0.244 NA
BRANCH  32  35
ATOM     35  O   UNL     1       3.739  -6.223  -0.068  0.00  0.00    -0.505 OA
ATOM     36  H   UNL     1       4.065  -6.008  -0.953  0.00  0.00    +0.292 HD
ENDBRANCH  32  35
ENDBRANCH  24  25
ENDBRANCH   5  23
TORSDOF 8
