REMARK  Name = ZINC43297032
REMARK  10 active torsions:
REMARK  status: ('A' for Active; 'I' for Inactive)
REMARK    1  A    between atoms: C_1  and  C_2
REMARK    2  A    between atoms: C_2  and  C_3
REMARK    3  A    between atoms: C_3  and  C_5
REMARK    4  A    between atoms: C_3  and  N_19
REMARK    5  A    between atoms: C_5  and  C_7
REMARK    6  A    between atoms: C_5  and  O_11
REMARK    7  A    between atoms: C_7  and  C_8
REMARK    8  A    between atoms: C_7  and  C_9
REMARK    9  A    between atoms: C_7  and  C_10
REMARK   10  A    between atoms: O_11  and  C_12
REMARK                            x       y       z     vdW  Elec       q    Type
REMARK                         _______ _______ _______ _____ _____    ______ ____
ROOT
ATOM      1  C   UNL     1       0.184  -2.704  -1.059  0.00  0.00    +0.164 C 
ENDROOT
BRANCH   1   2
ATOM      2  C   UNL     1       1.194  -3.360  -2.002  0.00  0.00    -0.002 C 
ATOM      3  C   UNL     1       2.602  -2.866  -1.666  0.00  0.00    +0.014 C 
ATOM      4  C   UNL     1       1.133  -4.880  -1.837  0.00  0.00    +0.014 C 
ATOM      5  C   UNL     1       0.856  -2.990  -3.448  0.00  0.00    +0.014 C 
ENDBRANCH   1   2
BRANCH   1   6
ATOM      6  C   UNL     1       0.440  -1.197  -1.005  0.00  0.00    -0.033 C 
BRANCH   6   7
ATOM      7  N   UNL     1       0.073  -0.592  -2.293  0.00  0.00    +0.382 N 
ATOM      8  H   UNL     1       0.031   0.412  -2.193  0.00  0.00    -0.089 HD
ATOM      9  H   UNL     1       0.764  -0.832  -2.987  0.00  0.00    -0.089 HD
ATOM     10  H   UNL     1      -0.829  -0.939  -2.582  0.00  0.00    -0.089 HD
ENDBRANCH   6   7
BRANCH   6  12
ATOM     11  C   UNL     1      -0.054   0.909   0.245  0.00  0.00    +0.002 C 
ATOM     12  C   UNL     1      -0.403  -0.575   0.110  0.00  0.00    -0.016 C 
ENDBRANCH   6  12
ENDBRANCH   1   6
BRANCH   1  13
ATOM     13  O   UNL     1       0.326  -3.258   0.251  0.00  0.00    -0.490 OA
BRANCH  13  14
ATOM     14  C   UNL     1      -0.546  -4.239   0.604  0.00  0.00    +0.121 A 
ATOM     15  C   UNL     1      -0.576  -4.705   1.910  0.00  0.00    +0.046 A 
ATOM     16  C   UNL     1      -1.463  -5.702   2.267  0.00  0.00    +0.018 A 
ATOM     17  C   UNL     1      -2.321  -6.236   1.322  0.00  0.00    +0.014 A 
ATOM     18  C   UNL     1      -2.292  -5.773   0.019  0.00  0.00    +0.018 A 
ATOM     19  C   UNL     1      -1.411  -4.773  -0.341  0.00  0.00    +0.046 A 
ATOM     20  I   UNL     1      -3.664  -7.749   1.866  0.00  0.00    -0.044 I 
ENDBRANCH  13  14
ENDBRANCH   1  13
TORSDOF 6
