REMARK  Name = ZINC03357370
REMARK  7 active torsions:
REMARK  status: ('A' for Active; 'I' for Inactive)
REMARK    1  A    between atoms: C_1  and  N_2
REMARK    2  A    between atoms: C_11  and  C_13
REMARK    3  A    between atoms: C_13  and  O_15
REMARK    4  A    between atoms: O_15  and  C_16
REMARK    5  A    between atoms: C_16  and  C_17
REMARK    6  A    between atoms: C_20  and  C_35
REMARK    7  A    between atoms: C_23  and  C_25
REMARK                            x       y       z     vdW  Elec       q    Type
REMARK                         _______ _______ _______ _____ _____    ______ ____
ROOT
ATOM      1  C   UNL     1       6.092  -1.282  -0.035  0.00  0.00    +0.270 C 
ATOM      2  O   UNL     1       5.800  -0.105  -0.027  0.00  0.00    -0.270 OA
ATOM      3  N   UNL     1       7.387  -1.656  -0.043  0.00  0.00    -0.208 N 
ATOM      4  C   UNL     1       8.563  -0.771  -0.038  0.00  0.00    +0.152 C 
ATOM      5  C   UNL     1       9.750  -1.709  -0.052  0.00  0.00    +0.027 C 
ATOM      6  C   UNL     1       9.274  -2.951  -0.062  0.00  0.00    +0.050 C 
ATOM      7  N   UNL     1       7.886  -2.965  -0.052  0.00  0.00    -0.261 N 
ATOM      8  H   UNL     1       7.340  -3.767  -0.054  0.00  0.00    +0.170 HD
ENDROOT
BRANCH   6   9
ATOM      9  C   UNL     1      10.120  -4.167  -0.078  0.00  0.00    -0.002 A 
ATOM     10  C   UNL     1      11.520  -4.042  -0.076  0.00  0.00    +0.010 A 
ATOM     11  C   UNL     1      12.317  -5.141  -0.090  0.00  0.00    +0.009 A 
ATOM     12  C   UNL     1      11.743  -6.426  -0.106  0.00  0.00    -0.018 A 
ATOM     13  C   UNL     1      12.547  -7.579  -0.119  0.00  0.00    +0.008 A 
ATOM     14  C   UNL     1      11.963  -8.808  -0.134  0.00  0.00    +0.001 A 
ATOM     15  C   UNL     1      10.576  -8.944  -0.136  0.00  0.00    +0.001 A 
ATOM     16  C   UNL     1       9.765  -7.851  -0.124  0.00  0.00    +0.008 A 
ATOM     17  C   UNL     1      10.332  -6.564  -0.108  0.00  0.00    -0.017 A 
ATOM     18  C   UNL     1       9.525  -5.416  -0.088  0.00  0.00    +0.018 A 
ENDBRANCH   6   9
BRANCH   4  19
ATOM     19  C   UNL     1       8.576   0.078   1.206  0.00  0.00    -0.021 A 
ATOM     20  C   UNL     1       8.214  -0.472   2.422  0.00  0.00    +0.006 A 
ATOM     21  C   UNL     1       8.226   0.307   3.564  0.00  0.00    +0.000 A 
ATOM     22  C   UNL     1       8.600   1.636   3.490  0.00  0.00    +0.000 A 
ATOM     23  C   UNL     1       8.963   2.186   2.275  0.00  0.00    +0.000 A 
ATOM     24  C   UNL     1       8.955   1.406   1.134  0.00  0.00    +0.006 A 
ENDBRANCH   4  19
BRANCH   1  25
ATOM     25  C   UNL     1       5.006  -2.328  -0.035  0.00  0.00    +0.329 C 
BRANCH  25  26
ATOM     26  O   UNL     1       3.728  -1.688  -0.025  0.00  0.00    -0.451 OA
BRANCH  26  27
ATOM     27  C   UNL     1       2.644  -2.487  -0.025  0.00  0.00    +0.360 C 
ATOM     28  O   UNL     1       2.779  -3.695  -0.032  0.00  0.00    -0.243 OA
BRANCH  27  39
ATOM     29  C   UNL     1      -0.018   1.461   0.010  0.00  0.00    +0.176 C 
ATOM     30  N   UNL     1       0.002  -0.004   0.002  0.00  0.00    -0.231 N 
ATOM     31  C   UNL     1      -1.177  -0.658   0.004  0.00  0.00    +0.275 A 
ATOM     32  O   UNL     1      -2.229  -0.046   0.012  0.00  0.00    -0.266 OA
ATOM     33  C   UNL     1      -1.163  -2.128  -0.004  0.00  0.00    +0.050 A 
ATOM     34  C   UNL     1      -2.324  -2.895  -0.002  0.00  0.00    +0.014 A 
ATOM     35  C   UNL     1      -2.225  -4.270  -0.009  0.00  0.00    +0.001 A 
ATOM     36  C   UNL     1      -0.984  -4.892  -0.019  0.00  0.00    +0.001 A 
ATOM     37  C   UNL     1       0.178  -4.150  -0.020  0.00  0.00    +0.011 A 
ATOM     38  C   UNL     1       0.101  -2.761  -0.013  0.00  0.00    +0.021 A 
ATOM     39  C   UNL     1       1.292  -1.896  -0.015  0.00  0.00    +0.176 A 
ATOM     40  N   UNL     1       1.137  -0.594  -0.012  0.00  0.00    -0.161 NA
ENDBRANCH  27  39
ENDBRANCH  26  27
ENDBRANCH  25  26
ENDBRANCH   1  25
TORSDOF 6
