REMARK  Name = ZINC40147960
REMARK  5 active torsions:
REMARK  status: ('A' for Active; 'I' for Inactive)
REMARK    1  A    between atoms: C_1  and  C_2
REMARK    2  A    between atoms: C_5  and  N_9
REMARK    3  A    between atoms: C_6  and  C_8
REMARK    4  A    between atoms: C_10  and  C_20
REMARK    5  A    between atoms: C_15  and  C_18
REMARK                            x       y       z     vdW  Elec       q    Type
REMARK                         _______ _______ _______ _____ _____    ______ ____
ROOT
ATOM      1  N   UNL     1       0.126  -4.286   0.013  0.00  0.00    -0.270 N 
ATOM      2  C   UNL     1      -1.189  -4.932   0.086  0.00  0.00    +0.198 C 
ATOM      3  N   UNL     1      -1.162  -5.998   1.089  0.00  0.00    -0.288 N 
ATOM      4  C   UNL     1      -0.025  -6.678   1.337  0.00  0.00    +0.258 C 
ATOM      5  O   UNL     1      -0.021  -7.592   2.142  0.00  0.00    -0.269 OA
ATOM      6  C   UNL     1       1.206  -6.311   0.633  0.00  0.00    +0.142 C 
ATOM      7  C   UNL     1       1.248  -5.074  -0.038  0.00  0.00    +0.103 C 
ATOM      8  S   UNL     1       2.690  -4.552  -0.906  0.00  0.00    -0.033 SA
ATOM      9  H   UNL     1      -1.970  -6.218   1.579  0.00  0.00    +0.151 HD
ENDROOT
BRANCH   2  10
ATOM     10  C   UNL     1      -1.534  -5.519  -1.259  0.00  0.00    -0.001 A 
ATOM     11  C   UNL     1      -1.253  -6.824  -1.528  0.00  0.00    +0.008 A 
ATOM     12  C   UNL     1      -1.564  -7.384  -2.766  0.00  0.00    +0.001 A 
ATOM     13  C   UNL     1      -2.158  -6.643  -3.741  0.00  0.00    +0.008 A 
ATOM     14  C   UNL     1      -2.463  -5.293  -3.500  0.00  0.00    -0.018 A 
ATOM     15  C   UNL     1      -2.152  -4.725  -2.239  0.00  0.00    -0.011 A 
ATOM     16  C   UNL     1      -2.463  -3.376  -1.996  0.00  0.00    +0.009 A 
ATOM     17  C   UNL     1      -3.062  -2.637  -2.969  0.00  0.00    +0.001 A 
ATOM     18  C   UNL     1      -3.374  -3.198  -4.206  0.00  0.00    +0.001 A 
ATOM     19  C   UNL     1      -3.075  -4.497  -4.482  0.00  0.00    +0.008 A 
ENDBRANCH   2  10
BRANCH   1  24
ATOM     20  C   UNL     1       0.559   1.369  -0.079  0.00  0.00    +0.044 C 
ATOM     21  C   UNL     1       0.444  -0.134  -0.055  0.00  0.00    -0.050 A 
ATOM     22  C   UNL     1       0.439  -0.845  -1.241  0.00  0.00    +0.005 A 
ATOM     23  C   UNL     1       0.333  -2.221  -1.222  0.00  0.00    +0.024 A 
ATOM     24  C   UNL     1       0.233  -2.892  -0.010  0.00  0.00    +0.039 A 
ATOM     25  C   UNL     1       0.239  -2.175   1.180  0.00  0.00    -0.029 A 
ATOM     26  C   UNL     1       0.350  -0.799   1.154  0.00  0.00    +0.008 A 
ATOM     27  C   UNL     1       0.130  -2.899   2.497  0.00  0.00    +0.045 C 
ENDBRANCH   1  24
BRANCH   6  28
ATOM     28  C   UNL     1       2.337  -7.190   0.623  0.00  0.00    +0.107 C 
ATOM     29  N   UNL     1       3.234  -7.887   0.615  0.00  0.00    -0.191 NA
ENDBRANCH   6  28
TORSDOF 3
