REMARK  Name = ZINC13139044
REMARK  10 active torsions:
REMARK  status: ('A' for Active; 'I' for Inactive)
REMARK    1  A    between atoms: C_1  and  C_2
REMARK    2  A    between atoms: C_2  and  N_3
REMARK    3  A    between atoms: N_3  and  C_4
REMARK    4  A    between atoms: N_3  and  C_6
REMARK    5  A    between atoms: C_4  and  C_5
REMARK    6  A    between atoms: C_9  and  C_12
REMARK    7  A    between atoms: C_20  and  O_33
REMARK    8  A    between atoms: C_23  and  C_24
REMARK    9  A    between atoms: C_23  and  N_69
REMARK   10  A    between atoms: N_26  and  C_27
REMARK                            x       y       z     vdW  Elec       q    Type
REMARK                         _______ _______ _______ _____ _____    ______ ____
ROOT
ATOM      1  C   UNL     1      -0.515   1.335  -2.127  0.00  0.00    -0.031 C 
ATOM      2  C   UNL     1      -1.467   1.918  -3.172  0.00  0.00    +0.011 C 
ATOM      3  C   UNL     1      -1.019   1.507  -4.575  0.00  0.00    +0.005 C 
ATOM      4  C   UNL     1      -1.988   2.093  -5.606  0.00  0.00    +0.000 C 
ATOM      5  C   UNL     1      -1.996   3.618  -5.495  0.00  0.00    +0.003 C 
ATOM      6  C   UNL     1      -2.433   4.030  -4.087  0.00  0.00    +0.035 C 
ATOM      7  C   UNL     1      -1.456   3.446  -3.066  0.00  0.00    +0.066 C 
ATOM      8  C   UNL     1      -1.875   3.851  -1.651  0.00  0.00    +0.016 C 
ATOM      9  C   UNL     1      -0.918   3.211  -0.642  0.00  0.00    -0.075 C 
ATOM     10  N   UNL     1      -0.980   1.740  -0.782  0.00  0.00    +0.390 N 
ATOM     11  H   UNL     1      -1.953   1.435  -0.660  0.00  0.00    -0.080 HD
ENDROOT
BRANCH   1  15
ATOM     12  C   UNL     1       3.447   2.768  -2.847  0.00  0.00    +0.030 A 
ATOM     13  C   UNL     1       2.825   3.021  -1.630  0.00  0.00    +0.023 A 
ATOM     14  C   UNL     1       1.545   2.556  -1.401  0.00  0.00    +0.004 A 
ATOM     15  C   UNL     1       0.882   1.840  -2.381  0.00  0.00    -0.060 A 
ATOM     16  C   UNL     1       1.500   1.582  -3.591  0.00  0.00    +0.004 A 
ATOM     17  C   UNL     1       2.778   2.049  -3.829  0.00  0.00    +0.023 A 
BRANCH  12  18
ATOM     18  N   UNL     1       4.742   3.236  -3.082  0.00  0.00    -0.330 N 
BRANCH  18  20
ATOM     19  C   UNL     1       5.083   4.103  -5.343  0.00  0.00    +0.024 C 
ATOM     20  C   UNL     1       5.395   2.969  -4.365  0.00  0.00    +0.102 C 
ENDBRANCH  18  20
BRANCH  18  21
ATOM     21  C   UNL     1       5.446   3.994  -2.045  0.00  0.00    +0.102 C 
ATOM     22  C   UNL     1       6.231   3.031  -1.153  0.00  0.00    +0.024 C 
ENDBRANCH  18  21
ENDBRANCH  12  18
ENDBRANCH   1  15
BRANCH   7  23
ATOM     23  O   UNL     1      -0.140   3.935  -3.331  0.00  0.00    -0.388 OA
ATOM     24  H   UNL     1      -0.058   4.896  -3.274  0.00  0.00    +0.210 HD
ENDBRANCH   7  23
BRANCH  10  25
ATOM     25  C   UNL     1      -0.144   1.100   0.254  0.00  0.00    +0.020 C 
BRANCH  25  26
ATOM     26  C   UNL     1      -0.806   1.290   1.595  0.00  0.00    +0.201 C 
ATOM     27  O   UNL     1      -1.847   1.907   1.675  0.00  0.00    -0.278 OA
ATOM     28  N   UNL     1      -0.240   0.775   2.704  0.00  0.00    -0.287 N 
ATOM     29  H   UNL     1       0.627   0.344   2.652  0.00  0.00    +0.155 HD
BRANCH  28  30
ATOM     30  C   UNL     1      -0.905   0.862   3.933  0.00  0.00    +0.033 A 
ATOM     31  C   UNL     1      -0.179   0.875   5.117  0.00  0.00    +0.023 A 
ATOM     32  C   UNL     1      -0.838   0.966   6.328  0.00  0.00    +0.002 A 
ATOM     33  C   UNL     1      -2.219   1.033   6.362  0.00  0.00    +0.000 A 
ATOM     34  C   UNL     1      -2.944   1.014   5.185  0.00  0.00    +0.002 A 
ATOM     35  C   UNL     1      -2.291   0.929   3.971  0.00  0.00    +0.023 A 
ENDBRANCH  28  30
ENDBRANCH  25  26
ENDBRANCH  10  25
TORSDOF 8
