REMARK  Name = ZINC63194197
REMARK  6 active torsions:
REMARK  status: ('A' for Active; 'I' for Inactive)
REMARK    1  A    between atoms: C_7  and  C_10
REMARK    2  A    between atoms: C_10  and  C_11
REMARK    3  A    between atoms: C_11  and  C_13
REMARK    4  A    between atoms: C_11  and  N_27
REMARK    5  A    between atoms: N_15  and  C_16
REMARK    6  A    between atoms: C_28  and  C_30
REMARK                            x       y       z     vdW  Elec       q    Type
REMARK                         _______ _______ _______ _____ _____    ______ ____
ROOT
ATOM      1  C   UNL     1       0.464  -3.680  -1.300  0.00  0.00    +0.163 C 
ENDROOT
BRANCH   1   2
ATOM      2  C   UNL     1      -0.582  -4.764  -1.303  0.00  0.00    +0.238 C 
ATOM      3  O   UNL     1      -0.250  -5.928  -1.223  0.00  0.00    -0.273 OA
ATOM      4  N   UNL     1      -1.887  -4.441  -1.394  0.00  0.00    -0.284 N 
ATOM      5  H   UNL     1      -2.158  -3.510  -1.381  0.00  0.00    +0.155 HD
BRANCH   4   6
ATOM      6  C   UNL     1      -2.853  -5.450  -1.508  0.00  0.00    +0.037 A 
ATOM      7  C   UNL     1      -4.109  -5.275  -0.943  0.00  0.00    +0.027 A 
ATOM      8  C   UNL     1      -5.064  -6.269  -1.054  0.00  0.00    +0.051 A 
ATOM      9  C   UNL     1      -4.765  -7.439  -1.731  0.00  0.00    +0.162 A 
ATOM     10  C   UNL     1      -3.511  -7.616  -2.297  0.00  0.00    +0.164 A 
ATOM     11  C   UNL     1      -2.554  -6.622  -2.192  0.00  0.00    +0.072 A 
ATOM     12  O   UNL     1      -3.229  -8.774  -2.963  0.00  0.00    -0.488 OA
ATOM     13  C   UNL     1      -3.149  -9.953  -2.160  0.00  0.00    +0.232 C 
ATOM     14  C   UNL     1      -4.529 -10.549  -1.937  0.00  0.00    +0.082 C 
ATOM     15  C   UNL     1      -5.433  -9.631  -1.129  0.00  0.00    +0.232 C 
ATOM     16  O   UNL     1      -5.703  -8.425  -1.847  0.00  0.00    -0.488 OA
ENDBRANCH   4   6
ENDBRANCH   1   2
BRANCH   1  17
ATOM     17  N   UNL     1       1.761  -4.252  -1.670  0.00  0.00    -0.299 N 
ATOM     18  C   UNL     1       2.305  -5.231  -0.920  0.00  0.00    +0.251 C 
ATOM     19  O   UNL     1       1.718  -5.640   0.065  0.00  0.00    -0.270 OA
ATOM     20  H   UNL     1       2.229  -3.926  -2.455  0.00  0.00    +0.150 HD
BRANCH  18  21
ATOM     21  C   UNL     1       3.603  -5.803  -1.290  0.00  0.00    +0.074 A 
ATOM     22  C   UNL     1       4.325  -6.808  -0.666  0.00  0.00    +0.021 A 
ATOM     23  C   UNL     1       5.524  -7.135  -1.252  0.00  0.00    +0.008 A 
ATOM     24  C   UNL     1       5.912  -6.473  -2.371  0.00  0.00    +0.046 A 
ATOM     25  S   UNL     1       4.660  -5.393  -2.666  0.00  0.00    -0.092 S 
ENDBRANCH  18  21
ENDBRANCH   1  17
BRANCH   1  26
ATOM     26  C   UNL     1       0.558  -3.066   0.098  0.00  0.00    +0.065 C 
BRANCH  26  33
ATOM     27  C   UNL     1      -0.070   1.451  -0.411  0.00  0.00    +0.001 A 
ATOM     28  C   UNL     1       1.119   2.192  -0.374  0.00  0.00    +0.002 A 
ATOM     29  C   UNL     1       2.329   1.619  -0.203  0.00  0.00    +0.026 A 
ATOM     30  C   UNL     1       2.443   0.210  -0.052  0.00  0.00    +0.043 A 
ATOM     31  N   UNL     1       3.483  -0.568   0.123  0.00  0.00    -0.380 N 
ATOM     32  C   UNL     1       3.019  -1.956   0.218  0.00  0.00    +0.144 C 
ATOM     33  C   UNL     1       1.514  -1.901   0.072  0.00  0.00    -0.039 C 
ATOM     34  C   UNL     1       1.201  -0.595  -0.087  0.00  0.00    -0.001 A 
ATOM     35  C   UNL     1      -0.075   0.105  -0.277  0.00  0.00    +0.010 A 
ATOM     36  H   UNL     1       4.407  -0.275   0.180  0.00  0.00    +0.160 HD
ENDBRANCH  26  33
ENDBRANCH   1  26
TORSDOF 6
