REMARK  Name = ZINC39834418
REMARK  4 active torsions:
REMARK  status: ('A' for Active; 'I' for Inactive)
REMARK    1  A    between atoms: C_7  and  C_10
REMARK    2  A    between atoms: C_10  and  S_11
REMARK    3  A    between atoms: S_11  and  C_12
REMARK    4  A    between atoms: C_18  and  N_22
REMARK                            x       y       z     vdW  Elec       q    Type
REMARK                         _______ _______ _______ _____ _____    ______ ____
ROOT
ATOM      1  C   UNL     1      -5.209   5.393   1.617  0.00  0.00    +0.193 C 
ATOM      2  N   UNL     1      -6.447   5.410   0.827  0.00  0.00    -0.323 N 
ATOM      3  C   UNL     1      -6.441   6.133  -0.366  0.00  0.00    +0.042 A 
ATOM      4  C   UNL     1      -7.527   6.263  -1.250  0.00  0.00    +0.026 A 
ATOM      5  C   UNL     1      -7.420   7.000  -2.406  0.00  0.00    +0.034 A 
ATOM      6  C   UNL     1      -6.239   7.638  -2.739  0.00  0.00    +0.127 A 
ATOM      7  C   UNL     1      -5.153   7.527  -1.887  0.00  0.00    +0.049 A 
ATOM      8  C   UNL     1      -5.261   6.790  -0.730  0.00  0.00    +0.033 A 
ATOM      9  S   UNL     1      -4.107   6.431   0.575  0.00  0.00    -0.090 S 
ATOM     10  H   UNL     1      -7.240   4.937   1.124  0.00  0.00    +0.148 HD
ENDROOT
BRANCH   6  11
ATOM     11  N   UNL     1      -6.138   8.427  -3.987  0.00  0.00    +0.056 N 
ATOM     12  O   UNL     1      -7.092   8.517  -4.725  0.00  0.00    -0.126 OA
ATOM     13  O   UNL     1      -5.101   8.981  -4.270  0.00  0.00    -0.126 OA
ENDBRANCH   6  11
BRANCH   1  14
ATOM     14  S   UNL     1      -4.560   3.706   1.775  0.00  0.00    -0.123 S 
BRANCH  14  15
ATOM     15  C   UNL     1      -4.358   3.151   0.060  0.00  0.00    +0.109 C 
BRANCH  15  22
ATOM     16  C   UNL     1      -0.017   1.384   0.010  0.00  0.00    +0.001 A 
ATOM     17  C   UNL     1       0.002  -0.004   0.002  0.00  0.00    +0.002 A 
ATOM     18  C   UNL     1      -1.173  -0.723   0.009  0.00  0.00    +0.026 A 
ATOM     19  C   UNL     1      -2.392  -0.053   0.024  0.00  0.00    +0.047 A 
ATOM     20  N   UNL     1      -3.704  -0.472   0.034  0.00  0.00    -0.360 N 
ATOM     21  C   UNL     1      -4.539   0.612   0.047  0.00  0.00    +0.088 A 
ATOM     22  C   UNL     1      -3.818   1.744   0.047  0.00  0.00    -0.012 A 
ATOM     23  C   UNL     1      -2.406   1.353   0.032  0.00  0.00    +0.004 A 
ATOM     24  C   UNL     1      -1.203   2.062   0.030  0.00  0.00    +0.010 A 
ATOM     25  H   UNL     1      -3.993  -1.398   0.030  0.00  0.00    +0.165 HD
ENDBRANCH  15  22
ENDBRANCH  14  15
ENDBRANCH   1  14
TORSDOF 4
