REMARK  Name = ZINC02131570
REMARK  8 active torsions:
REMARK  status: ('A' for Active; 'I' for Inactive)
REMARK    1  A    between atoms: C_1  and  C_2
REMARK    2  A    between atoms: C_2  and  CA_3
REMARK    3  A    between atoms: CA_3  and  C_5
REMARK    4  A    between atoms: CA_3  and  N_7
REMARK    5  A    between atoms: C_8  and  C_10
REMARK    6  A    between atoms: C_10  and  C_11
REMARK    7  A    between atoms: C_12  and  C_32
REMARK    8  A    between atoms: C_24  and  C_25
REMARK                            x       y       z     vdW  Elec       q    Type
REMARK                         _______ _______ _______ _____ _____    ______ ____
ROOT
ATOM      1  C   UNL     1      -1.192   2.184   0.019  0.00  0.00    +0.049 A 
ATOM      2  C   UNL     1      -0.018   1.503   0.010  0.00  0.00    -0.029 A 
ATOM      3  C   UNL     1       1.229   2.273   0.003  0.00  0.00    +0.022 A 
ATOM      4  C   UNL     1       2.466   1.627  -0.013  0.00  0.00    +0.024 A 
ATOM      5  C   UNL     1       3.627   2.385  -0.021  0.00  0.00    +0.029 A 
ATOM      6  C   UNL     1       3.563   3.792  -0.013  0.00  0.00    +0.139 A 
ATOM      7  C   UNL     1       2.330   4.427   0.003  0.00  0.00    +0.093 A 
ATOM      8  C   UNL     1       1.164   3.681   0.011  0.00  0.00    +0.143 A 
ATOM      9  O   UNL     1      -0.040   4.295   0.026  0.00  0.00    -0.422 OA
ATOM     10  C   UNL     1      -1.185   3.595   0.033  0.00  0.00    +0.341 A 
ATOM     11  O   UNL     1      -2.245   4.193   0.046  0.00  0.00    -0.245 OA
ATOM     12  O   UNL     1       4.831   4.252  -0.023  0.00  0.00    -0.462 OA
ATOM     13  C   UNL     1       5.716   3.241  -0.038  0.00  0.00    +0.204 A 
ATOM     14  C   UNL     1       5.066   2.056  -0.037  0.00  0.00    +0.028 A 
ATOM     15  C   UNL     1       0.002  -0.004   0.002  0.00  0.00    +0.045 C 
ENDROOT
BRANCH  14  16
ATOM     16  C   UNL     1       5.673   0.704  -0.051  0.00  0.00    -0.014 A 
ATOM     17  C   UNL     1       5.266  -0.256   0.875  0.00  0.00    +0.010 A 
ATOM     18  C   UNL     1       5.831  -1.514   0.855  0.00  0.00    +0.016 A 
ATOM     19  C   UNL     1       6.808  -1.822  -0.077  0.00  0.00    +0.018 A 
ATOM     20  C   UNL     1       7.219  -0.872  -0.995  0.00  0.00    +0.016 A 
ATOM     21  C   UNL     1       6.657   0.388  -0.987  0.00  0.00    +0.010 A 
ATOM     22 BR   UNL     1       7.583  -3.547  -0.094  0.00  0.00    -0.050 Br
ENDBRANCH  14  16
BRANCH   1  23
ATOM     23  C   UNL     1      -2.500   1.435   0.021  0.00  0.00    +0.138 C 
BRANCH  23  25
ATOM     24  N   UNL     1      -4.079   0.518   1.691  0.00  0.00    -0.302 N 
ATOM     25  C   UNL     1      -2.930   1.178   1.443  0.00  0.00    +0.218 C 
ATOM     26  O   UNL     1      -2.241   1.564   2.364  0.00  0.00    -0.275 OA
ATOM     27  H   UNL     1      -4.629   0.209   0.954  0.00  0.00    +0.150 HD
BRANCH  24  28
ATOM     28  CA  UNL     1      -4.496   0.268   3.073  0.00  0.00    +0.186 C 
BRANCH  28  29
ATOM     29  C   UNL     1      -3.834  -0.988   3.578  0.00  0.00    +0.376 C 
ATOM     30  O   UNL     1      -3.091  -1.611   2.857  0.00  0.00    -0.244 OA
ATOM     31  OXT UNL     1      -4.072  -1.416   4.828  0.00  0.00    -0.244 OA
ENDBRANCH  28  29
BRANCH  28  33
ATOM     32  C   UNL     1      -6.688   1.417   2.730  0.00  0.00    +0.006 C 
ATOM     33  C   UNL     1      -6.016   0.100   3.124  0.00  0.00    +0.030 C 
ENDBRANCH  28  33
ENDBRANCH  24  28
ENDBRANCH  23  25
ENDBRANCH   1  23
TORSDOF 6
