REMARK  Name = ZINC15605436
REMARK  15 active torsions:
REMARK  status: ('A' for Active; 'I' for Inactive)
REMARK    1  A    between atoms: C_1  and  C_2
REMARK    2  A    between atoms: C_2  and  C_3
REMARK    3  A    between atoms: C_2  and  C_4
REMARK    4  A    between atoms: C_4  and  N_5
REMARK    5  A    between atoms: C_6  and  N_32
REMARK    6  A    between atoms: C_7  and  N_14
REMARK    7  A    between atoms: N_14  and  C_15
REMARK    8  A    between atoms: C_15  and  C_16
REMARK    9  A    between atoms: C_16  and  O_17
REMARK   10  A    between atoms: O_17  and  C_18
REMARK   11  A    between atoms: C_19  and  C_21
REMARK   12  A    between atoms: C_23  and  O_30
REMARK   13  A    between atoms: C_25  and  O_27
REMARK   14  A    between atoms: O_27  and  C_28
REMARK   15  A    between atoms: O_30  and  C_31
REMARK                            x       y       z     vdW  Elec       q    Type
REMARK                         _______ _______ _______ _____ _____    ______ ____
ROOT
ATOM      1  N   UNL     1       0.693  -2.944   0.582  0.00  0.00    -0.258 N 
ATOM      2  C   UNL     1       0.119  -3.100   1.791  0.00  0.00    +0.251 C 
ATOM      3  O   UNL     1       0.025  -4.209   2.281  0.00  0.00    -0.270 OA
ENDROOT
BRANCH   1   6
ATOM      4  N   UNL     1       0.596  -0.060  -1.692  0.00  0.00    -0.280 N 
ATOM      5  C   UNL     1       0.399  -1.330  -1.202  0.00  0.00    +0.127 A 
ATOM      6  C   UNL     1       0.880  -1.651   0.052  0.00  0.00    +0.140 A 
ATOM      7  C   UNL     1       1.559  -0.665   0.792  0.00  0.00    +0.277 A 
ATOM      8  O   UNL     1       1.994  -0.921   1.902  0.00  0.00    -0.266 OA
ATOM      9  N   UNL     1       1.725   0.564   0.265  0.00  0.00    -0.273 N 
ATOM     10  H   UNL     1       2.204   1.267   0.792  0.00  0.00    +0.173 HD
ATOM     11  C   UNL     1       1.254   0.857  -0.960  0.00  0.00    +0.331 A 
ATOM     12  O   UNL     1       1.423   1.973  -1.413  0.00  0.00    -0.246 OA
BRANCH   5  13
ATOM     13  N   UNL     1      -0.269  -2.268  -1.951  0.00  0.00    -0.343 N 
ATOM     14  H   UNL     1      -0.524  -2.067  -2.865  0.00  0.00    +0.144 HD
ATOM     15  H   UNL     1      -0.486  -3.132  -1.566  0.00  0.00    +0.144 HD
ENDBRANCH   5  13
BRANCH   4  16
ATOM     16  C   UNL     1       0.092   0.294  -3.021  0.00  0.00    +0.131 C 
BRANCH  16  18
ATOM     17  C   UNL     1      -1.814   1.323  -4.266  0.00  0.00    +0.009 C 
ATOM     18  C   UNL     1      -1.333   0.838  -2.897  0.00  0.00    +0.003 C 
ATOM     19  C   UNL     1      -2.260  -0.271  -2.394  0.00  0.00    +0.009 C 
ENDBRANCH  16  18
ENDBRANCH   4  16
ENDBRANCH   1   6
BRANCH   2  20
ATOM     20  C   UNL     1      -0.396  -1.923   2.522  0.00  0.00    +0.044 A 
ATOM     21  C   UNL     1      -0.822  -0.795   1.820  0.00  0.00    +0.060 A 
ATOM     22  C   UNL     1      -1.310   0.303   2.508  0.00  0.00    +0.138 A 
ATOM     23  C   UNL     1      -1.365   0.287   3.895  0.00  0.00    +0.101 A 
ATOM     24  C   UNL     1      -0.937  -0.831   4.597  0.00  0.00    +0.138 A 
ATOM     25  C   UNL     1      -0.453  -1.935   3.917  0.00  0.00    +0.060 A 
ATOM     26 BR   UNL     1      -2.025   1.792   4.830  0.00  0.00    -0.043 Br
BRANCH  24  27
ATOM     27  O   UNL     1      -0.992  -0.842   5.955  0.00  0.00    -0.494 OA
ATOM     28  C   UNL     1      -0.535  -2.025   6.614  0.00  0.00    +0.277 C 
ENDBRANCH  24  27
BRANCH  22  29
ATOM     29  O   UNL     1      -1.731   1.400   1.825  0.00  0.00    -0.494 OA
ATOM     30  C   UNL     1      -1.741   1.312   0.398  0.00  0.00    +0.277 C 
ENDBRANCH  22  29
ENDBRANCH   2  20
BRANCH   1  31
ATOM     31  C   UNL     1       1.123  -4.118  -0.181  0.00  0.00    +0.142 C 
BRANCH  31  32
ATOM     32  C   UNL     1       2.563  -4.473   0.197  0.00  0.00    +0.179 C 
BRANCH  32  33
ATOM     33  O   UNL     1       2.609  -4.876   1.567  0.00  0.00    -0.381 OA
ATOM     34  C   UNL     1       3.916  -5.231   2.025  0.00  0.00    +0.194 C 
ENDBRANCH  32  33
ENDBRANCH  31  32
ENDBRANCH   1  31
TORSDOF 10
