REMARK  Name = ZINC39545109
REMARK  6 active torsions:
REMARK  status: ('A' for Active; 'I' for Inactive)
REMARK    1  A    between atoms: C_4  and  N_7
REMARK    2  A    between atoms: N_7  and  C_8
REMARK    3  A    between atoms: C_13  and  O_14
REMARK    4  A    between atoms: C_15  and  C_17
REMARK    5  A    between atoms: C_20  and  C_32
REMARK    6  A    between atoms: C_37  and  O_38
REMARK                            x       y       z     vdW  Elec       q    Type
REMARK                         _______ _______ _______ _____ _____    ______ ____
ROOT
ATOM      1  C   UNL     1       2.659  -3.003   0.053  0.00  0.00    +0.171 C 
ATOM      2  C   UNL     1       1.967  -2.919   1.433  0.00  0.00    +0.050 C 
ATOM      3  C   UNL     1       2.681  -4.063   2.191  0.00  0.00    +0.086 C 
ATOM      4  C   UNL     1       3.163  -4.981   1.092  0.00  0.00    +0.083 C 
ATOM      5  N   UNL     1       3.583  -6.282   1.263  0.00  0.00    -0.304 N 
ATOM      6  C   UNL     1       4.290  -6.884   0.213  0.00  0.00    +0.037 A 
ATOM      7  C   UNL     1       4.984  -8.065   0.439  0.00  0.00    +0.023 A 
ATOM      8  C   UNL     1       5.686  -8.659  -0.591  0.00  0.00    +0.002 A 
ATOM      9  C   UNL     1       5.697  -8.076  -1.845  0.00  0.00    +0.000 A 
ATOM     10  C   UNL     1       5.005  -6.901  -2.071  0.00  0.00    +0.007 A 
ATOM     11  C   UNL     1       4.296  -6.301  -1.046  0.00  0.00    -0.007 A 
ATOM     12  C   UNL     1       3.539  -5.029  -1.320  0.00  0.00    +0.155 C 
ATOM     13  N   UNL     1       3.139  -4.388  -0.062  0.00  0.00    -0.346 N 
ATOM     14  H   UNL     1       3.396  -6.766   2.083  0.00  0.00    +0.153 HD
ENDROOT
BRANCH   3  15
ATOM     15  C   UNL     1       1.715  -4.781   3.098  0.00  0.00    +0.004 A 
ATOM     16  C   UNL     1       0.602  -5.404   2.568  0.00  0.00    +0.008 A 
ATOM     17  C   UNL     1      -0.285  -6.062   3.400  0.00  0.00    +0.001 A 
ATOM     18  C   UNL     1      -0.060  -6.098   4.764  0.00  0.00    +0.004 A 
ATOM     19  C   UNL     1       1.052  -5.477   5.298  0.00  0.00    +0.046 A 
ATOM     20  C   UNL     1       1.946  -4.821   4.465  0.00  0.00    +0.121 A 
BRANCH  20  21
ATOM     21  O   UNL     1       3.043  -4.213   4.988  0.00  0.00    -0.506 OA
ATOM     22  H   UNL     1       2.900  -3.290   5.239  0.00  0.00    +0.292 HD
ENDBRANCH  20  21
ENDBRANCH   3  15
BRANCH   1  24
ATOM     23  N   UNL     1       3.613  -0.761  -0.370  0.00  0.00    -0.235 N 
ATOM     24  C   UNL     1       3.818  -2.042  -0.008  0.00  0.00    +0.247 C 
ATOM     25  O   UNL     1       4.936  -2.423   0.270  0.00  0.00    -0.273 OA
BRANCH  23  29
ATOM     26  C   UNL     1       6.850   1.828  -0.795  0.00  0.00    +0.000 A 
ATOM     27  C   UNL     1       5.582   2.244  -1.159  0.00  0.00    +0.002 A 
ATOM     28  C   UNL     1       4.507   1.388  -1.019  0.00  0.00    +0.024 A 
ATOM     29  C   UNL     1       4.701   0.109  -0.513  0.00  0.00    +0.041 A 
ATOM     30  C   UNL     1       5.976  -0.305  -0.149  0.00  0.00    +0.024 A 
ATOM     31  C   UNL     1       7.046   0.556  -0.291  0.00  0.00    +0.002 A 
ENDBRANCH  23  29
BRANCH  23  32
ATOM     32  C   UNL     1       2.310  -0.298  -0.604  0.00  0.00    +0.083 A 
ATOM     33  C   UNL     1       1.751  -0.403  -1.869  0.00  0.00    +0.027 A 
ATOM     34  C   UNL     1       0.467   0.053  -2.097  0.00  0.00    +0.002 A 
ATOM     35  C   UNL     1      -0.264   0.615  -1.067  0.00  0.00    +0.004 A 
ATOM     36  C   UNL     1       0.286   0.723   0.197  0.00  0.00    +0.047 A 
ATOM     37  C   UNL     1       1.571   0.263   0.435  0.00  0.00    +0.138 A 
BRANCH  37  38
ATOM     38  O   UNL     1       2.112   0.363   1.679  0.00  0.00    -0.505 OA
ATOM     39  H   UNL     1       2.588   1.190   1.836  0.00  0.00    +0.292 HD
ENDBRANCH  37  38
ENDBRANCH  23  32
ENDBRANCH   1  24
TORSDOF 6
