REMARK  Name = ZINC46583824
REMARK  8 active torsions:
REMARK  status: ('A' for Active; 'I' for Inactive)
REMARK    1  A    between atoms: C_1  and  N_2
REMARK    2  A    between atoms: N_2  and  C_3
REMARK    3  A    between atoms: N_2  and  C_15
REMARK    4  A    between atoms: C_3  and  C_4
REMARK    5  A    between atoms: C_7  and  O_10
REMARK    6  A    between atoms: O_10  and  C_11
REMARK    7  A    between atoms: C_15  and  C_17
REMARK    8  A    between atoms: C_15  and  C_23
REMARK                            x       y       z     vdW  Elec       q    Type
REMARK                         _______ _______ _______ _____ _____    ______ ____
ROOT
ATOM      1  C   UNL     1       0.814  -0.489   1.126  0.00  0.00    +0.050 C 
ENDROOT
BRANCH   1   2
ATOM      2  C   UNL     1       0.152  -0.106   2.425  0.00  0.00    +0.211 C 
ATOM      3  O   UNL     1      -0.935   0.429   2.417  0.00  0.00    -0.277 OA
ATOM      4  N   UNL     1       0.770  -0.359   3.596  0.00  0.00    -0.241 N 
ATOM      5  C   UNL     1       0.179  -0.017   4.758  0.00  0.00    +0.303 C 
ATOM      6  O   UNL     1      -0.912   0.520   4.750  0.00  0.00    -0.253 OA
ATOM      7  N   UNL     1       0.797  -0.270   5.929  0.00  0.00    -0.313 N 
ATOM      8  H   UNL     1       1.641  -0.787   3.603  0.00  0.00    +0.159 HD
ATOM      9  H   UNL     1       1.667  -0.698   5.935  0.00  0.00    +0.146 HD
ATOM     10  H   UNL     1       0.371  -0.023   6.765  0.00  0.00    +0.146 HD
ENDBRANCH   1   2
BRANCH   1  11
ATOM     11  C   UNL     1       0.467  -1.916   0.787  0.00  0.00    -0.052 A 
ATOM     12  C   UNL     1      -0.752  -2.212   0.207  0.00  0.00    +0.002 A 
ATOM     13  C   UNL     1      -1.070  -3.521  -0.103  0.00  0.00    +0.000 A 
ATOM     14  C   UNL     1      -0.169  -4.534   0.165  0.00  0.00    +0.000 A 
ATOM     15  C   UNL     1       1.051  -4.237   0.744  0.00  0.00    +0.000 A 
ATOM     16  C   UNL     1       1.371  -2.928   1.051  0.00  0.00    +0.002 A 
ENDBRANCH   1  11
BRANCH   1  18
ATOM     17  C   UNL     1       0.759   1.777   0.339  0.00  0.00    -0.094 C 
ATOM     18  N   UNL     1       0.340   0.398   0.055  0.00  0.00    +0.391 N 
ATOM     19  H   UNL     1      -0.667   0.356   0.006  0.00  0.00    -0.080 HD
BRANCH  18  20
ATOM     20  C   UNL     1       0.911  -0.034  -1.227  0.00  0.00    -0.042 C 
BRANCH  20  21
ATOM     21  C   UNL     1       0.330   0.797  -2.341  0.00  0.00    -0.064 A 
ATOM     22  C   UNL     1      -0.828   0.388  -2.977  0.00  0.00    +0.005 A 
ATOM     23  C   UNL     1      -1.362   1.148  -3.999  0.00  0.00    +0.046 A 
ATOM     24  C   UNL     1      -0.737   2.324  -4.387  0.00  0.00    +0.130 A 
ATOM     25  C   UNL     1       0.424   2.733  -3.748  0.00  0.00    +0.046 A 
ATOM     26  C   UNL     1       0.952   1.972  -2.723  0.00  0.00    +0.005 A 
BRANCH  24  27
ATOM     27  O   UNL     1      -1.261   3.073  -5.393  0.00  0.00    -0.406 OA
BRANCH  27  28
ATOM     28  C   UNL     1      -0.564   4.271  -5.740  0.00  0.00    +0.575 C 
ATOM     29  F   UNL     1       0.737   3.953  -6.146  0.00  0.00    -0.133 F 
ATOM     30  F   UNL     1      -1.235   4.915  -6.785  0.00  0.00    -0.133 F 
ATOM     31  F   UNL     1      -0.511   5.119  -4.628  0.00  0.00    -0.133 F 
ENDBRANCH  27  28
ENDBRANCH  24  27
ENDBRANCH  20  21
ENDBRANCH  18  20
ENDBRANCH   1  18
TORSDOF 7
