REMARK  Name = ZINC34906187
REMARK  8 active torsions:
REMARK  status: ('A' for Active; 'I' for Inactive)
REMARK    1  A    between atoms: C_1  and  C_2
REMARK    2  A    between atoms: C_5  and  O_8
REMARK    3  A    between atoms: O_8  and  C_9
REMARK    4  A    between atoms: C_9  and  C_10
REMARK    5  A    between atoms: C_12  and  C_15
REMARK    6  A    between atoms: N_17  and  C_18
REMARK    7  A    between atoms: C_24  and  N_26
REMARK    8  A    between atoms: N_29  and  C_30
REMARK                            x       y       z     vdW  Elec       q    Type
REMARK                         _______ _______ _______ _____ _____    ______ ____
ROOT
ATOM      1  C   UNL     1       4.408  -9.844   0.544  0.00  0.00    +0.093 C 
ATOM      2  C   UNL     1       4.708 -10.073  -0.939  0.00  0.00    +0.024 C 
ATOM      3  C   UNL     1       5.863 -11.067  -1.078  0.00  0.00    +0.002 C 
ATOM      4  C   UNL     1       7.106 -10.504  -0.387  0.00  0.00    +0.002 C 
ATOM      5  C   UNL     1       6.807 -10.275   1.095  0.00  0.00    +0.024 C 
ATOM      6  C   UNL     1       5.652  -9.281   1.235  0.00  0.00    +0.095 C 
ENDROOT
BRANCH   6   7
ATOM      7  N   UNL     1       6.024  -8.009   0.610  0.00  0.00    -0.295 N 
ATOM      8  C   UNL     1       6.725  -7.094   1.308  0.00  0.00    +0.300 C 
ATOM      9  O   UNL     1       7.049  -7.324   2.457  0.00  0.00    -0.253 OA
ATOM     10  N   UNL     1       7.068  -5.925   0.733  0.00  0.00    -0.294 N 
ATOM     11  H   UNL     1       5.766  -7.825  -0.307  0.00  0.00    +0.151 HD
ATOM     12  H   UNL     1       6.809  -5.741  -0.184  0.00  0.00    +0.151 HD
BRANCH  10  13
ATOM     13  C   UNL     1       7.830  -4.930   1.492  0.00  0.00    +0.037 C 
ATOM     14  C   UNL     1       7.033  -4.514   2.731  0.00  0.00    +0.029 C 
ATOM     15  C   UNL     1       7.829  -3.476   3.524  0.00  0.00    -0.008 C 
ATOM     16  C   UNL     1       8.085  -2.249   2.646  0.00  0.00    +0.007 C 
ATOM     17  C   UNL     1       8.881  -2.665   1.407  0.00  0.00    -0.008 C 
ATOM     18  C   UNL     1       8.085  -3.704   0.614  0.00  0.00    +0.029 C 
ATOM     19  C   UNL     1      10.218  -3.270   1.841  0.00  0.00    +0.007 C 
ATOM     20  C   UNL     1       9.963  -4.496   2.719  0.00  0.00    -0.008 C 
ATOM     21  C   UNL     1       9.166  -4.080   3.957  0.00  0.00    +0.007 C 
ATOM     22  C   UNL     1       9.167  -5.535   1.925  0.00  0.00    +0.029 C 
ENDBRANCH  10  13
ENDBRANCH   6   7
BRANCH   1  25
ATOM     23  C   UNL     1       2.028  -9.327   0.620  0.00  0.00    +0.263 C 
ATOM     24  O   UNL     1       1.796 -10.510   0.457  0.00  0.00    -0.269 OA
ATOM     25  N   UNL     1       3.303  -8.892   0.677  0.00  0.00    -0.305 N 
ATOM     26  H   UNL     1       3.488  -7.949   0.807  0.00  0.00    +0.149 HD
BRANCH  23  29
ATOM     27  C   UNL     1       0.090  -6.277   1.043  0.00  0.00    +0.116 A 
ATOM     28  N   UNL     1       1.127  -7.062   0.933  0.00  0.00    -0.236 NA
ATOM     29  C   UNL     1       0.917  -8.370   0.754  0.00  0.00    +0.133 A 
ATOM     30  C   UNL     1      -0.392  -8.768   0.702  0.00  0.00    +0.080 A 
ATOM     31  S   UNL     1      -1.219  -7.320   0.909  0.00  0.00    -0.076 S 
BRANCH  27  32
ATOM     32  C   UNL     1       0.072  -4.785   1.249  0.00  0.00    +0.291 C 
BRANCH  32  33
ATOM     33  O   UNL     1       0.057  -4.129  -0.021  0.00  0.00    -0.485 OA
BRANCH  33  38
ATOM     34  C   UNL     1      -0.018   1.503   0.010  0.00  0.00    +0.044 C 
ATOM     35  C   UNL     1       0.002  -0.004   0.002  0.00  0.00    -0.050 A 
ATOM     36  C   UNL     1       0.006  -0.688  -1.200  0.00  0.00    +0.007 A 
ATOM     37  C   UNL     1       0.024  -2.069  -1.210  0.00  0.00    +0.046 A 
ATOM     38  C   UNL     1       0.039  -2.770  -0.013  0.00  0.00    +0.121 A 
ATOM     39  C   UNL     1       0.036  -2.082   1.191  0.00  0.00    +0.046 A 
ATOM     40  C   UNL     1       0.023  -0.701   1.196  0.00  0.00    +0.007 A 
ENDBRANCH  33  38
ENDBRANCH  32  33
ENDBRANCH  27  32
ENDBRANCH  23  29
ENDBRANCH   1  25
TORSDOF 7
