REMARK  Name = ZINC39623336
REMARK  7 active torsions:
REMARK  status: ('A' for Active; 'I' for Inactive)
REMARK    1  A    between atoms: C_1  and  C_2
REMARK    2  A    between atoms: C_2  and  C_3
REMARK    3  A    between atoms: C_3  and  C_4
REMARK    4  A    between atoms: C_4  and  C_5
REMARK    5  A    between atoms: C_5  and  N_6
REMARK    6  A    between atoms: C_7  and  C_9
REMARK    7  A    between atoms: C_20  and  C_22
REMARK                            x       y       z     vdW  Elec       q    Type
REMARK                         _______ _______ _______ _____ _____    ______ ____
ROOT
ATOM      1  C   UNL     1      -3.989  -6.089  -0.236  0.00  0.00    +0.100 C 
ATOM      2  C   UNL     1      -3.456  -6.713  -1.546  0.00  0.00    +0.121 C 
ATOM      3  N   UNL     1      -4.251  -7.952  -1.720  0.00  0.00    -0.296 N 
ATOM      4  C   UNL     1      -5.621  -7.573  -1.299  0.00  0.00    +0.115 C 
ATOM      5  C   UNL     1      -5.410  -6.655  -0.078  0.00  0.00    -0.004 C 
ATOM      6  C   UNL     1      -5.517  -7.461   1.213  0.00  0.00    -0.010 C 
ATOM      7  C   UNL     1      -6.953  -7.966   1.376  0.00  0.00    -0.082 C 
ATOM      8  N   UNL     1      -7.874  -6.824   1.411  0.00  0.00    +0.379 N 
ATOM      9  C   UNL     1      -7.833  -6.108   0.130  0.00  0.00    -0.082 C 
ATOM     10  C   UNL     1      -6.434  -5.524  -0.086  0.00  0.00    -0.010 C 
ATOM     11  C   UNL     1      -3.825  -9.151  -2.162  0.00  0.00    +0.247 C 
ATOM     12  O   UNL     1      -4.621 -10.053  -2.335  0.00  0.00    -0.270 OA
ATOM     13  H   UNL     1      -8.812  -7.155   1.579  0.00  0.00    -0.086 HD
ATOM     14  H   UNL     1      -7.603  -6.197   2.154  0.00  0.00    -0.086 HD
ENDROOT
BRANCH  11  15
ATOM     15  C   UNL     1      -2.390  -9.370  -2.437  0.00  0.00    +0.045 A 
ATOM     16  C   UNL     1      -1.680  -8.464  -3.233  0.00  0.00    +0.014 A 
ATOM     17  C   UNL     1      -0.342  -8.665  -3.491  0.00  0.00    +0.001 A 
ATOM     18  C   UNL     1       0.317  -9.766  -2.964  0.00  0.00    +0.012 A 
ATOM     19  C   UNL     1      -0.369 -10.678  -2.171  0.00  0.00    +0.031 A 
ATOM     20  C   UNL     1      -1.732 -10.482  -1.895  0.00  0.00    +0.006 A 
ATOM     21  C   UNL     1      -2.206 -11.589  -1.028  0.00  0.00    -0.006 A 
ATOM     22  C   UNL     1      -3.452 -11.870  -0.481  0.00  0.00    +0.009 A 
ATOM     23  C   UNL     1      -3.624 -12.994   0.310  0.00  0.00    +0.001 A 
ATOM     24  C   UNL     1      -2.564 -13.843   0.561  0.00  0.00    +0.001 A 
ATOM     25  C   UNL     1      -1.315 -13.577   0.022  0.00  0.00    +0.012 A 
ATOM     26  C   UNL     1      -1.128 -12.454  -0.773  0.00  0.00    +0.030 A 
ATOM     27  C   UNL     1       0.058 -11.921  -1.485  0.00  0.00    +0.194 C 
ATOM     28  O   UNL     1       1.172 -12.404  -1.494  0.00  0.00    -0.287 OA
ENDBRANCH  11  15
BRANCH   1  30
ATOM     29  N   UNL     1      -4.027  -3.826   0.761  0.00  0.00    -0.315 N 
ATOM     30  C   UNL     1      -4.032  -4.587  -0.351  0.00  0.00    +0.218 C 
ATOM     31  O   UNL     1      -4.071  -4.063  -1.444  0.00  0.00    -0.275 OA
ATOM     32  H   UNL     1      -3.996  -4.245   1.636  0.00  0.00    +0.149 HD
BRANCH  29  33
ATOM     33  C   UNL     1      -4.070  -2.366   0.650  0.00  0.00    +0.104 C 
BRANCH  33  34
ATOM     34  C   UNL     1      -4.055  -1.747   2.049  0.00  0.00    +0.019 C 
BRANCH  34  35
ATOM     35  C   UNL     1      -4.099  -0.222   1.933  0.00  0.00    +0.001 C 
BRANCH  35  37
ATOM     36  C   UNL     1      -4.128   1.922   3.215  0.00  0.00    +0.004 C 
ATOM     37  C   UNL     1      -4.084   0.397   3.332  0.00  0.00    -0.003 C 
ENDBRANCH  35  37
ENDBRANCH  34  35
ENDBRANCH  33  34
ENDBRANCH  29  33
ENDBRANCH   1  30
TORSDOF 6
