REMARK  Name = ZINC56714313
REMARK  9 active torsions:
REMARK  status: ('A' for Active; 'I' for Inactive)
REMARK    1  A    between atoms: C_1  and  C_2
REMARK    2  A    between atoms: C_3  and  N_14
REMARK    3  A    between atoms: C_7  and  N_8
REMARK    4  A    between atoms: N_17  and  C_18
REMARK    5  A    between atoms: C_18  and  C_20
REMARK    6  A    between atoms: C_18  and  C_21
REMARK    7  A    between atoms: C_21  and  N_22
REMARK    8  A    between atoms: C_24  and  C_31
REMARK    9  A    between atoms: C_27  and  C_30
REMARK                            x       y       z     vdW  Elec       q    Type
REMARK                         _______ _______ _______ _____ _____    ______ ____
ROOT
ATOM      1  N   UNL     1      -0.144  -0.141  -2.453  0.00  0.00    -0.269 N 
ATOM      2  C   UNL     1       0.056  -0.779  -3.623  0.00  0.00    +0.304 C 
ATOM      3  O   UNL     1       0.174  -1.989  -3.643  0.00  0.00    -0.253 OA
ATOM      4  N   UNL     1       0.125  -0.076  -4.770  0.00  0.00    -0.298 N 
ATOM      5  H   UNL     1      -0.318   0.813  -2.444  0.00  0.00    +0.156 HD
ATOM      6  H   UNL     1       0.031   0.889  -4.754  0.00  0.00    +0.150 HD
ENDROOT
BRANCH   1   9
ATOM      7  C   UNL     1      -1.557   0.907  -0.217  0.00  0.00    +0.047 C 
ATOM      8  C   UNL     1      -0.777  -0.379  -0.135  0.00  0.00    -0.008 A 
ATOM      9  C   UNL     1      -0.101  -0.855  -1.250  0.00  0.00    +0.039 A 
ATOM     10  C   UNL     1       0.617  -2.041  -1.171  0.00  0.00    +0.024 A 
ATOM     11  C   UNL     1       0.660  -2.747   0.017  0.00  0.00    +0.004 A 
ATOM     12  C   UNL     1      -0.012  -2.276   1.128  0.00  0.00    +0.024 A 
ATOM     13  C   UNL     1      -0.727  -1.087   1.057  0.00  0.00    +0.041 A 
BRANCH  13  14
ATOM     14  N   UNL     1      -1.402  -0.607   2.185  0.00  0.00    -0.271 N 
ATOM     15  C   UNL     1      -2.788  -0.948   2.529  0.00  0.00    +0.114 C 
ATOM     16  C   UNL     1      -2.949  -0.568   4.017  0.00  0.00    +0.029 C 
ATOM     17  C   UNL     1      -1.871   0.528   4.181  0.00  0.00    +0.098 C 
ATOM     18  C   UNL     1      -0.863   0.221   3.097  0.00  0.00    +0.220 C 
ATOM     19  O   UNL     1       0.268   0.659   3.054  0.00  0.00    -0.275 OA
ENDBRANCH  13  14
ENDBRANCH   1   9
BRANCH   4  20
ATOM     20  C   UNL     1       0.343  -0.770  -6.042  0.00  0.00    +0.055 C 
ATOM     21  C   UNL     1      -1.007  -1.156  -6.650  0.00  0.00    +0.026 C 
BRANCH  20  22
ATOM     22  C   UNL     1       1.091   0.153  -7.005  0.00  0.00    -0.057 C 
BRANCH  22  23
ATOM     23  N   UNL     1       2.335   0.614  -6.375  0.00  0.00    +0.381 N 
ATOM     24  C   UNL     1       2.974   1.618  -7.234  0.00  0.00    -0.076 C 
ATOM     25  C   UNL     1       4.228   2.160  -6.544  0.00  0.00    -0.031 C 
ATOM     26  C   UNL     1       5.204   1.008  -6.292  0.00  0.00    +0.003 C 
ATOM     27  C   UNL     1       4.503  -0.068  -5.458  0.00  0.00    -0.031 C 
ATOM     28  C   UNL     1       3.239  -0.528  -6.187  0.00  0.00    -0.076 C 
ATOM     29  C   UNL     1       5.444  -1.259  -5.265  0.00  0.00    +0.005 C 
ATOM     30  C   UNL     1       4.893   3.206  -7.442  0.00  0.00    +0.005 C 
ATOM     31  H   UNL     1       2.124   1.026  -5.478  0.00  0.00    -0.082 HD
ENDBRANCH  22  23
ENDBRANCH  20  22
ENDBRANCH   4  20
TORSDOF 5
