REMARK  Name = ZINC20520968
REMARK  6 active torsions:
REMARK  status: ('A' for Active; 'I' for Inactive)
REMARK    1  A    between atoms: C_3  and  C_20
REMARK    2  A    between atoms: C_6  and  C_7
REMARK    3  A    between atoms: C_7  and  S_8
REMARK    4  A    between atoms: S_8  and  N_11
REMARK    5  A    between atoms: N_11  and  C_12
REMARK    6  A    between atoms: C_17  and  N_18
REMARK                            x       y       z     vdW  Elec       q    Type
REMARK                         _______ _______ _______ _____ _____    ______ ____
ROOT
ATOM      1  S   UNL     1       1.093   4.199   1.823  0.00  0.00    +0.047 S 
ATOM      2  O   UNL     1      -0.118   3.943   2.521  0.00  0.00    -0.155 OA
ATOM      3  O   UNL     1       2.348   3.897   2.416  0.00  0.00    -0.155 OA
ENDROOT
BRANCH   1   4
ATOM      4  N   UNL     1       1.114   5.840   1.601  0.00  0.00    -0.219 N 
ATOM      5  H   UNL     1       1.968   6.432   1.961  0.00  0.00    +0.173 HD
BRANCH   4   6
ATOM      6  C   UNL     1       0.045   6.473   0.954  0.00  0.00    +0.068 A 
ATOM      7  C   UNL     1      -1.249   6.011   1.136  0.00  0.00    +0.027 A 
ATOM      8  C   UNL     1      -2.303   6.638   0.497  0.00  0.00    +0.017 A 
ATOM      9  C   UNL     1      -2.070   7.725  -0.326  0.00  0.00    +0.020 A 
ATOM     10  C   UNL     1      -0.781   8.191  -0.513  0.00  0.00    +0.040 A 
ATOM     11  C   UNL     1       0.280   7.573   0.129  0.00  0.00    +0.048 A 
ATOM     12 BR   UNL     1      -3.517   8.576  -1.196  0.00  0.00    -0.050 Br
BRANCH  11  13
ATOM     13  N   UNL     1       1.585   8.047  -0.054  0.00  0.00    -0.356 N 
ATOM     14  H   UNL     1       1.768   8.915  -0.705  0.00  0.00    +0.142 HD
ATOM     15  H   UNL     1       2.426   7.552   0.453  0.00  0.00    +0.142 HD
ENDBRANCH  11  13
ENDBRANCH   4   6
ENDBRANCH   1   4
BRANCH   1  16
ATOM     16  C   UNL     1       1.009   3.503   0.149  0.00  0.00    +0.223 C 
BRANCH  16  22
ATOM     17  C   UNL     1      -0.226   1.334   0.320  0.00  0.00    +0.006 A 
ATOM     18  C   UNL     1      -0.256  -0.043   0.396  0.00  0.00    +0.019 A 
ATOM     19  C   UNL     1       0.938  -0.766   0.383  0.00  0.00    +0.052 A 
ATOM     20  C   UNL     1       2.156  -0.089   0.293  0.00  0.00    +0.019 A 
ATOM     21  C   UNL     1       2.171   1.288   0.218  0.00  0.00    +0.006 A 
ATOM     22  C   UNL     1       0.984   1.998   0.232  0.00  0.00    -0.025 A 
BRANCH  19  23
ATOM     23  C   UNL     1       0.915  -2.196   0.461  0.00  0.00    +0.099 C 
ATOM     24  N   UNL     1       0.896  -3.330   0.523  0.00  0.00    -0.191 NA
ENDBRANCH  19  23
ENDBRANCH  16  22
ENDBRANCH   1  16
TORSDOF 6
