REMARK  Name = ZINC64131587
REMARK  9 active torsions:
REMARK  status: ('A' for Active; 'I' for Inactive)
REMARK    1  A    between atoms: C_1  and  C_2
REMARK    2  A    between atoms: C_7  and  C_8
REMARK    3  A    between atoms: C_8  and  N_9
REMARK    4  A    between atoms: C_11  and  N_20
REMARK    5  A    between atoms: C_14  and  C_16
REMARK    6  A    between atoms: C_16  and  O_18
REMARK    7  A    between atoms: O_18  and  C_19
REMARK    8  A    between atoms: C_21  and  C_23
REMARK    9  A    between atoms: C_25  and  C_34
REMARK                            x       y       z     vdW  Elec       q    Type
REMARK                         _______ _______ _______ _____ _____    ______ ____
ROOT
ATOM      1  N   UNL     1      -3.587   3.325   1.854  0.00  0.00    -0.309 N 
ATOM      2  C   UNL     1      -4.506   3.344   0.869  0.00  0.00    +0.240 C 
ATOM      3  O   UNL     1      -5.032   2.312   0.510  0.00  0.00    -0.273 OA
ATOM      4  H   UNL     1      -3.111   4.137   2.089  0.00  0.00    +0.149 HD
ENDROOT
BRANCH   2   5
ATOM      5  C   UNL     1      -4.882   4.649   0.213  0.00  0.00    +0.198 C 
ATOM      6  C   UNL     1      -3.951   4.937  -0.944  0.00  0.00    -0.000 C 
ATOM      7  C   UNL     1      -4.757   4.994  -2.068  0.00  0.00    +0.006 A 
ATOM      8  C   UNL     1      -4.476   5.228  -3.436  0.00  0.00    +0.030 A 
ATOM      9  C   UNL     1      -5.487   5.226  -4.339  0.00  0.00    +0.042 A 
ATOM     10  C   UNL     1      -6.814   4.997  -3.956  0.00  0.00    +0.022 A 
ATOM     11  C   UNL     1      -7.157   4.767  -2.668  0.00  0.00    +0.027 A 
ATOM     12  C   UNL     1      -6.154   4.752  -1.660  0.00  0.00    +0.044 A 
ATOM     13  N   UNL     1      -6.228   4.556  -0.361  0.00  0.00    -0.370 N 
ATOM     14 CL   UNL     1      -5.126   5.515  -6.013  0.00  0.00    -0.084 Cl
ATOM     15  H   UNL     1      -7.041   4.378   0.137  0.00  0.00    +0.161 HD
BRANCH   6  16
ATOM     16  C   UNL     1      -2.499   5.120  -0.886  0.00  0.00    -0.019 A 
ATOM     17  C   UNL     1      -1.713   4.878  -2.022  0.00  0.00    +0.008 A 
ATOM     18  C   UNL     1      -0.347   5.053  -1.958  0.00  0.00    +0.001 A 
ATOM     19  C   UNL     1       0.248   5.465  -0.778  0.00  0.00    +0.000 A 
ATOM     20  C   UNL     1      -0.520   5.706   0.348  0.00  0.00    +0.001 A 
ATOM     21  C   UNL     1      -1.888   5.542   0.303  0.00  0.00    +0.008 A 
ENDBRANCH   6  16
ENDBRANCH   2   5
BRANCH   1  24
ATOM     22  N   UNL     1      -1.619   0.400   2.874  0.00  0.00    -0.284 NA
ATOM     23  C   UNL     1      -2.234   1.242   1.826  0.00  0.00    +0.107 C 
ATOM     24  C   UNL     1      -3.305   2.078   2.569  0.00  0.00    +0.089 C 
ATOM     25  C   UNL     1      -2.600   2.359   3.922  0.00  0.00    +0.054 C 
ATOM     26  C   UNL     1      -1.809   1.060   4.178  0.00  0.00    +0.168 C 
BRANCH  26  27
ATOM     27  C   UNL     1      -2.588   0.158   5.101  0.00  0.00    +0.324 C 
ATOM     28  O   UNL     1      -2.953  -0.928   4.717  0.00  0.00    -0.249 OA
BRANCH  27  29
ATOM     29  O   UNL     1      -2.877   0.562   6.348  0.00  0.00    -0.467 OA
ATOM     30  C   UNL     1      -3.619  -0.344   7.167  0.00  0.00    +0.280 C 
ENDBRANCH  27  29
ENDBRANCH  26  27
BRANCH  22  31
ATOM     31  C   UNL     1      -0.193   0.176   2.599  0.00  0.00    +0.120 C 
BRANCH  31  38
ATOM     32  C   UNL     1      -0.695  -2.669   2.655  0.00  0.00    +0.044 C 
ATOM     33  C   UNL     1      -0.286  -2.001   1.368  0.00  0.00    -0.046 A 
ATOM     34  C   UNL     1      -0.156  -2.748   0.212  0.00  0.00    +0.003 A 
ATOM     35  C   UNL     1       0.220  -2.136  -0.969  0.00  0.00    +0.000 A 
ATOM     36  C   UNL     1       0.465  -0.776  -0.994  0.00  0.00    +0.000 A 
ATOM     37  C   UNL     1       0.335  -0.028   0.161  0.00  0.00    +0.005 A 
ATOM     38  C   UNL     1      -0.045  -0.640   1.341  0.00  0.00    -0.030 A 
ENDBRANCH  31  38
ENDBRANCH  22  31
ENDBRANCH   1  24
TORSDOF 7
