REMARK  Name = ZINC14979149
REMARK  5 active torsions:
REMARK  status: ('A' for Active; 'I' for Inactive)
REMARK    1  A    between atoms: C_3  and  C_16
REMARK    2  A    between atoms: C_8  and  C_9
REMARK    3  A    between atoms: C_9  and  N_64
REMARK    4  A    between atoms: N_18  and  C_19
REMARK    5  A    between atoms: C_19  and  C_20
REMARK                            x       y       z     vdW  Elec       q    Type
REMARK                         _______ _______ _______ _____ _____    ______ ____
ROOT
ATOM      1  C   UNL     1      -2.204   5.903   3.696  0.00  0.00    +0.020 A 
ATOM      2  C   UNL     1      -1.708   6.357   4.918  0.00  0.00    +0.020 A 
ATOM      3  C   UNL     1      -0.843   5.538   5.641  0.00  0.00    +0.101 A 
ATOM      4  C   UNL     1      -0.501   4.267   5.111  0.00  0.00    +0.261 A 
ATOM      5  O   UNL     1       0.254   3.532   5.724  0.00  0.00    -0.267 OA
ATOM      6  N   UNL     1      -1.012   3.876   3.928  0.00  0.00    -0.327 N 
ATOM      7  H   UNL     1      -0.774   3.006   3.570  0.00  0.00    +0.169 HD
ATOM      8  C   UNL     1      -1.852   4.677   3.231  0.00  0.00    +0.003 A 
ENDROOT
BRANCH   3   9
ATOM      9  C   UNL     1      -0.295   5.983   6.931  0.00  0.00    +0.249 C 
ATOM     10  O   UNL     1      -0.677   7.026   7.427  0.00  0.00    -0.270 OA
ATOM     11  N   UNL     1       0.631   5.235   7.564  0.00  0.00    -0.311 N 
ATOM     12  H   UNL     1       0.883   4.370   7.205  0.00  0.00    +0.149 HD
BRANCH  11  13
ATOM     13  C   UNL     1       1.257   5.730   8.793  0.00  0.00    +0.108 C 
BRANCH  13  14
ATOM     14  C   UNL     1       2.264   4.697   9.304  0.00  0.00    +0.012 C 
ATOM     15  C   UNL     1       1.523   3.422   9.711  0.00  0.00    -0.006 C 
ATOM     16  C   UNL     1       2.530   2.389  10.222  0.00  0.00    +0.007 C 
ATOM     17  C   UNL     1       3.273   2.956  11.433  0.00  0.00    -0.010 C 
ATOM     18  C   UNL     1       2.269   3.281  12.541  0.00  0.00    +0.007 C 
ATOM     19  C   UNL     1       1.262   4.314  12.030  0.00  0.00    -0.010 C 
ATOM     20  C   UNL     1       0.519   3.747  10.819  0.00  0.00    +0.007 C 
ATOM     21  C   UNL     1       2.003   5.590  11.623  0.00  0.00    +0.007 C 
ATOM     22  C   UNL     1       3.007   5.264  10.515  0.00  0.00    -0.006 C 
ATOM     23  C   UNL     1       4.013   4.232  11.026  0.00  0.00    +0.007 C 
ENDBRANCH  13  14
ENDBRANCH  11  13
ENDBRANCH   3   9
BRANCH   8  24
ATOM     24  C   UNL     1      -2.402   4.201   1.911  0.00  0.00    -0.025 C 
BRANCH  24  31
ATOM     25  C   UNL     1      -1.662   3.074  -0.111  0.00  0.00    -0.078 C 
ATOM     26  C   UNL     1      -2.429   3.709  -1.239  0.00  0.00    -0.019 C 
ATOM     27  C   UNL     1      -1.429   4.119  -2.340  0.00  0.00    -0.002 C 
ATOM     28  C   UNL     1      -0.730   5.357  -2.014  0.00  0.00    -0.002 C 
ATOM     29  C   UNL     1       0.099   5.234  -0.719  0.00  0.00    -0.019 C 
ATOM     30  C   UNL     1      -0.831   5.353   0.458  0.00  0.00    -0.078 C 
ATOM     31  N   UNL     1      -1.269   4.018   0.991  0.00  0.00    +0.383 N 
ATOM     32  H   UNL     1      -0.485   3.603   1.508  0.00  0.00    -0.081 HD
ENDBRANCH  24  31
ENDBRANCH   8  24
TORSDOF 5
