REMARK  Name = ZINC04729924
REMARK  9 active torsions:
REMARK  status: ('A' for Active; 'I' for Inactive)
REMARK    1  A    between atoms: C_1  and  C_2
REMARK    2  A    between atoms: C_2  and  O_3
REMARK    3  A    between atoms: O_3  and  C_4
REMARK    4  A    between atoms: C_8  and  C_11
REMARK    5  A    between atoms: C_9  and  O_10
REMARK    6  A    between atoms: C_14  and  C_25
REMARK    7  A    between atoms: C_16  and  C_18
REMARK    8  A    between atoms: C_28  and  O_31
REMARK    9  A    between atoms: O_31  and  C_32
REMARK                            x       y       z     vdW  Elec       q    Type
REMARK                         _______ _______ _______ _____ _____    ______ ____
ROOT
ATOM      1  C   UNL     1       1.190   1.507   2.504  0.00  0.00    -0.028 C 
ATOM      2  C   UNL     1       0.177   2.605   2.843  0.00  0.00    +0.044 C 
ATOM      3  C   UNL     1      -0.256   2.462   4.276  0.00  0.00    +0.040 C 
ATOM      4  N   UNL     1       0.378   1.750   5.130  0.00  0.00    -0.299 NA
ATOM      5  C   UNL     1       1.581   0.986   4.827  0.00  0.00    +0.081 C 
ATOM      6  N   UNL     1       2.200   1.460   3.579  0.00  0.00    +0.401 N 
ATOM      7  H   UNL     1       2.585   2.400   3.726  0.00  0.00    -0.081 HD
ATOM      8  H   UNL     1       2.956   0.819   3.309  0.00  0.00    -0.081 HD
ENDROOT
BRANCH   5   9
ATOM      9  C   UNL     1       2.567   1.142   5.956  0.00  0.00    -0.038 A 
ATOM     10  C   UNL     1       2.113   1.348   7.245  0.00  0.00    +0.004 A 
ATOM     11  C   UNL     1       3.016   1.492   8.282  0.00  0.00    +0.003 A 
ATOM     12  C   UNL     1       4.374   1.429   8.031  0.00  0.00    +0.038 A 
ATOM     13  C   UNL     1       4.829   1.223   6.740  0.00  0.00    +0.124 A 
ATOM     14  C   UNL     1       3.924   1.074   5.703  0.00  0.00    +0.042 A 
ATOM     15  F   UNL     1       6.156   1.162   6.493  0.00  0.00    -0.205 F 
ENDBRANCH   5   9
BRANCH   1  20
ATOM     16  C   UNL     1       1.845   1.831  -1.210  0.00  0.00    +0.162 A 
ATOM     17  C   UNL     1       3.103   2.412  -1.214  0.00  0.00    +0.049 A 
ATOM     18  C   UNL     1       3.738   2.693  -0.018  0.00  0.00    +0.004 A 
ATOM     19  C   UNL     1       3.120   2.397   1.183  0.00  0.00    +0.006 A 
ATOM     20  C   UNL     1       1.863   1.823   1.193  0.00  0.00    -0.016 A 
ATOM     21  C   UNL     1       1.224   1.533  -0.001  0.00  0.00    +0.160 A 
BRANCH  21  22
ATOM     22  O   UNL     1      -0.011   0.963   0.007  0.00  0.00    -0.503 OA
ATOM     23  H   UNL     1       0.002  -0.004   0.002  0.00  0.00    +0.292 HD
ENDBRANCH  21  22
BRANCH  16  24
ATOM     24  O   UNL     1       1.219   1.555  -2.385  0.00  0.00    -0.489 OA
BRANCH  24  26
ATOM     25  C   UNL     1       1.062   1.506  -4.796  0.00  0.00    +0.048 C 
ATOM     26  C   UNL     1       1.917   1.889  -3.587  0.00  0.00    +0.226 C 
ENDBRANCH  24  26
ENDBRANCH  16  24
ENDBRANCH   1  20
BRANCH   3  27
ATOM     27  C   UNL     1      -1.468   3.176   4.717  0.00  0.00    -0.004 A 
ATOM     28  C   UNL     1      -2.184   3.967   3.814  0.00  0.00    +0.013 A 
ATOM     29  C   UNL     1      -3.319   4.628   4.229  0.00  0.00    +0.046 A 
ATOM     30  C   UNL     1      -3.747   4.517   5.546  0.00  0.00    +0.120 A 
ATOM     31  C   UNL     1      -3.035   3.736   6.449  0.00  0.00    +0.046 A 
ATOM     32  C   UNL     1      -1.903   3.067   6.041  0.00  0.00    +0.013 A 
BRANCH  30  33
ATOM     33  O   UNL     1      -4.863   5.175   5.953  0.00  0.00    -0.495 OA
ATOM     34  C   UNL     1      -5.546   5.960   4.974  0.00  0.00    +0.277 C 
ENDBRANCH  30  33
ENDBRANCH   3  27
TORSDOF 7
