REMARK  Name = ZINC39673789
REMARK  10 active torsions:
REMARK  status: ('A' for Active; 'I' for Inactive)
REMARK    1  A    between atoms: C_1  and  C_2
REMARK    2  A    between atoms: C_2  and  C_3
REMARK    3  A    between atoms: C_3  and  C_4
REMARK    4  A    between atoms: C_4  and  C_6
REMARK    5  A    between atoms: C_4  and  N_7
REMARK    6  A    between atoms: C_8  and  C_10
REMARK    7  A    between atoms: C_21  and  C_23
REMARK    8  A    between atoms: C_25  and  C_30
REMARK    9  A    between atoms: N_27  and  C_28
REMARK   10  A    between atoms: C_28  and  C_29
REMARK                            x       y       z     vdW  Elec       q    Type
REMARK                         _______ _______ _______ _____ _____    ______ ____
ROOT
ATOM      1  C   UNL     1      -2.123  -4.506  -0.942  0.00  0.00    +0.100 C 
ATOM      2  C   UNL     1      -2.536  -4.536  -2.431  0.00  0.00    +0.121 C 
ATOM      3  N   UNL     1      -2.414  -5.960  -2.824  0.00  0.00    -0.295 N 
ATOM      4  C   UNL     1      -2.917  -6.712  -1.650  0.00  0.00    +0.115 C 
ATOM      5  C   UNL     1      -2.378  -5.935  -0.432  0.00  0.00    -0.004 C 
ATOM      6  C   UNL     1      -3.416  -5.919   0.686  0.00  0.00    -0.010 C 
ATOM      7  C   UNL     1      -3.609  -7.343   1.216  0.00  0.00    -0.082 C 
ATOM      8  N   UNL     1      -2.329  -7.859   1.716  0.00  0.00    +0.379 N 
ATOM      9  C   UNL     1      -1.365  -7.958   0.614  0.00  0.00    -0.082 C 
ATOM     10  C   UNL     1      -1.076  -6.561   0.058  0.00  0.00    -0.010 C 
ATOM     11  C   UNL     1      -1.950  -6.458  -3.988  0.00  0.00    +0.266 C 
ATOM     12  O   UNL     1      -2.003  -7.655  -4.200  0.00  0.00    -0.268 OA
ATOM     13  H   UNL     1      -1.968  -7.235   2.422  0.00  0.00    -0.086 HD
ATOM     14  H   UNL     1      -2.471  -8.773   2.120  0.00  0.00    -0.086 HD
ENDROOT
BRANCH  11  15
ATOM     15  C   UNL     1      -1.381  -5.556  -5.000  0.00  0.00    +0.138 A 
ATOM     16  C   UNL     1      -0.041  -5.261  -5.191  0.00  0.00    +0.071 A 
ATOM     17  C   UNL     1      -0.010  -4.363  -6.262  0.00  0.00    +0.075 A 
ATOM     18  N   UNL     1      -1.242  -4.161  -6.653  0.00  0.00    -0.175 NA
ATOM     19  N   UNL     1      -2.067  -4.844  -5.944  0.00  0.00    -0.258 N 
ATOM     20  C   UNL     1       1.224  -3.739  -6.861  0.00  0.00    +0.069 C 
ATOM     21 BR   UNL     1       1.432  -5.930  -4.213  0.00  0.00    -0.046 Br
BRANCH  19  22
ATOM     22  C   UNL     1      -3.522  -4.855  -6.117  0.00  0.00    +0.141 C 
ATOM     23  C   UNL     1      -4.131  -3.652  -5.395  0.00  0.00    +0.029 C 
ENDBRANCH  19  22
ENDBRANCH  11  15
BRANCH   1  25
ATOM     24  N   UNL     1      -0.226  -3.495   0.281  0.00  0.00    -0.312 N 
ATOM     25  C   UNL     1      -0.663  -4.155  -0.810  0.00  0.00    +0.218 C 
ATOM     26  O   UNL     1       0.117  -4.465  -1.685  0.00  0.00    -0.275 OA
ATOM     27  H   UNL     1      -0.834  -3.310   1.013  0.00  0.00    +0.149 HD
BRANCH  24  28
ATOM     28  C   UNL     1       1.170  -3.057   0.361  0.00  0.00    +0.070 C 
ATOM     29  C   UNL     1       1.302  -1.661  -0.251  0.00  0.00    +0.028 C 
BRANCH  28  30
ATOM     30  C   UNL     1       1.609  -3.015   1.826  0.00  0.00    +0.022 C 
BRANCH  30  32
ATOM     31  C   UNL     1       2.034  -4.390   3.868  0.00  0.00    +0.004 C 
ATOM     32  C   UNL     1       1.595  -4.432   2.403  0.00  0.00    -0.002 C 
ENDBRANCH  30  32
ENDBRANCH  28  30
ENDBRANCH  24  28
ENDBRANCH   1  25
TORSDOF 6
