REMARK  Name = ZINC32831105
REMARK  4 active torsions:
REMARK  status: ('A' for Active; 'I' for Inactive)
REMARK    1  A    between atoms: C_6  and  C_7
REMARK    2  A    between atoms: C_10  and  C_12
REMARK    3  A    between atoms: C_13  and  C_14
REMARK    4  A    between atoms: C_13  and  C_16
REMARK                            x       y       z     vdW  Elec       q    Type
REMARK                         _______ _______ _______ _____ _____    ______ ____
ROOT
ATOM      1  C   UNL     1      -1.304   2.116   0.020  0.00  0.00    +0.020 A 
ATOM      2  C   UNL     1      -1.533   3.487   0.034  0.00  0.00    +0.017 A 
ATOM      3  C   UNL     1      -2.818   3.937   0.038  0.00  0.00    +0.016 A 
ATOM      4  C   UNL     1      -3.854   3.000   0.038  0.00  0.00    +0.014 A 
ATOM      5  S   UNL     1      -2.961   1.454   0.025  0.00  0.00    -0.089 S 
ENDROOT
BRANCH   1  11
ATOM      6  C   UNL     1       1.186   2.102   0.002  0.00  0.00    +0.010 A 
ATOM      7  C   UNL     1       2.385   1.421  -0.014  0.00  0.00    +0.022 A 
ATOM      8  C   UNL     1       2.399   0.036  -0.021  0.00  0.00    +0.059 A 
ATOM      9  C   UNL     1       1.208  -0.674  -0.013  0.00  0.00    +0.060 A 
ATOM     10  C   UNL     1       0.002  -0.004   0.002  0.00  0.00    +0.030 A 
ATOM     11  C   UNL     1      -0.017   1.393   0.010  0.00  0.00    -0.010 A 
ATOM     12 CL   UNL     1       1.235  -2.410  -0.023  0.00  0.00    -0.082 Cl
ATOM     13 CL   UNL     1       3.912  -0.814  -0.041  0.00  0.00    -0.082 Cl
ENDBRANCH   1  11
BRANCH   4  14
ATOM     14  C   UNL     1      -5.241   3.218   0.047  0.00  0.00    +0.039 C 
ATOM     15  C   UNL     1      -6.114   2.138   0.046  0.00  0.00    +0.115 C 
BRANCH  15  16
ATOM     16  C   UNL     1      -7.562   2.365   0.055  0.00  0.00    +0.262 C 
ATOM     17  O   UNL     1      -8.000   3.500   0.064  0.00  0.00    -0.269 OA
ATOM     18  N   UNL     1      -8.409   1.317   0.054  0.00  0.00    -0.236 N 
ATOM     19  C   UNL     1      -9.741   1.526   0.063  0.00  0.00    +0.304 C 
ATOM     20  O   UNL     1     -10.178   2.660   0.072  0.00  0.00    -0.253 OA
ATOM     21  N   UNL     1     -10.588   0.477   0.061  0.00  0.00    -0.313 N 
ATOM     22  H   UNL     1      -8.014   0.290   0.046  0.00  0.00    +0.159 HD
ATOM     23  H   UNL     1     -11.674   0.648   0.068  0.00  0.00    +0.146 HD
ATOM     24  H   UNL     1     -10.192  -0.549   0.053  0.00  0.00    +0.146 HD
ENDBRANCH  15  16
BRANCH  15  25
ATOM     25  C   UNL     1      -5.599   0.801   0.035  0.00  0.00    +0.104 C 
ATOM     26  N   UNL     1      -5.191  -0.259   0.027  0.00  0.00    -0.191 NA
ENDBRANCH  15  25
ENDBRANCH   4  14
TORSDOF 4
