REMARK  Name = ZINC20813060
REMARK  8 active torsions:
REMARK  status: ('A' for Active; 'I' for Inactive)
REMARK    1  A    between atoms: C_1  and  C_2
REMARK    2  A    between atoms: C_2  and  N_3
REMARK    3  A    between atoms: C_10  and  C_22
REMARK    4  A    between atoms: C_12  and  C_18
REMARK    5  A    between atoms: C_12  and  C_20
REMARK    6  A    between atoms: C_13  and  N_17
REMARK    7  A    between atoms: C_14  and  C_15
REMARK    8  A    between atoms: C_27  and  C_28
REMARK                            x       y       z     vdW  Elec       q    Type
REMARK                         _______ _______ _______ _____ _____    ______ ____
ROOT
ATOM      1  N   UNL     1      -0.645   0.746   3.308  0.00  0.00    -0.298 NA
ATOM      2  C   UNL     1      -2.080   0.970   3.557  0.00  0.00    +0.112 C 
ATOM      3  C   UNL     1      -2.799   0.850   2.236  0.00  0.00    -0.007 C 
ATOM      4  C   UNL     1      -2.198   1.215   1.119  0.00  0.00    -0.026 C 
ATOM      5  C   UNL     1      -0.819   1.810   1.087  0.00  0.00    +0.044 C 
ATOM      6  C   UNL     1      -0.115   1.789   2.426  0.00  0.00    +0.093 C 
ATOM      7  C   UNL     1      -0.013   1.086   0.008  0.00  0.00    +0.068 C 
ATOM      8  C   UNL     1      -0.662   1.338  -1.353  0.00  0.00    +0.188 C 
ATOM      9  C   UNL     1      -2.134   1.040  -1.327  0.00  0.00    +0.054 C 
ATOM     10  C   UNL     1      -2.868   0.990  -0.186  0.00  0.00    +0.074 C 
ENDROOT
BRANCH   7  11
ATOM     11  C   UNL     1       1.400   1.610  -0.003  0.00  0.00    -0.029 A 
ATOM     12  C   UNL     1       1.633   2.969  -0.106  0.00  0.00    +0.004 A 
ATOM     13  C   UNL     1       2.929   3.449  -0.116  0.00  0.00    +0.000 A 
ATOM     14  C   UNL     1       3.993   2.571  -0.022  0.00  0.00    +0.001 A 
ATOM     15  C   UNL     1       3.760   1.212   0.083  0.00  0.00    +0.012 A 
ATOM     16  C   UNL     1       2.463   0.732   0.097  0.00  0.00    +0.058 A 
BRANCH  16  17
ATOM     17  C   UNL     1       2.210  -0.749   0.216  0.00  0.00    +0.418 C 
ATOM     18  F   UNL     1       3.431  -1.426   0.303  0.00  0.00    -0.166 F 
ATOM     19  F   UNL     1       1.454  -1.001   1.367  0.00  0.00    -0.166 F 
ATOM     20  F   UNL     1       1.508  -1.194  -0.909  0.00  0.00    -0.166 F 
ENDBRANCH  16  17
ENDBRANCH   7  11
BRANCH   9  21
ATOM     21  N   UNL     1      -2.767   0.808  -2.515  0.00  0.00    -0.358 N 
ATOM     22  H   UNL     1      -3.845   0.587  -2.530  0.00  0.00    +0.142 HD
ATOM     23  H   UNL     1      -2.199   0.841  -3.457  0.00  0.00    +0.142 HD
ENDBRANCH   9  21
BRANCH   1  25
ATOM     24  C   UNL     1       0.064   2.062   5.247  0.00  0.00    +0.020 C 
ATOM     25  C   UNL     1       0.106   0.691   4.569  0.00  0.00    +0.081 C 
ENDBRANCH   1  25
BRANCH  10  26
ATOM     26  C   UNL     1      -4.274   0.723  -0.242  0.00  0.00    +0.101 C 
ATOM     27  N   UNL     1      -5.389   0.512  -0.286  0.00  0.00    -0.191 NA
ENDBRANCH  10  26
BRANCH   8  28
ATOM     28  C   UNL     1      -0.464   2.748  -1.726  0.00  0.00    +0.091 C 
ATOM     29  N   UNL     1      -0.311   3.836  -2.013  0.00  0.00    -0.194 NA
ENDBRANCH   8  28
BRANCH   8  30
ATOM     30  C   UNL     1      -0.014   0.482  -2.360  0.00  0.00    +0.091 C 
ATOM     31  N   UNL     1       0.486  -0.179  -3.137  0.00  0.00    -0.194 NA
ENDBRANCH   8  30
TORSDOF 7
