REMARK  Name = ZINC34787940
REMARK  6 active torsions:
REMARK  status: ('A' for Active; 'I' for Inactive)
REMARK    1  A    between atoms: C_1  and  C_2
REMARK    2  A    between atoms: C_7  and  C_8
REMARK    3  A    between atoms: N_17  and  C_18
REMARK    4  A    between atoms: C_18  and  C_19
REMARK    5  A    between atoms: C_28  and  C_30
REMARK    6  A    between atoms: C_34  and  N_36
REMARK                            x       y       z     vdW  Elec       q    Type
REMARK                         _______ _______ _______ _____ _____    ______ ____
ROOT
ATOM      1  C   UNL     1      -1.218  -2.690   3.540  0.00  0.00    +0.199 C 
ATOM      2  O   UNL     1      -0.252  -2.930   4.234  0.00  0.00    -0.278 OA
ATOM      3  N   UNL     1      -2.440  -3.116   3.917  0.00  0.00    -0.301 N 
ATOM      4  C   UNL     1      -2.634  -3.843   5.123  0.00  0.00    +0.109 C 
ATOM      5  C   UNL     1      -2.367  -5.379   5.008  0.00  0.00    +0.038 C 
ATOM      6  C   UNL     1      -2.900  -5.839   3.611  0.00  0.00    +0.109 C 
ATOM      7  N   UNL     1      -4.103  -5.206   3.199  0.00  0.00    -0.296 N 
ATOM      8  C   UNL     1      -3.973  -4.029   2.302  0.00  0.00    +0.127 C 
ATOM      9  C   UNL     1      -3.645  -2.841   3.093  0.00  0.00    +0.126 C 
ATOM     10  C   UNL     1      -5.308  -5.654   3.602  0.00  0.00    +0.247 C 
ATOM     11  O   UNL     1      -5.381  -6.556   4.414  0.00  0.00    -0.270 OA
ENDROOT
BRANCH  10  12
ATOM     12  C   UNL     1      -6.542  -5.049   3.057  0.00  0.00    +0.039 A 
ATOM     13  C   UNL     1      -7.558  -5.863   2.552  0.00  0.00    +0.013 A 
ATOM     14  C   UNL     1      -8.707  -5.292   2.045  0.00  0.00    +0.003 A 
ATOM     15  C   UNL     1      -8.854  -3.916   2.036  0.00  0.00    +0.033 A 
ATOM     16  C   UNL     1      -7.850  -3.104   2.534  0.00  0.00    +0.127 A 
ATOM     17  C   UNL     1      -6.699  -3.663   3.049  0.00  0.00    +0.045 A 
BRANCH  16  18
ATOM     18  N   UNL     1      -8.016  -1.633   2.519  0.00  0.00    +0.056 N 
ATOM     19  O   UNL     1      -9.026  -1.143   2.072  0.00  0.00    -0.126 OA
ATOM     20  O   UNL     1      -7.140  -0.922   2.954  0.00  0.00    -0.126 OA
ENDBRANCH  16  18
ENDBRANCH  10  12
BRANCH   1  21
ATOM     21  C   UNL     1      -1.052  -1.917   2.258  0.00  0.00    +0.020 C 
BRANCH  21  30
ATOM     22  C   UNL     1       0.538  -0.924   0.769  0.00  0.00    -0.005 C 
ATOM     23  C   UNL     1       1.989  -0.475   0.630  0.00  0.00    -0.047 A 
ATOM     24  C   UNL     1       2.603  -0.187  -0.586  0.00  0.00    +0.010 A 
ATOM     25  C   UNL     1       3.900   0.202  -0.615  0.00  0.00    +0.045 A 
ATOM     26  S   UNL     1       4.329   0.183   1.120  0.00  0.00    -0.101 S 
ATOM     27  C   UNL     1       2.758  -0.338   1.747  0.00  0.00    -0.010 A 
ATOM     28  C   UNL     1       2.327  -0.582   3.156  0.00  0.00    +0.024 C 
ATOM     29  C   UNL     1       0.791  -0.677   3.161  0.00  0.00    -0.072 C 
ATOM     30  N   UNL     1       0.364  -1.571   2.075  0.00  0.00    +0.393 N 
ATOM     31  H   UNL     1       0.918  -2.414   2.103  0.00  0.00    -0.080 HD
BRANCH  22  38
ATOM     32  C   UNL     1      -0.500   0.033  -1.752  0.00  0.00    +0.044 C 
ATOM     33  C   UNL     1      -0.292  -1.444  -1.534  0.00  0.00    -0.049 A 
ATOM     34  C   UNL     1      -0.593  -2.340  -2.543  0.00  0.00    +0.003 A 
ATOM     35  C   UNL     1      -0.403  -3.695  -2.343  0.00  0.00    +0.000 A 
ATOM     36  C   UNL     1       0.089  -4.153  -1.135  0.00  0.00    +0.000 A 
ATOM     37  C   UNL     1       0.390  -3.256  -0.127  0.00  0.00    +0.002 A 
ATOM     38  C   UNL     1       0.204  -1.901  -0.328  0.00  0.00    -0.054 A 
ENDBRANCH  22  38
ENDBRANCH  21  30
ENDBRANCH   1  21
TORSDOF 5
