REMARK  Name = ZINC39771885
REMARK  14 active torsions:
REMARK  status: ('A' for Active; 'I' for Inactive)
REMARK    1  A    between atoms: C_1  and  C_2
REMARK    2  A    between atoms: C_4  and  C_12
REMARK    3  A    between atoms: C_12  and  C_14
REMARK    4  A    between atoms: C_14  and  C_16
REMARK    5  A    between atoms: C_14  and  S_17
REMARK    6  A    between atoms: S_17  and  C_18
REMARK    7  A    between atoms: C_22  and  C_34
REMARK    8  A    between atoms: N_28  and  C_29
REMARK    9  A    between atoms: C_29  and  C_30
REMARK   10  A    between atoms: C_30  and  C_31
REMARK   11  A    between atoms: C_31  and  O_32
REMARK   12  A    between atoms: O_32  and  C_33
REMARK   13  A    between atoms: C_34  and  O_36
REMARK   14  A    between atoms: O_36  and  C_37
REMARK                            x       y       z     vdW  Elec       q    Type
REMARK                         _______ _______ _______ _____ _____    ______ ____
ROOT
ATOM      1  C   UNL     1       2.338  -0.281  -6.244  0.00  0.00    +0.173 A 
ATOM      2  N   UNL     1       3.062  -1.314  -5.890  0.00  0.00    -0.223 NA
ATOM      3  C   UNL     1       4.008  -1.831  -6.709  0.00  0.00    +0.080 A 
ATOM      4  C   UNL     1       4.779  -2.934  -6.330  0.00  0.00    +0.043 A 
ATOM      5  C   UNL     1       5.738  -3.429  -7.204  0.00  0.00    +0.061 A 
ATOM      6  C   UNL     1       5.936  -2.832  -8.455  0.00  0.00    +0.016 A 
ATOM      7  C   UNL     1       5.189  -1.754  -8.836  0.00  0.00    +0.016 A 
ATOM      8  C   UNL     1       4.220  -1.240  -7.975  0.00  0.00    +0.065 A 
ATOM      9  C   UNL     1       3.394  -0.081  -8.346  0.00  0.00    +0.262 A 
ATOM     10  O   UNL     1       3.528   0.472  -9.422  0.00  0.00    -0.267 OA
ATOM     11  N   UNL     1       2.474   0.346  -7.450  0.00  0.00    -0.287 N 
ENDROOT
BRANCH   5  12
ATOM     12  C   UNL     1       6.558  -4.596  -6.809  0.00  0.00    +0.339 C 
ATOM     13  O   UNL     1       6.391  -5.117  -5.725  0.00  0.00    -0.245 OA
BRANCH  12  14
ATOM     14  O   UNL     1       7.490  -5.080  -7.653  0.00  0.00    -0.464 OA
ATOM     15  C   UNL     1       8.244  -6.209  -7.207  0.00  0.00    +0.280 C 
ENDBRANCH  12  14
ENDBRANCH   5  12
BRANCH   1  16
ATOM     16  S   UNL     1       1.129   0.324  -5.115  0.00  0.00    -0.076 S 
BRANCH  16  17
ATOM     17  C   UNL     1       1.283  -0.772  -3.678  0.00  0.00    +0.122 C 
ATOM     18  C   UNL     1       0.883  -2.194  -4.076  0.00  0.00    +0.028 C 
BRANCH  17  19
ATOM     19  C   UNL     1       0.379  -0.286  -2.575  0.00  0.00    +0.175 C 
ATOM     20  O   UNL     1      -0.607   0.370  -2.844  0.00  0.00    -0.291 OA
BRANCH  19  23
ATOM     21  C   UNL     1       0.047   1.434   0.081  0.00  0.00    +0.035 C 
ATOM     22  C   UNL     1      -0.041  -0.091   0.003  0.00  0.00    +0.111 C 
ATOM     23  C   UNL     1       0.677  -0.592  -1.230  0.00  0.00    +0.027 C 
ATOM     24  C   UNL     1       1.688  -1.413  -0.764  0.00  0.00    +0.006 A 
ATOM     25  C   UNL     1       2.691  -2.170  -1.415  0.00  0.00    +0.010 A 
ATOM     26  C   UNL     1       3.569  -2.902  -0.694  0.00  0.00    +0.001 A 
ATOM     27  C   UNL     1       3.536  -2.950   0.709  0.00  0.00    +0.002 A 
ATOM     28  C   UNL     1       2.620  -2.264   1.427  0.00  0.00    +0.026 A 
ATOM     29  C   UNL     1       1.625  -1.442   0.718  0.00  0.00    +0.043 A 
ATOM     30  N   UNL     1       0.647  -0.695   1.149  0.00  0.00    -0.377 N 
ATOM     31  H   UNL     1       0.411  -0.560   2.080  0.00  0.00    +0.160 HD
ENDBRANCH  19  23
ENDBRANCH  17  19
ENDBRANCH  16  17
ENDBRANCH   1  16
BRANCH  11  32
ATOM     32  C   UNL     1       1.623   1.493  -7.772  0.00  0.00    +0.129 C 
BRANCH  32  33
ATOM     33  C   UNL     1       2.306   2.782  -7.312  0.00  0.00    +0.050 C 
BRANCH  33  34
ATOM     34  C   UNL     1       1.416   3.980  -7.649  0.00  0.00    +0.161 C 
BRANCH  34  35
ATOM     35  O   UNL     1       2.055   5.184  -7.218  0.00  0.00    -0.383 OA
ATOM     36  C   UNL     1       1.303   6.369  -7.487  0.00  0.00    +0.193 C 
ENDBRANCH  34  35
ENDBRANCH  33  34
ENDBRANCH  32  33
ENDBRANCH  11  32
TORSDOF 10
