REMARK  Name = ZINC63658913
REMARK  11 active torsions:
REMARK  status: ('A' for Active; 'I' for Inactive)
REMARK    1  A    between atoms: C_1  and  C_2
REMARK    2  A    between atoms: C_5  and  C_32
REMARK    3  A    between atoms: C_6  and  N_8
REMARK    4  A    between atoms: N_8  and  C_9
REMARK    5  A    between atoms: C_9  and  N_11
REMARK    6  A    between atoms: N_11  and  C_12
REMARK    7  A    between atoms: N_11  and  C_26
REMARK    8  A    between atoms: C_12  and  C_13
REMARK    9  A    between atoms: C_13  and  C_14
REMARK   10  A    between atoms: C_22  and  C_24
REMARK   11  A    between atoms: C_26  and  C_27
REMARK                            x       y       z     vdW  Elec       q    Type
REMARK                         _______ _______ _______ _____ _____    ______ ____
ROOT
ATOM      1  N   UNL     1       0.266  -2.819   4.717  0.00  0.00    -0.305 N 
ENDROOT
BRANCH   1   2
ATOM      2  C   UNL     1       0.149  -2.135   3.562  0.00  0.00    +0.138 C 
ATOM      3  S   UNL     1       0.127  -0.423   3.580  0.00  0.00    -0.018 S 
BRANCH   2   4
ATOM      4  N   UNL     1       0.051  -2.797   2.392  0.00  0.00    -0.297 N 
ATOM      5  H   UNL     1      -0.016  -3.765   2.387  0.00  0.00    +0.154 HD
BRANCH   4  11
ATOM      6  C   UNL     1       1.918   0.768  -0.431  0.00  0.00    +0.044 C 
ATOM      7  C   UNL     1       0.940  -0.357  -0.210  0.00  0.00    -0.049 A 
ATOM      8  C   UNL     1       0.035  -0.690  -1.201  0.00  0.00    +0.004 A 
ATOM      9  C   UNL     1      -0.865  -1.721  -1.002  0.00  0.00    +0.005 A 
ATOM     10  C   UNL     1      -0.862  -2.422   0.188  0.00  0.00    -0.029 A 
ATOM     11  C   UNL     1       0.046  -2.090   1.185  0.00  0.00    +0.036 A 
ATOM     12  C   UNL     1       0.952  -1.057   0.980  0.00  0.00    +0.027 A 
ATOM     13  C   UNL     1      -1.842  -3.546   0.405  0.00  0.00    +0.045 C 
ENDBRANCH   4  11
ENDBRANCH   2   4
ENDBRANCH   1   2
BRANCH   1  14
ATOM     14  C   UNL     1       0.373  -2.099   5.988  0.00  0.00    +0.111 C 
BRANCH  14  15
ATOM     15  C   UNL     1      -1.026  -1.869   6.563  0.00  0.00    +0.052 C 
BRANCH  15  16
ATOM     16  C   UNL     1      -0.917  -1.127   7.870  0.00  0.00    -0.037 C 
ATOM     17  C   UNL     1       0.218  -0.707   8.474  0.00  0.00    +0.001 A 
ATOM     18  C   UNL     1       1.636  -0.810   8.107  0.00  0.00    +0.030 A 
ATOM     19  C   UNL     1       2.568  -0.281   8.934  0.00  0.00    +0.042 A 
ATOM     20  C   UNL     1       2.212   0.363  10.129  0.00  0.00    +0.022 A 
ATOM     21  C   UNL     1       0.931   0.497  10.531  0.00  0.00    +0.027 A 
ATOM     22  C   UNL     1      -0.130  -0.022   9.739  0.00  0.00    +0.043 A 
ATOM     23  N   UNL     1      -1.429  -0.020   9.912  0.00  0.00    -0.378 N 
ATOM     24  C   UNL     1      -2.054  -0.698   8.770  0.00  0.00    +0.103 C 
ATOM     25  C   UNL     1      -2.837  -1.921   9.251  0.00  0.00    +0.035 C 
ATOM     26 CL   UNL     1       4.245  -0.401   8.504  0.00  0.00    -0.084 Cl
ATOM     27  H   UNL     1      -1.899   0.369  10.666  0.00  0.00    +0.160 HD
ENDBRANCH  15  16
ENDBRANCH  14  15
ENDBRANCH   1  14
BRANCH   1  28
ATOM     28  C   UNL     1       0.285  -4.284   4.701  0.00  0.00    +0.181 C 
BRANCH  28  29
ATOM     29  C   UNL     1       1.707  -4.766   4.565  0.00  0.00    +0.122 A 
ATOM     30  C   UNL     1       2.547  -5.033   5.581  0.00  0.00    +0.046 A 
ATOM     31  C   UNL     1       3.767  -5.454   5.003  0.00  0.00    +0.041 A 
ATOM     32  C   UNL     1       3.599  -5.419   3.669  0.00  0.00    +0.195 A 
ATOM     33  O   UNL     1       2.347  -5.007   3.410  0.00  0.00    -0.466 OA
ENDBRANCH  28  29
ENDBRANCH   1  28
TORSDOF 8
