REMARK  Name = ZINC03165726
REMARK  9 active torsions:
REMARK  status: ('A' for Active; 'I' for Inactive)
REMARK    1  A    between atoms: C_1  and  C_2
REMARK    2  A    between atoms: C_7  and  O_8
REMARK    3  A    between atoms: O_8  and  C_9
REMARK    4  A    between atoms: C_9  and  C_10
REMARK    5  A    between atoms: N_12  and  N_13
REMARK    6  A    between atoms: C_14  and  C_15
REMARK    7  A    between atoms: C_18  and  S_20
REMARK    8  A    between atoms: S_20  and  C_21
REMARK    9  A    between atoms: N_31  and  C_32
REMARK                            x       y       z     vdW  Elec       q    Type
REMARK                         _______ _______ _______ _____ _____    ______ ____
ROOT
ATOM      1  C   UNL     1      -1.830  -6.579   2.690  0.00  0.00    +0.149 A 
ATOM      2  C   UNL     1      -2.616  -7.518   3.295  0.00  0.00    +0.052 A 
ATOM      3  C   UNL     1      -2.076  -8.772   2.968  0.00  0.00    +0.057 A 
ATOM      4  C   UNL     1      -0.990  -8.545   2.182  0.00  0.00    +0.169 A 
ATOM      5  O   UNL     1      -0.851  -7.219   2.014  0.00  0.00    -0.447 OA
ENDROOT
BRANCH   1   7
ATOM      6  N   UNL     1      -1.196  -4.335   2.133  0.00  0.00    -0.185 NA
ATOM      7  C   UNL     1      -2.019  -5.129   2.757  0.00  0.00    +0.176 C 
BRANCH   6  10
ATOM      8  C   UNL     1      -0.526  -2.126   1.552  0.00  0.00    +0.270 C 
ATOM      9  O   UNL     1       0.397  -2.588   0.915  0.00  0.00    -0.270 OA
ATOM     10  N   UNL     1      -1.378  -2.948   2.198  0.00  0.00    -0.204 N 
ATOM     11  H   UNL     1      -2.116  -2.578   2.708  0.00  0.00    +0.177 HD
BRANCH   8  12
ATOM     12  C   UNL     1      -0.721  -0.633   1.622  0.00  0.00    +0.326 C 
BRANCH  12  13
ATOM     13  O   UNL     1       0.300   0.016   0.862  0.00  0.00    -0.482 OA
BRANCH  13  20
ATOM     14  C   UNL     1       2.311   1.320  -0.633  0.00  0.00    +0.047 C 
ATOM     15  C   UNL     1       1.230   2.070   0.103  0.00  0.00    -0.009 A 
ATOM     16  C   UNL     1       1.196   3.450   0.062  0.00  0.00    +0.007 A 
ATOM     17  C   UNL     1       0.205   4.139   0.736  0.00  0.00    +0.000 A 
ATOM     18  C   UNL     1      -0.755   3.448   1.453  0.00  0.00    +0.004 A 
ATOM     19  C   UNL     1      -0.728   2.067   1.493  0.00  0.00    +0.046 A 
ATOM     20  C   UNL     1       0.269   1.374   0.821  0.00  0.00    +0.124 A 
ENDBRANCH  13  20
ENDBRANCH  12  13
ENDBRANCH   8  12
ENDBRANCH   6  10
ENDBRANCH   1   7
BRANCH   4  21
ATOM     21  S   UNL     1       0.057  -9.784   1.493  0.00  0.00    -0.014 S 
BRANCH  21  22
ATOM     22  C   UNL     1       1.205  -8.766   0.626  0.00  0.00    +0.184 A 
ATOM     23  N   UNL     1       1.050  -7.467   0.676  0.00  0.00    -0.222 NA
ATOM     24  C   UNL     1       1.891  -6.629   0.037  0.00  0.00    +0.079 A 
ATOM     25  C   UNL     1       1.725  -5.242   0.091  0.00  0.00    +0.028 A 
ATOM     26  C   UNL     1       2.600  -4.429  -0.572  0.00  0.00    +0.002 A 
ATOM     27  C   UNL     1       3.657  -4.961  -1.301  0.00  0.00    +0.001 A 
ATOM     28  C   UNL     1       3.847  -6.313  -1.372  0.00  0.00    +0.015 A 
ATOM     29  C   UNL     1       2.968  -7.166  -0.705  0.00  0.00    +0.065 A 
ATOM     30  C   UNL     1       3.122  -8.626  -0.747  0.00  0.00    +0.267 A 
ATOM     31  O   UNL     1       4.029  -9.148  -1.369  0.00  0.00    -0.267 OA
ATOM     32  N   UNL     1       2.221  -9.370  -0.064  0.00  0.00    -0.255 N 
BRANCH  32  33
ATOM     33  C   UNL     1       2.326 -10.767  -0.067  0.00  0.00    +0.052 A 
ATOM     34  C   UNL     1       1.679 -11.510  -1.045  0.00  0.00    +0.026 A 
ATOM     35  C   UNL     1       1.790 -12.887  -1.050  0.00  0.00    +0.002 A 
ATOM     36  C   UNL     1       2.533 -13.526  -0.074  0.00  0.00    +0.000 A 
ATOM     37  C   UNL     1       3.173 -12.788   0.905  0.00  0.00    +0.002 A 
ATOM     38  C   UNL     1       3.072 -11.411   0.911  0.00  0.00    +0.026 A 
ENDBRANCH  32  33
ENDBRANCH  21  22
ENDBRANCH   4  21
TORSDOF 8
