REMARK  Name = ZINC23648498
REMARK  9 active torsions:
REMARK  status: ('A' for Active; 'I' for Inactive)
REMARK    1  A    between atoms: C_1  and  C_2
REMARK    2  A    between atoms: C_2  and  C_4
REMARK    3  A    between atoms: C_2  and  S_15
REMARK    4  A    between atoms: N_6  and  C_7
REMARK    5  A    between atoms: S_15  and  C_16
REMARK    6  A    between atoms: C_19  and  C_22
REMARK    7  A    between atoms: N_20  and  N_21
REMARK    8  A    between atoms: C_25  and  O_28
REMARK    9  A    between atoms: O_28  and  C_29
REMARK                            x       y       z     vdW  Elec       q    Type
REMARK                         _______ _______ _______ _____ _____    ______ ____
ROOT
ATOM      1  C   UNL     1      -1.117   2.159   0.054  0.00  0.00    +0.209 A 
ATOM      2  N   UNL     1      -0.682   3.399   0.064  0.00  0.00    -0.121 NA
ATOM      3  N   UNL     1       0.603   3.416   0.062  0.00  0.00    -0.127 NA
ATOM      4  C   UNL     1       1.067   2.188   0.056  0.00  0.00    +0.182 A 
ATOM      5  N   UNL     1      -0.020   1.345   0.054  0.00  0.00    -0.224 N 
ENDROOT
BRANCH   4   6
ATOM      6  C   UNL     1       2.490   1.788   0.051  0.00  0.00    +0.021 A 
ATOM      7  C   UNL     1       2.848   0.475   0.362  0.00  0.00    +0.015 A 
ATOM      8  C   UNL     1       4.176   0.104   0.352  0.00  0.00    +0.046 A 
ATOM      9  C   UNL     1       5.157   1.036   0.043  0.00  0.00    +0.127 A 
ATOM     10  C   UNL     1       4.805   2.345  -0.262  0.00  0.00    +0.046 A 
ATOM     11  C   UNL     1       3.479   2.723  -0.259  0.00  0.00    +0.015 A 
BRANCH   9  12
ATOM     12  O   UNL     1       6.465   0.668   0.038  0.00  0.00    -0.434 OA
BRANCH  12  13
ATOM     13  C   UNL     1       6.757  -0.693   0.360  0.00  0.00    +0.541 C 
ATOM     14  F   UNL     1       6.290  -0.978   1.649  0.00  0.00    -0.166 F 
ATOM     15  F   UNL     1       6.125  -1.536  -0.561  0.00  0.00    -0.166 F 
ENDBRANCH  12  13
ENDBRANCH   9  12
ENDBRANCH   4   6
BRANCH   5  16
ATOM     16  N   UNL     1      -0.005  -0.021   0.047  0.00  0.00    -0.295 N 
ATOM     17  H   UNL     1       0.953  -0.560   0.047  0.00  0.00    +0.163 HD
ATOM     18  H   UNL     1      -0.952  -0.581   0.041  0.00  0.00    +0.163 HD
ENDBRANCH   5  16
BRANCH   1  19
ATOM     19  S   UNL     1      -2.802   1.642   0.047  0.00  0.00    -0.072 S 
BRANCH  19  21
ATOM     20  C   UNL     1      -3.310   3.992  -1.251  0.00  0.00    +0.029 C 
ATOM     21  C   UNL     1      -3.625   3.254   0.052  0.00  0.00    +0.137 C 
BRANCH  21  22
ATOM     22  C   UNL     1      -5.114   3.057   0.170  0.00  0.00    +0.230 C 
ATOM     23  O   UNL     1      -5.609   1.987  -0.116  0.00  0.00    -0.274 OA
ATOM     24  N   UNL     1      -5.897   4.070   0.594  0.00  0.00    -0.283 N 
ATOM     25  H   UNL     1      -5.442   5.015   0.923  0.00  0.00    +0.155 HD
BRANCH  24  26
ATOM     26  C   UNL     1      -7.288   3.918   0.615  0.00  0.00    +0.052 A 
ATOM     27  C   UNL     1      -7.849   2.683   0.914  0.00  0.00    +0.026 A 
ATOM     28  C   UNL     1      -9.222   2.536   0.935  0.00  0.00    +0.022 A 
ATOM     29  C   UNL     1     -10.040   3.617   0.657  0.00  0.00    +0.042 A 
ATOM     30  C   UNL     1      -9.485   4.849   0.358  0.00  0.00    +0.041 A 
ATOM     31  C   UNL     1      -8.111   5.003   0.341  0.00  0.00    +0.064 A 
ATOM     32 CL   UNL     1      -7.415   6.550  -0.027  0.00  0.00    -0.082 Cl
ATOM     33 CL   UNL     1     -11.765   3.428   0.684  0.00  0.00    -0.083 Cl
ENDBRANCH  24  26
ENDBRANCH  21  22
ENDBRANCH  19  21
ENDBRANCH   1  19
TORSDOF 8
