REMARK  Name = ZINC39702817
REMARK  4 active torsions:
REMARK  status: ('A' for Active; 'I' for Inactive)
REMARK    1  A    between atoms: C_1  and  C_2
REMARK    2  A    between atoms: C_2  and  C_34
REMARK    3  A    between atoms: C_6  and  C_19
REMARK    4  A    between atoms: C_24  and  C_25
REMARK                            x       y       z     vdW  Elec       q    Type
REMARK                         _______ _______ _______ _____ _____    ______ ____
ROOT
ATOM      1  C   UNL     1      -0.231   2.099   1.170  0.00  0.00    +0.011 C 
ATOM      2  C   UNL     1      -0.104   0.600   0.875  0.00  0.00    -0.024 C 
ATOM      3  C   UNL     1      -1.501  -0.001   0.713  0.00  0.00    +0.043 C 
ATOM      4  C   UNL     1      -1.433  -1.492   0.524  0.00  0.00    -0.029 C 
ATOM      5  C   UNL     1      -0.412  -2.203   1.084  0.00  0.00    +0.020 C 
ATOM      6  C   UNL     1      -0.336  -3.702   0.913  0.00  0.00    +0.119 C 
ATOM      7  N   UNL     1      -0.976  -4.075  -0.351  0.00  0.00    -0.335 N 
ATOM      8  C   UNL     1      -2.184  -3.471  -0.672  0.00  0.00    +0.036 A 
ATOM      9  C   UNL     1      -2.433  -2.163  -0.223  0.00  0.00    +0.007 A 
ATOM     10  C   UNL     1      -3.734  -1.569  -0.532  0.00  0.00    -0.009 A 
ATOM     11  C   UNL     1      -4.155  -0.339  -0.022  0.00  0.00    +0.009 A 
ATOM     12  C   UNL     1      -5.355   0.194  -0.401  0.00  0.00    +0.001 A 
ATOM     13  C   UNL     1      -6.196  -0.486  -1.276  0.00  0.00    +0.001 A 
ATOM     14  C   UNL     1      -5.847  -1.712  -1.753  0.00  0.00    +0.008 A 
ATOM     15  C   UNL     1      -4.628  -2.294  -1.364  0.00  0.00    -0.017 A 
ATOM     16  C   UNL     1      -4.305  -3.598  -1.784  0.00  0.00    +0.010 A 
ATOM     17  C   UNL     1      -3.121  -4.163  -1.439  0.00  0.00    +0.024 A 
ATOM     18  C   UNL     1       0.599  -1.573   1.824  0.00  0.00    +0.162 C 
ATOM     19  O   UNL     1       1.500  -2.242   2.294  0.00  0.00    -0.292 OA
ATOM     20  C   UNL     1       0.598  -0.087   2.048  0.00  0.00    +0.086 C 
ATOM     21  C   UNL     1       0.704   0.405  -0.408  0.00  0.00    +0.011 C 
ATOM     22  H   UNL     1      -0.568  -4.720  -0.948  0.00  0.00    +0.147 HD
ENDROOT
BRANCH   6  23
ATOM     23  C   UNL     1      -1.054  -4.392   2.075  0.00  0.00    +0.108 C 
ATOM     24  C   UNL     1      -2.418  -3.772   2.303  0.00  0.00    +0.119 C 
ATOM     25  N   UNL     1      -2.396  -3.287   3.502  0.00  0.00    -0.161 NA
ATOM     26  N   UNL     1      -1.176  -3.495   4.138  0.00  0.00    -0.153 NA
ATOM     27  C   UNL     1      -0.326  -4.138   3.380  0.00  0.00    +0.081 C 
BRANCH  27  28
ATOM     28  C   UNL     1       1.051  -4.532   3.720  0.00  0.00    -0.001 A 
ATOM     29  C   UNL     1       1.785  -5.343   2.849  0.00  0.00    +0.010 A 
ATOM     30  C   UNL     1       3.074  -5.708   3.175  0.00  0.00    +0.001 A 
ATOM     31  C   UNL     1       3.641  -5.275   4.360  0.00  0.00    +0.000 A 
ATOM     32  C   UNL     1       2.921  -4.472   5.228  0.00  0.00    +0.001 A 
ATOM     33  C   UNL     1       1.633  -4.093   4.913  0.00  0.00    +0.010 A 
ENDBRANCH  27  28
ENDBRANCH   6  23
TORSDOF 2
