REMARK  Name = ZINC21133128
REMARK  4 active torsions:
REMARK  status: ('A' for Active; 'I' for Inactive)
REMARK    1  A    between atoms: C_6  and  N_7
REMARK    2  A    between atoms: C_8  and  C_10
REMARK    3  A    between atoms: C_10  and  C_11
REMARK    4  A    between atoms: N_17  and  C_18
REMARK                            x       y       z     vdW  Elec       q    Type
REMARK                         _______ _______ _______ _____ _____    ______ ____
ROOT
ATOM      1  C   UNL     1       2.457   1.002  -0.013  0.00  0.00    +0.149 C 
ATOM      2  C   UNL     1       3.783   1.734   0.110  0.00  0.00    +0.232 C 
ATOM      3  O   UNL     1       4.068   2.390   1.089  0.00  0.00    -0.274 OA
ATOM      4  N   UNL     1       4.607   1.611  -0.917  0.00  0.00    -0.264 N 
ATOM      5  C   UNL     1       4.286   0.864  -2.034  0.00  0.00    +0.157 C 
ATOM      6  N   UNL     1       5.005   0.666  -3.103  0.00  0.00    -0.260 NA
ATOM      7  S   UNL     1       2.655   0.235  -1.670  0.00  0.00    -0.077 S 
ATOM      8  H   UNL     1       5.586   2.112  -0.900  0.00  0.00    +0.157 HD
ENDROOT
BRANCH   6   9
ATOM      9  C   UNL     1       4.486  -0.166  -4.191  0.00  0.00    +0.108 C 
ATOM     10  C   UNL     1       5.421  -1.356  -4.414  0.00  0.00    +0.027 C 
ATOM     11  C   UNL     1       4.879  -2.225  -5.551  0.00  0.00    +0.002 C 
ATOM     12  C   UNL     1       4.796  -1.394  -6.833  0.00  0.00    +0.000 C 
ATOM     13  C   UNL     1       3.860  -0.204  -6.610  0.00  0.00    +0.002 C 
ATOM     14  C   UNL     1       4.403   0.665  -5.473  0.00  0.00    +0.027 C 
ENDBRANCH   6   9
BRANCH   1  15
ATOM     15  C   UNL     1       1.280   1.980   0.007  0.00  0.00    +0.120 C 
BRANCH  15  17
ATOM     16  N   UNL     1      -1.191   1.867   0.018  0.00  0.00    -0.285 N 
ATOM     17  C   UNL     1      -0.014   1.209   0.007  0.00  0.00    +0.219 C 
ATOM     18  O   UNL     1       0.002  -0.004  -0.008  0.00  0.00    -0.275 OA
ATOM     19  H   UNL     1      -1.207   2.963   0.108  0.00  0.00    +0.155 HD
BRANCH  16  25
ATOM     20  C   UNL     1      -3.468   1.704  -0.769  0.00  0.00    +0.025 A 
ATOM     21  C   UNL     1      -4.651   0.998  -0.875  0.00  0.00    +0.023 A 
ATOM     22  C   UNL     1      -4.767  -0.251  -0.291  0.00  0.00    +0.059 A 
ATOM     23  C   UNL     1      -3.696  -0.799   0.396  0.00  0.00    +0.061 A 
ATOM     24  C   UNL     1      -2.510  -0.099   0.499  0.00  0.00    +0.044 A 
ATOM     25  C   UNL     1      -2.391   1.155  -0.086  0.00  0.00    +0.035 A 
ATOM     26 CL   UNL     1      -3.845  -2.367   1.126  0.00  0.00    -0.082 Cl
ATOM     27 CL   UNL     1      -6.257  -1.133  -0.421  0.00  0.00    -0.082 Cl
ENDBRANCH  16  25
ENDBRANCH  15  17
ENDBRANCH   1  15
TORSDOF 4
