REMARK  Name = ZINC08750808
REMARK  5 active torsions:
REMARK  status: ('A' for Active; 'I' for Inactive)
REMARK    1  A    between atoms: C_10  and  C_11
REMARK    2  A    between atoms: C_11  and  N_12
REMARK    3  A    between atoms: N_12  and  C_13
REMARK    4  A    between atoms: C_13  and  C_14
REMARK    5  A    between atoms: N_22  and  C_23
REMARK                            x       y       z     vdW  Elec       q    Type
REMARK                         _______ _______ _______ _____ _____    ______ ____
ROOT
ATOM      1  C   UNL     1      -1.294  -0.772   0.011  0.00  0.00    +0.150 C 
ENDROOT
BRANCH   1  11
ATOM      2  C   UNL     1      -0.016   1.353   0.009  0.00  0.00    +0.020 A 
ATOM      3  C   UNL     1       1.258   2.070   0.001  0.00  0.00    +0.003 A 
ATOM      4  C   UNL     1       1.300   3.469   0.006  0.00  0.00    +0.059 A 
ATOM      5  C   UNL     1       2.517   4.118  -0.001  0.00  0.00    +0.163 A 
ATOM      6  C   UNL     1       3.707   3.383  -0.012  0.00  0.00    +0.164 A 
ATOM      7  C   UNL     1       3.674   1.999  -0.020  0.00  0.00    +0.075 A 
ATOM      8  C   UNL     1       2.457   1.331  -0.013  0.00  0.00    +0.053 A 
ATOM      9  N   UNL     1       2.406  -0.049  -0.021  0.00  0.00    -0.322 N 
ATOM     10  C   UNL     1       1.229  -0.697  -0.014  0.00  0.00    +0.254 A 
ATOM     11  C   UNL     1       0.002  -0.004   0.002  0.00  0.00    +0.035 A 
ATOM     12  O   UNL     1       1.223  -1.917  -0.021  0.00  0.00    -0.268 OA
ATOM     13  O   UNL     1       4.911   4.016  -0.011  0.00  0.00    -0.485 OA
ATOM     14  C   UNL     1       4.913   5.399  -0.380  0.00  0.00    +0.270 C 
ATOM     15  C   UNL     1       3.776   6.100   0.374  0.00  0.00    +0.270 C 
ATOM     16  O   UNL     1       2.541   5.480   0.002  0.00  0.00    -0.485 OA
ATOM     17  H   UNL     1       3.232  -0.557  -0.031  0.00  0.00    +0.169 HD
ENDBRANCH   1  11
BRANCH   1  18
ATOM     18  N   UNL     1      -1.667  -1.118  -1.363  0.00  0.00    -0.279 N 
ATOM     19  C   UNL     1      -2.432  -0.276  -2.086  0.00  0.00    +0.303 C 
ATOM     20  O   UNL     1      -2.813   0.770  -1.597  0.00  0.00    -0.253 OA
ATOM     21  N   UNL     1      -2.774  -0.593  -3.350  0.00  0.00    -0.296 N 
ATOM     22  H   UNL     1      -2.470  -1.428  -3.740  0.00  0.00    +0.151 HD
BRANCH  21  23
ATOM     23  C   UNL     1      -3.606   0.322  -4.136  0.00  0.00    +0.074 C 
ATOM     24  C   UNL     1      -5.082   0.063  -3.826  0.00  0.00    +0.022 C 
ATOM     25  C   UNL     1      -5.950   1.019  -4.647  0.00  0.00    +0.002 C 
ATOM     26  C   UNL     1      -5.694   0.789  -6.137  0.00  0.00    +0.000 C 
ATOM     27  C   UNL     1      -4.218   1.048  -6.447  0.00  0.00    +0.002 C 
ATOM     28  C   UNL     1      -3.349   0.092  -5.626  0.00  0.00    +0.022 C 
ENDBRANCH  21  23
BRANCH  18  29
ATOM     29  C   UNL     1      -1.207  -2.378  -1.952  0.00  0.00    +0.141 C 
BRANCH  29  30
ATOM     30  C   UNL     1      -2.234  -3.477  -1.670  0.00  0.00    +0.136 C 
ATOM     31  C   UNL     1      -1.703  -4.833  -2.181  0.00  0.00    +0.035 C 
ATOM     32  C   UNL     1      -2.983  -5.487  -2.770  0.00  0.00    +0.031 C 
ATOM     33  C   UNL     1      -3.724  -4.242  -3.318  0.00  0.00    +0.160 C 
ATOM     34  O   UNL     1      -3.452  -3.195  -2.369  0.00  0.00    -0.375 OA
ENDBRANCH  29  30
ENDBRANCH  18  29
ENDBRANCH   1  18
TORSDOF 5
