REMARK  Name = ZINC64215477
REMARK  9 active torsions:
REMARK  status: ('A' for Active; 'I' for Inactive)
REMARK    1  A    between atoms: C_1  and  C_2
REMARK    2  A    between atoms: C_2  and  C_4
REMARK    3  A    between atoms: C_2  and  N_32
REMARK    4  A    between atoms: N_6  and  C_7
REMARK    5  A    between atoms: C_7  and  C_8
REMARK    6  A    between atoms: C_8  and  C_10
REMARK    7  A    between atoms: C_8  and  C_16
REMARK    8  A    between atoms: C_24  and  C_26
REMARK    9  A    between atoms: C_33  and  C_35
REMARK                            x       y       z     vdW  Elec       q    Type
REMARK                         _______ _______ _______ _____ _____    ______ ____
ROOT
ATOM      1  C   UNL     1       0.177  -0.130  -4.901  0.00  0.00    +0.065 C 
ENDROOT
BRANCH   1   2
ATOM      2  C   UNL     1       1.007  -0.403  -6.128  0.00  0.00    -0.025 C 
ATOM      3  C   UNL     1       2.071  -1.233  -6.222  0.00  0.00    +0.000 A 
ATOM      4  C   UNL     1       2.748  -2.096  -5.247  0.00  0.00    +0.010 A 
ATOM      5  C   UNL     1       3.813  -2.828  -5.646  0.00  0.00    +0.001 A 
ATOM      6  C   UNL     1       4.286  -2.781  -6.965  0.00  0.00    +0.002 A 
ATOM      7  C   UNL     1       3.717  -2.012  -7.917  0.00  0.00    +0.026 A 
ATOM      8  C   UNL     1       2.590  -1.202  -7.608  0.00  0.00    +0.043 A 
ATOM      9  N   UNL     1       1.875  -0.385  -8.343  0.00  0.00    -0.374 N 
ATOM     10  C   UNL     1       0.816   0.192  -7.506  0.00  0.00    +0.137 C 
ATOM     11  H   UNL     1       2.019  -0.196  -9.283  0.00  0.00    +0.161 HD
BRANCH  10  12
ATOM     12  C   UNL     1       0.961   1.691  -7.449  0.00  0.00    -0.021 A 
ATOM     13  C   UNL     1       2.219   2.263  -7.430  0.00  0.00    +0.006 A 
ATOM     14  C   UNL     1       2.352   3.638  -7.378  0.00  0.00    +0.000 A 
ATOM     15  C   UNL     1       1.226   4.441  -7.347  0.00  0.00    +0.000 A 
ATOM     16  C   UNL     1      -0.032   3.868  -7.367  0.00  0.00    +0.000 A 
ATOM     17  C   UNL     1      -0.164   2.493  -7.423  0.00  0.00    +0.006 A 
ENDBRANCH  10  12
ENDBRANCH   1   2
BRANCH   1  18
ATOM     18  C   UNL     1      -1.198  -0.718  -5.084  0.00  0.00    -0.039 A 
ATOM     19  C   UNL     1      -1.347  -2.078  -5.287  0.00  0.00    +0.004 A 
ATOM     20  C   UNL     1      -2.609  -2.617  -5.455  0.00  0.00    +0.000 A 
ATOM     21  C   UNL     1      -3.721  -1.798  -5.419  0.00  0.00    +0.000 A 
ATOM     22  C   UNL     1      -3.573  -0.439  -5.215  0.00  0.00    +0.000 A 
ATOM     23  C   UNL     1      -2.312   0.100  -5.043  0.00  0.00    +0.004 A 
ENDBRANCH   1  18
BRANCH   1  24
ATOM     24  C   UNL     1       0.845  -0.766  -3.680  0.00  0.00    +0.116 C 
BRANCH  24  27
ATOM     25  C   UNL     1       0.532  -0.824  -1.265  0.00  0.00    +0.233 C 
ATOM     26  O   UNL     1       1.503  -1.546  -1.185  0.00  0.00    -0.274 OA
ATOM     27  N   UNL     1       0.120  -0.378  -2.468  0.00  0.00    -0.313 N 
ATOM     28  H   UNL     1      -0.656   0.200  -2.532  0.00  0.00    +0.149 HD
BRANCH  25  30
ATOM     29  C   UNL     1      -0.191   1.099   0.125  0.00  0.00    +0.038 C 
ATOM     30  C   UNL     1      -0.214  -0.424  -0.018  0.00  0.00    +0.156 C 
BRANCH  30  31
ATOM     31  N   UNL     1       0.427  -1.034   1.151  0.00  0.00    -0.301 N 
ATOM     32  C   UNL     1      -0.288  -1.257   2.271  0.00  0.00    +0.255 C 
ATOM     33  O   UNL     1      -1.462  -0.953   2.312  0.00  0.00    -0.272 OA
ATOM     34  H   UNL     1       1.365  -1.277   1.118  0.00  0.00    +0.150 HD
BRANCH  32  35
ATOM     35  C   UNL     1       0.370  -1.884   3.473  0.00  0.00    +0.261 C 
ATOM     36  C   UNL     1       0.748  -3.359   3.191  0.00  0.00    +0.084 C 
ATOM     37  C   UNL     1       0.442  -4.014   4.527  0.00  0.00    +0.015 C 
ATOM     38  C   UNL     1      -0.297  -3.173   5.218  0.00  0.00    +0.184 C 
ATOM     39  O   UNL     1      -0.565  -2.021   4.560  0.00  0.00    -0.487 OA
ENDBRANCH  32  35
ENDBRANCH  30  31
ENDBRANCH  25  30
ENDBRANCH  24  27
ENDBRANCH   1  24
TORSDOF 8
