REMARK  Name = ZINC21249897
REMARK  10 active torsions:
REMARK  status: ('A' for Active; 'I' for Inactive)
REMARK    1  A    between atoms: C_1  and  C_2
REMARK    2  A    between atoms: C_2  and  C_4
REMARK    3  A    between atoms: C_2  and  S_18
REMARK    4  A    between atoms: C_4  and  C_6
REMARK    5  A    between atoms: C_9  and  N_12
REMARK    6  A    between atoms: C_13  and  C_15
REMARK    7  A    between atoms: C_15  and  C_16
REMARK    8  A    between atoms: C_15  and  C_17
REMARK    9  A    between atoms: S_18  and  C_19
REMARK   10  A    between atoms: N_23  and  C_24
REMARK                            x       y       z     vdW  Elec       q    Type
REMARK                         _______ _______ _______ _____ _____    ______ ____
ROOT
ATOM      1  C   UNL     1      -0.041   1.300  -0.292  0.00  0.00    +0.028 C 
ATOM      2  C   UNL     1      -0.013  -0.214  -0.069  0.00  0.00    +0.122 C 
ENDROOT
BRANCH   2   3
ATOM      3  C   UNL     1       0.730  -0.520   1.206  0.00  0.00    +0.176 C 
ATOM      4  O   UNL     1       0.118  -0.670   2.243  0.00  0.00    -0.291 OA
BRANCH   3   5
ATOM      5  C   UNL     1       2.193  -0.636   1.194  0.00  0.00    +0.019 A 
ATOM      6  C   UNL     1       2.902  -0.457  -0.000  0.00  0.00    +0.013 A 
ATOM      7  C   UNL     1       4.269  -0.566  -0.007  0.00  0.00    +0.024 A 
ATOM      8  C   UNL     1       4.952  -0.854   1.171  0.00  0.00    +0.033 A 
ATOM      9  C   UNL     1       4.251  -1.032   2.361  0.00  0.00    +0.024 A 
ATOM     10  C   UNL     1       2.885  -0.920   2.378  0.00  0.00    +0.013 A 
BRANCH   8  11
ATOM     11  N   UNL     1       6.341  -0.963   1.160  0.00  0.00    -0.285 N 
ATOM     12  C   UNL     1       7.070  -0.197   0.325  0.00  0.00    +0.220 C 
ATOM     13  O   UNL     1       6.527   0.655  -0.346  0.00  0.00    -0.275 OA
ATOM     14  H   UNL     1       6.782  -1.591   1.753  0.00  0.00    +0.155 HD
BRANCH  12  15
ATOM     15  C   UNL     1       8.560  -0.398   0.226  0.00  0.00    +0.069 C 
ATOM     16  C   UNL     1       9.143   0.592  -0.784  0.00  0.00    +0.017 C 
ATOM     17  C   UNL     1       9.199  -0.163   1.597  0.00  0.00    +0.017 C 
ENDBRANCH  12  15
ENDBRANCH   8  11
ENDBRANCH   3   5
ENDBRANCH   2   3
BRANCH   2  18
ATOM     18  S   UNL     1      -1.711  -0.839   0.055  0.00  0.00    -0.073 S 
BRANCH  18  19
ATOM     19  C   UNL     1      -2.393  -0.542  -1.542  0.00  0.00    +0.215 A 
ATOM     20  N   UNL     1      -1.774   0.004  -2.567  0.00  0.00    -0.101 NA
ATOM     21  N   UNL     1      -2.559   0.073  -3.581  0.00  0.00    -0.022 NA
ATOM     22  N   UNL     1      -3.716  -0.414  -3.289  0.00  0.00    -0.038 NA
ATOM     23  N   UNL     1      -3.652  -0.840  -1.950  0.00  0.00    -0.187 N 
BRANCH  23  24
ATOM     24  C   UNL     1      -4.672  -1.440  -1.198  0.00  0.00    +0.070 A 
ATOM     25  C   UNL     1      -4.361  -2.405  -0.250  0.00  0.00    +0.029 A 
ATOM     26  C   UNL     1      -5.367  -2.994   0.490  0.00  0.00    +0.022 A 
ATOM     27  C   UNL     1      -6.684  -2.623   0.288  0.00  0.00    +0.041 A 
ATOM     28  C   UNL     1      -6.997  -1.660  -0.655  0.00  0.00    +0.022 A 
ATOM     29  C   UNL     1      -5.994  -1.065  -1.395  0.00  0.00    +0.029 A 
ATOM     30 CL   UNL     1      -7.947  -3.365   1.220  0.00  0.00    -0.084 Cl
ENDBRANCH  23  24
ENDBRANCH  18  19
ENDBRANCH   2  18
TORSDOF 7
