REMARK  Name = ZINC63557323
REMARK  10 active torsions:
REMARK  status: ('A' for Active; 'I' for Inactive)
REMARK    1  A    between atoms: C_1  and  C_2
REMARK    2  A    between atoms: C_2  and  C_3
REMARK    3  A    between atoms: C_2  and  C_4
REMARK    4  A    between atoms: C_2  and  N_5
REMARK    5  A    between atoms: C_6  and  C_8
REMARK    6  A    between atoms: C_13  and  N_14
REMARK    7  A    between atoms: C_15  and  C_17
REMARK    8  A    between atoms: N_22  and  C_24
REMARK    9  A    between atoms: C_24  and  C_25
REMARK   10  A    between atoms: C_25  and  C_26
REMARK                            x       y       z     vdW  Elec       q    Type
REMARK                         _______ _______ _______ _____ _____    ______ ____
ROOT
ATOM      1  C   UNL     1       6.710   2.018  -1.544  0.00  0.00    +0.101 C 
ATOM      2  C   UNL     1       7.113   1.219  -0.283  0.00  0.00    +0.110 C 
ATOM      3  C   UNL     1       8.504   1.716   0.043  0.00  0.00    +0.216 C 
ATOM      4  O   UNL     1       9.069   1.556   1.104  0.00  0.00    -0.276 OA
ATOM      5  N   UNL     1       9.024   2.362  -1.016  0.00  0.00    -0.300 N 
ATOM      6  C   UNL     1       8.088   2.372  -2.147  0.00  0.00    +0.121 C 
ENDROOT
BRANCH   1   8
ATOM      7  N   UNL     1       4.702   0.695  -2.122  0.00  0.00    -0.285 N 
ATOM      8  C   UNL     1       5.911   1.161  -2.492  0.00  0.00    +0.222 C 
ATOM      9  O   UNL     1       6.355   0.893  -3.588  0.00  0.00    -0.275 OA
ATOM     10  H   UNL     1       4.313   0.971  -1.278  0.00  0.00    +0.155 HD
BRANCH   7  16
ATOM     11  C   UNL     1       2.612  -0.132  -3.028  0.00  0.00    +0.058 A 
ATOM     12  C   UNL     1       1.931  -1.016  -3.868  0.00  0.00    +0.015 A 
ATOM     13  C   UNL     1       2.637  -1.937  -4.612  0.00  0.00    +0.001 A 
ATOM     14  C   UNL     1       4.019  -1.991  -4.532  0.00  0.00    +0.002 A 
ATOM     15  C   UNL     1       4.705  -1.124  -3.705  0.00  0.00    +0.024 A 
ATOM     16  C   UNL     1       4.011  -0.185  -2.953  0.00  0.00    +0.046 A 
BRANCH  11  18
ATOM     17  N   UNL     1       0.529   0.973  -2.378  0.00  0.00    -0.307 N 
ATOM     18  C   UNL     1       1.863   0.857  -2.229  0.00  0.00    +0.246 C 
ATOM     19  O   UNL     1       2.450   1.567  -1.435  0.00  0.00    -0.270 OA
ATOM     20  H   UNL     1       0.061   0.406  -3.012  0.00  0.00    +0.150 HD
BRANCH  17  22
ATOM     21  C   UNL     1       0.314   3.358  -1.885  0.00  0.00    +0.031 C 
ATOM     22  C   UNL     1      -0.215   1.954  -1.585  0.00  0.00    +0.026 C 
ATOM     23  C   UNL     1      -0.035   1.649  -0.097  0.00  0.00    +0.031 C 
ATOM     24  C   UNL     1      -1.700   1.882  -1.945  0.00  0.00    +0.031 C 
ENDBRANCH  17  22
ENDBRANCH  11  18
ENDBRANCH   7  16
ENDBRANCH   1   8
BRANCH   5  25
ATOM     25  C   UNL     1      10.353   2.977  -1.038  0.00  0.00    +0.112 C 
BRANCH  25  26
ATOM     26  C   UNL     1      11.381   1.953  -1.524  0.00  0.00    +0.052 C 
BRANCH  26  27
ATOM     27  C   UNL     1      12.748   2.586  -1.546  0.00  0.00    -0.040 C 
ATOM     28  C   UNL     1      13.689   2.524  -0.577  0.00  0.00    +0.002 A 
ATOM     29  C   UNL     1      13.719   1.874   0.739  0.00  0.00    +0.048 A 
ATOM     30  C   UNL     1      14.829   1.993   1.505  0.00  0.00    +0.124 A 
ATOM     31  C   UNL     1      15.949   2.720   1.072  0.00  0.00    +0.040 A 
ATOM     32  C   UNL     1      15.995   3.344  -0.124  0.00  0.00    +0.029 A 
ATOM     33  C   UNL     1      14.883   3.284  -1.009  0.00  0.00    +0.043 A 
ATOM     34  N   UNL     1      14.688   3.796  -2.200  0.00  0.00    -0.380 N 
ATOM     35  C   UNL     1      13.349   3.412  -2.661  0.00  0.00    +0.144 C 
ATOM     36  F   UNL     1      14.859   1.397   2.717  0.00  0.00    -0.205 F 
ATOM     37  H   UNL     1      15.325   4.336  -2.696  0.00  0.00    +0.160 HD
ENDBRANCH  26  27
ENDBRANCH  25  26
ENDBRANCH   5  25
TORSDOF 7
