REMARK  Name = ZINC20751835
REMARK  7 active torsions:
REMARK  status: ('A' for Active; 'I' for Inactive)
REMARK    1  A    between atoms: C_1  and  C_2
REMARK    2  A    between atoms: C_2  and  C_3
REMARK    3  A    between atoms: C_2  and  N_4
REMARK    4  A    between atoms: N_4  and  S_5
REMARK    5  A    between atoms: S_5  and  C_8
REMARK    6  A    between atoms: C_21  and  C_24
REMARK    7  A    between atoms: C_33  and  O_34
REMARK                            x       y       z     vdW  Elec       q    Type
REMARK                         _______ _______ _______ _____ _____    ______ ____
ROOT
ATOM      1  C   UNL     1       2.396   0.013  -0.047  0.00  0.00    +0.106 A 
ATOM      2  C   UNL     1       1.202  -0.684  -0.026  0.00  0.00    +0.030 A 
ATOM      3  C   UNL     1       0.002  -0.004   0.002  0.00  0.00    +0.025 A 
ATOM      4  C   UNL     1      -0.017   1.385   0.010  0.00  0.00    +0.031 A 
ATOM      5  C   UNL     1       1.195   2.084   0.002  0.00  0.00    -0.018 A 
ATOM      6  C   UNL     1       2.389   1.396  -0.034  0.00  0.00    +0.034 A 
ATOM      7  C   UNL     1       1.132   3.561   0.052  0.00  0.00    +0.049 C 
ATOM      8  C   UNL     1       2.210   4.413  -0.514  0.00  0.00    -0.023 C 
ATOM      9  C   UNL     1       1.690   5.544  -0.942  0.00  0.00    -0.030 C 
ATOM     10  C   UNL     1       0.171   5.520  -0.755  0.00  0.00    +0.033 C 
ATOM     11  C   UNL     1      -0.117   4.013  -0.764  0.00  0.00    +0.029 C 
ATOM     12  C   UNL     1      -1.316   3.531   0.032  0.00  0.00    +0.109 C 
ATOM     13  N   UNL     1      -1.247   2.054   0.004  0.00  0.00    -0.336 N 
ATOM     14  H   UNL     1      -2.172   1.460  -0.022  0.00  0.00    +0.147 HD
ENDROOT
BRANCH  12  15
ATOM     15  C   UNL     1      -2.593   4.005  -0.614  0.00  0.00    +0.022 A 
ATOM     16  C   UNL     1      -3.322   5.062  -0.046  0.00  0.00    -0.009 A 
ATOM     17  C   UNL     1      -2.886   5.700   1.128  0.00  0.00    +0.009 A 
ATOM     18  C   UNL     1      -3.618   6.721   1.651  0.00  0.00    +0.001 A 
ATOM     19  C   UNL     1      -4.797   7.146   1.040  0.00  0.00    +0.001 A 
ATOM     20  C   UNL     1      -5.250   6.551  -0.097  0.00  0.00    +0.008 A 
ATOM     21  C   UNL     1      -4.521   5.494  -0.667  0.00  0.00    -0.017 A 
ATOM     22  C   UNL     1      -4.959   4.856  -1.841  0.00  0.00    +0.012 A 
ATOM     23  C   UNL     1      -4.231   3.835  -2.366  0.00  0.00    +0.046 A 
ATOM     24  C   UNL     1      -3.045   3.411  -1.758  0.00  0.00    +0.122 A 
BRANCH  24  25
ATOM     25  O   UNL     1      -2.336   2.392  -2.310  0.00  0.00    -0.506 OA
ATOM     26  H   UNL     1      -2.693   1.909  -3.232  0.00  0.00    +0.292 HD
ENDBRANCH  24  25
ENDBRANCH  12  15
BRANCH   1  27
ATOM     27  S   UNL     1       3.926  -0.859  -0.093  0.00  0.00    +0.059 S 
ATOM     28  O   UNL     1       4.909   0.016   0.444  0.00  0.00    -0.153 OA
ATOM     29  O   UNL     1       3.675  -2.148   0.451  0.00  0.00    -0.153 OA
BRANCH  27  30
ATOM     30  N   UNL     1       4.314  -1.086  -1.687  0.00  0.00    -0.187 NA
ATOM     31  H   UNL     1       4.189  -2.083  -2.134  0.00  0.00    +0.148 HD
BRANCH  30  33
ATOM     32  C   UNL     1       6.118   0.300  -2.584  0.00  0.00    +0.025 C 
ATOM     33  C   UNL     1       4.606   0.068  -2.541  0.00  0.00    +0.070 C 
ATOM     34  C   UNL     1       4.090  -0.201  -3.956  0.00  0.00    +0.025 C 
ENDBRANCH  30  33
ENDBRANCH  27  30
ENDBRANCH   1  27
TORSDOF 5
