REMARK  Name = ZINC64131320
REMARK  7 active torsions:
REMARK  status: ('A' for Active; 'I' for Inactive)
REMARK    1  A    between atoms: C_4  and  C_7
REMARK    2  A    between atoms: C_7  and  C_9
REMARK    3  A    between atoms: C_7  and  C_27
REMARK    4  A    between atoms: C_9  and  N_10
REMARK    5  A    between atoms: C_11  and  C_13
REMARK    6  A    between atoms: C_13  and  C_18
REMARK    7  A    between atoms: C_18  and  C_19
REMARK                            x       y       z     vdW  Elec       q    Type
REMARK                         _______ _______ _______ _____ _____    ______ ____
ROOT
ATOM      1  C   UNL     1       3.816  -1.667  -1.341  0.00  0.00    +0.116 C 
ENDROOT
BRANCH   1   2
ATOM      2  N   UNL     1       3.834  -0.783  -2.509  0.00  0.00    -0.314 N 
ATOM      3  C   UNL     1       3.880  -1.306  -3.750  0.00  0.00    +0.220 C 
ATOM      4  O   UNL     1       4.002  -2.504  -3.899  0.00  0.00    -0.275 OA
ATOM      5  H   UNL     1       3.812   0.180  -2.389  0.00  0.00    +0.149 HD
BRANCH   3   6
ATOM      6  C   UNL     1       3.782  -0.404  -4.953  0.00  0.00    +0.055 C 
ATOM      7  C   UNL     1       2.430   0.352  -4.954  0.00  0.00    +0.016 C 
ATOM      8  C   UNL     1       1.450  -0.701  -5.528  0.00  0.00    +0.001 C 
ATOM      9  C   UNL     1       2.268  -1.426  -6.617  0.00  0.00    +0.001 C 
ATOM     10  C   UNL     1       3.751  -1.237  -6.252  0.00  0.00    +0.016 C 
BRANCH   6  11
ATOM     11  C   UNL     1       4.950   0.583  -4.978  0.00  0.00    +0.112 C 
BRANCH  11  12
ATOM     12  C   UNL     1       6.244  -0.174  -5.139  0.00  0.00    +0.217 C 
ATOM     13  O   UNL     1       6.243  -1.386  -5.121  0.00  0.00    -0.276 OA
ATOM     14  N   UNL     1       7.401   0.497  -5.304  0.00  0.00    -0.297 N 
ATOM     15  C   UNL     1       7.427   1.968  -5.323  0.00  0.00    +0.136 C 
ATOM     16  C   UNL     1       8.503   2.446  -4.341  0.00  0.00    +0.179 C 
ATOM     17  O   UNL     1       9.736   1.784  -4.635  0.00  0.00    -0.377 OA
ATOM     18  C   UNL     1       9.690   0.364  -4.479  0.00  0.00    +0.179 C 
ATOM     19  C   UNL     1       8.676  -0.220  -5.463  0.00  0.00    +0.136 C 
ENDBRANCH  11  12
ENDBRANCH   6  11
ENDBRANCH   3   6
ENDBRANCH   1   2
BRANCH   1  20
ATOM     20  C   UNL     1       3.763  -0.825  -0.065  0.00  0.00    +0.064 C 
BRANCH  20  21
ATOM     21  C   UNL     1       3.868  -1.727   1.137  0.00  0.00    -0.033 C 
ATOM     22  C   UNL     1       4.821  -1.695   2.097  0.00  0.00    -0.000 A 
ATOM     23  C   UNL     1       5.999  -0.844   2.301  0.00  0.00    +0.010 A 
ATOM     24  C   UNL     1       6.784  -1.058   3.381  0.00  0.00    +0.001 A 
ATOM     25  C   UNL     1       6.501  -2.070   4.309  0.00  0.00    +0.002 A 
ATOM     26  C   UNL     1       5.438  -2.892   4.190  0.00  0.00    +0.026 A 
ATOM     27  C   UNL     1       4.544  -2.756   3.091  0.00  0.00    +0.043 A 
ATOM     28  N   UNL     1       3.463  -3.419   2.759  0.00  0.00    -0.380 N 
ATOM     29  C   UNL     1       2.927  -2.848   1.518  0.00  0.00    +0.145 C 
ATOM     30  H   UNL     1       3.078  -4.160   3.253  0.00  0.00    +0.160 HD
ENDBRANCH  20  21
BRANCH  20  34
ATOM     31  C   UNL     1       0.066   1.311   0.076  0.00  0.00    +0.000 A 
ATOM     32  C   UNL     1       1.264   2.002   0.072  0.00  0.00    +0.000 A 
ATOM     33  C   UNL     1       2.460   1.311   0.026  0.00  0.00    +0.004 A 
ATOM     34  C   UNL     1       2.459  -0.071  -0.015  0.00  0.00    -0.039 A 
ATOM     35  C   UNL     1       1.261  -0.762  -0.010  0.00  0.00    +0.004 A 
ATOM     36  C   UNL     1       0.065  -0.070   0.034  0.00  0.00    +0.000 A 
ENDBRANCH  20  34
ENDBRANCH   1  20
TORSDOF 7
