REMARK  Name = ZINC09877289
REMARK  8 active torsions:
REMARK  status: ('A' for Active; 'I' for Inactive)
REMARK    1  A    between atoms: C_1  and  C_2
REMARK    2  A    between atoms: C_2  and  C_4
REMARK    3  A    between atoms: C_2  and  S_15
REMARK    4  A    between atoms: N_6  and  C_7
REMARK    5  A    between atoms: S_15  and  C_16
REMARK    6  A    between atoms: C_19  and  C_27
REMARK    7  A    between atoms: N_20  and  C_21
REMARK    8  A    between atoms: C_27  and  N_57
REMARK                            x       y       z     vdW  Elec       q    Type
REMARK                         _______ _______ _______ _____ _____    ______ ____
ROOT
ATOM      1  C   UNL     1       2.349   0.857   1.379  0.00  0.00    +0.197 A 
ATOM      2  N   UNL     1       1.702   0.025   2.161  0.00  0.00    -0.122 NA
ATOM      3  N   UNL     1       2.484  -0.405   3.086  0.00  0.00    -0.135 NA
ATOM      4  C   UNL     1       3.668   0.122   2.953  0.00  0.00    +0.122 A 
ATOM      5  N   UNL     1       3.629   0.942   1.857  0.00  0.00    -0.276 N 
ENDROOT
BRANCH   5   6
ATOM      6  C   UNL     1       4.679   1.710   1.334  0.00  0.00    +0.050 A 
ATOM      7  C   UNL     1       5.803   1.086   0.809  0.00  0.00    +0.026 A 
ATOM      8  C   UNL     1       6.833   1.845   0.290  0.00  0.00    +0.002 A 
ATOM      9  C   UNL     1       6.752   3.225   0.304  0.00  0.00    +0.000 A 
ATOM     10  C   UNL     1       5.637   3.849   0.832  0.00  0.00    +0.002 A 
ATOM     11  C   UNL     1       4.600   3.096   1.347  0.00  0.00    +0.026 A 
ENDBRANCH   5   6
BRANCH   1  12
ATOM     12  S   UNL     1       1.697   1.700  -0.024  0.00  0.00    -0.073 S 
BRANCH  12  14
ATOM     13  C   UNL     1      -0.710   1.564   1.262  0.00  0.00    +0.029 C 
ATOM     14  C   UNL     1      -0.002   1.076  -0.003  0.00  0.00    +0.137 C 
BRANCH  14  15
ATOM     15  C   UNL     1      -0.738   1.581  -1.217  0.00  0.00    +0.230 C 
ATOM     16  O   UNL     1      -0.326   2.554  -1.815  0.00  0.00    -0.274 OA
ATOM     17  N   UNL     1      -1.854   0.954  -1.639  0.00  0.00    -0.283 N 
ATOM     18  H   UNL     1      -2.147   0.139  -1.201  0.00  0.00    +0.155 HD
BRANCH  17  19
ATOM     19  C   UNL     1      -2.590   1.478  -2.709  0.00  0.00    +0.052 A 
ATOM     20  C   UNL     1      -1.937   2.113  -3.757  0.00  0.00    +0.027 A 
ATOM     21  C   UNL     1      -2.665   2.629  -4.812  0.00  0.00    +0.040 A 
ATOM     22  C   UNL     1      -4.045   2.512  -4.825  0.00  0.00    +0.125 A 
ATOM     23  C   UNL     1      -4.698   1.879  -3.782  0.00  0.00    +0.060 A 
ATOM     24  C   UNL     1      -3.974   1.357  -2.727  0.00  0.00    +0.065 A 
ATOM     25 CL   UNL     1      -4.793   0.557  -1.422  0.00  0.00    -0.082 Cl
ATOM     26  F   UNL     1      -4.754   3.017  -5.858  0.00  0.00    -0.205 F 
ENDBRANCH  17  19
ENDBRANCH  14  15
ENDBRANCH  12  14
ENDBRANCH   1  12
BRANCH   4  27
ATOM     27  C   UNL     1       4.862  -0.130   3.838  0.00  0.00    -0.001 C 
BRANCH  27  33
ATOM     28  C   UNL     1       4.852  -2.511   3.404  0.00  0.00    -0.078 C 
ATOM     29  C   UNL     1       5.620  -3.645   2.720  0.00  0.00    -0.019 C 
ATOM     30  C   UNL     1       6.979  -3.819   3.403  0.00  0.00    -0.004 C 
ATOM     31  C   UNL     1       7.748  -2.496   3.338  0.00  0.00    -0.019 C 
ATOM     32  C   UNL     1       6.918  -1.396   4.004  0.00  0.00    -0.078 C 
ATOM     33  N   UNL     1       5.634  -1.262   3.285  0.00  0.00    +0.384 N 
ATOM     34  H   UNL     1       5.825  -1.082   2.293  0.00  0.00    -0.081 HD
ENDBRANCH  27  33
ENDBRANCH   4  27
TORSDOF 7
