REMARK  Name = ZINC35869808
REMARK  3 active torsions:
REMARK  status: ('A' for Active; 'I' for Inactive)
REMARK    1  A    between atoms: C_1  and  C_2
REMARK    2  A    between atoms: C_2  and  N_3
REMARK    3  A    between atoms: C_4  and  C_6
REMARK                            x       y       z     vdW  Elec       q    Type
REMARK                         _______ _______ _______ _____ _____    ______ ____
ROOT
ATOM      1  C   UNL     1      -2.975  -2.338  -0.004  0.00  0.00    +0.101 C 
ATOM      2  C   UNL     1      -3.698  -1.826   1.240  0.00  0.00    +0.051 C 
ATOM      3  C   UNL     1      -3.035  -2.413   2.460  0.00  0.00    -0.026 A 
ATOM      4  C   UNL     1      -3.054  -1.711   3.651  0.00  0.00    +0.005 A 
ATOM      5  C   UNL     1      -2.439  -2.236   4.773  0.00  0.00    +0.000 A 
ATOM      6  C   UNL     1      -1.805  -3.463   4.706  0.00  0.00    +0.002 A 
ATOM      7  C   UNL     1      -1.788  -4.169   3.520  0.00  0.00    +0.023 A 
ATOM      8  C   UNL     1      -2.411  -3.645   2.390  0.00  0.00    +0.033 A 
ATOM      9  N   UNL     1      -2.398  -4.400   1.205  0.00  0.00    -0.323 N 
ATOM     10  C   UNL     1      -2.977  -3.870  -0.015  0.00  0.00    +0.103 C 
ATOM     11  C   UNL     1      -2.265  -4.341  -1.273  0.00  0.00    +0.129 C 
ATOM     12  N   UNL     1      -1.721  -5.679  -1.149  0.00  0.00    -0.313 N 
ATOM     13  C   UNL     1      -1.062  -6.147   0.059  0.00  0.00    +0.125 C 
ATOM     14  C   UNL     1      -1.829  -5.744   1.294  0.00  0.00    +0.124 C 
ATOM     15  C   UNL     1      -1.833  -6.548  -2.228  0.00  0.00    +0.099 A 
ATOM     16  C   UNL     1      -1.212  -7.792  -2.180  0.00  0.00    +0.042 A 
ATOM     17  C   UNL     1      -1.332  -8.646  -3.260  0.00  0.00    +0.005 A 
ATOM     18  C   UNL     1      -2.073  -8.227  -4.358  0.00  0.00    +0.018 A 
ATOM     19  C   UNL     1      -2.663  -6.979  -4.338  0.00  0.00    +0.084 A 
ATOM     20  N   UNL     1      -2.536  -6.187  -3.291  0.00  0.00    -0.350 N 
ATOM     21  H   UNL     1      -2.964  -5.316  -3.302  0.00  0.00    +0.166 HD
ENDROOT
BRANCH   1  23
ATOM     22  N   UNL     1      -1.303  -0.515   0.009  0.00  0.00    -0.315 N 
ATOM     23  C   UNL     1      -1.553  -1.840   0.003  0.00  0.00    +0.218 C 
ATOM     24  O   UNL     1      -0.633  -2.630   0.003  0.00  0.00    -0.275 OA
ATOM     25  H   UNL     1      -2.039   0.117   0.008  0.00  0.00    +0.149 HD
BRANCH  22  27
ATOM     26  C   UNL     1       0.083   1.499   0.021  0.00  0.00    +0.024 C 
ATOM     27  C   UNL     1       0.079  -0.031   0.015  0.00  0.00    +0.101 C 
ENDBRANCH  22  27
ENDBRANCH   1  23
TORSDOF 2
