REMARK  Name = ZINC02216361
REMARK  10 active torsions:
REMARK  status: ('A' for Active; 'I' for Inactive)
REMARK    1  A    between atoms: C_1  and  C_2
REMARK    2  A    between atoms: C_4  and  C_36
REMARK    3  A    between atoms: C_5  and  O_35
REMARK    4  A    between atoms: C_6  and  C_8
REMARK    5  A    between atoms: N_16  and  C_32
REMARK    6  A    between atoms: C_17  and  C_19
REMARK    7  A    between atoms: C_23  and  O_25
REMARK    8  A    between atoms: O_25  and  C_26
REMARK    9  A    between atoms: C_32  and  C_33
REMARK   10  A    between atoms: C_33  and  O_34
REMARK                            x       y       z     vdW  Elec       q    Type
REMARK                         _______ _______ _______ _____ _____    ______ ____
ROOT
ATOM      1  C   UNL     1      -0.110  -3.031   1.947  0.00  0.00    +0.102 A 
ATOM      2  C   UNL     1      -0.062  -2.564   3.265  0.00  0.00    +0.035 A 
ATOM      3  C   UNL     1      -0.133  -3.688   4.065  0.00  0.00    +0.126 A 
ATOM      4  N   UNL     1      -0.218  -4.754   3.216  0.00  0.00    -0.272 N 
ATOM      5  H   UNL     1      -0.281  -5.682   3.491  0.00  0.00    +0.189 HD
ATOM      6  N   UNL     1      -0.208  -4.345   1.997  0.00  0.00    -0.173 NA
ATOM      7  C   UNL     1      -0.087  -3.265   5.469  0.00  0.00    +0.266 C 
ATOM      8  O   UNL     1      -0.130  -4.018   6.423  0.00  0.00    -0.268 OA
ATOM      9  N   UNL     1       0.009  -1.926   5.552  0.00  0.00    -0.283 N 
ATOM     10  C   UNL     1       0.032  -1.381   4.188  0.00  0.00    +0.141 C 
ENDROOT
BRANCH   1  16
ATOM     11  C   UNL     1       1.921   0.704  -0.670  0.00  0.00    +0.044 C 
ATOM     12  C   UNL     1       0.907  -0.404  -0.544  0.00  0.00    -0.049 A 
ATOM     13  C   UNL     1       0.017  -0.645  -1.575  0.00  0.00    +0.010 A 
ATOM     14  C   UNL     1      -0.916  -1.660  -1.469  0.00  0.00    -0.008 A 
ATOM     15  C   UNL     1      -0.964  -2.441  -0.325  0.00  0.00    +0.129 A 
ATOM     16  C   UNL     1      -0.066  -2.200   0.718  0.00  0.00    +0.044 A 
ATOM     17  C   UNL     1       0.874  -1.179   0.598  0.00  0.00    +0.017 A 
ATOM     18  C   UNL     1      -1.882  -1.916  -2.597  0.00  0.00    +0.047 C 
BRANCH  15  19
ATOM     19  O   UNL     1      -1.881  -3.438  -0.219  0.00  0.00    -0.506 OA
ATOM     20  H   UNL     1      -1.573  -4.292  -0.550  0.00  0.00    +0.292 HD
ENDBRANCH  15  19
ENDBRANCH   1  16
BRANCH  10  21
ATOM     21  C   UNL     1      -1.144  -0.462   3.976  0.00  0.00    -0.019 A 
ATOM     22  C   UNL     1      -2.376  -0.782   4.517  0.00  0.00    +0.006 A 
ATOM     23  C   UNL     1      -3.457   0.058   4.325  0.00  0.00    +0.004 A 
ATOM     24  C   UNL     1      -3.309   1.220   3.591  0.00  0.00    +0.046 A 
ATOM     25  C   UNL     1      -2.074   1.542   3.047  0.00  0.00    +0.129 A 
ATOM     26  C   UNL     1      -0.989   0.700   3.247  0.00  0.00    +0.052 A 
BRANCH  25  27
ATOM     27  O   UNL     1      -1.926   2.684   2.325  0.00  0.00    -0.456 OA
BRANCH  27  28
ATOM     28  C   UNL     1      -2.991   3.522   2.231  0.00  0.00    +0.128 A 
ATOM     29  C   UNL     1      -3.323   4.347   3.296  0.00  0.00    +0.046 A 
ATOM     30  C   UNL     1      -4.407   5.198   3.197  0.00  0.00    +0.004 A 
ATOM     31  C   UNL     1      -5.161   5.228   2.038  0.00  0.00    +0.000 A 
ATOM     32  C   UNL     1      -4.833   4.406   0.976  0.00  0.00    +0.004 A 
ATOM     33  C   UNL     1      -3.746   3.558   1.067  0.00  0.00    +0.046 A 
ENDBRANCH  27  28
ENDBRANCH  25  27
ENDBRANCH  10  21
BRANCH   9  34
ATOM     34  C   UNL     1       0.079  -1.145   6.790  0.00  0.00    +0.137 C 
BRANCH  34  35
ATOM     35  C   UNL     1       1.542  -0.975   7.203  0.00  0.00    +0.175 C 
BRANCH  35  36
ATOM     36  O   UNL     1       2.226  -0.192   6.223  0.00  0.00    -0.393 OA
ATOM     37  H   UNL     1       3.161  -0.043   6.421  0.00  0.00    +0.209 HD
ENDBRANCH  35  36
ENDBRANCH  34  35
ENDBRANCH   9  34
TORSDOF 8
