REMARK  Name = ZINC54966878
REMARK  2 active torsions:
REMARK  status: ('A' for Active; 'I' for Inactive)
REMARK    1  A    between atoms: C_1  and  C_2
REMARK    2  A    between atoms: C_3  and  C_18
REMARK                            x       y       z     vdW  Elec       q    Type
REMARK                         _______ _______ _______ _____ _____    ______ ____
ROOT
ATOM      1  C   UNL     1      -0.018   1.503   0.010  0.00  0.00    +0.067 C 
ATOM      2  C   UNL     1       0.002  -0.004   0.002  0.00  0.00    +0.058 A 
ATOM      3  C   UNL     1       0.006  -0.733  -1.186  0.00  0.00    +0.075 A 
ATOM      4  S   UNL     1       0.033  -2.401  -0.547  0.00  0.00    -0.049 S 
ATOM      5  C   UNL     1       0.036  -2.023   1.093  0.00  0.00    +0.162 A 
ATOM      6  N   UNL     1       0.022  -0.700   1.108  0.00  0.00    -0.229 NA
ATOM      7  N   UNL     1       0.053  -2.886   2.165  0.00  0.00    -0.302 N 
ATOM      8  C   UNL     1       0.046  -2.361   3.539  0.00  0.00    +0.135 C 
ATOM      9  C   UNL     1      -1.060  -3.096   4.309  0.00  0.00    +0.179 C 
ATOM     10  O   UNL     1      -0.830  -4.500   4.203  0.00  0.00    -0.373 OA
ATOM     11  C   UNL     1      -0.923  -5.039   2.884  0.00  0.00    +0.139 C 
ATOM     12  C   UNL     1       0.072  -4.328   1.948  0.00  0.00    +0.104 C 
ATOM     13  C   UNL     1       1.441  -4.922   2.313  0.00  0.00    +0.025 C 
ATOM     14  C   UNL     1       1.161  -6.298   2.947  0.00  0.00    +0.004 C 
ATOM     15  C   UNL     1      -0.359  -6.485   2.934  0.00  0.00    +0.033 C 
ENDROOT
BRANCH   3  16
ATOM     16  C   UNL     1      -0.007  -0.281  -2.519  0.00  0.00    +0.267 C 
ATOM     17  O   UNL     1      -0.000  -1.083  -3.432  0.00  0.00    -0.295 OA
ENDBRANCH   3  16
TORSDOF 1
