REMARK  Name = ZINC12649500
REMARK  5 active torsions:
REMARK  status: ('A' for Active; 'I' for Inactive)
REMARK    1  A    between atoms: C_13  and  C_14
REMARK    2  A    between atoms: C_14  and  O_15
REMARK    3  A    between atoms: O_15  and  C_16
REMARK    4  A    between atoms: N_18  and  C_19
REMARK    5  A    between atoms: C_19  and  C_20
REMARK                            x       y       z     vdW  Elec       q    Type
REMARK                         _______ _______ _______ _____ _____    ______ ____
ROOT
ATOM      1  C   UNL     1      -8.146   1.110  -2.992  0.00  0.00    +0.246 C 
ENDROOT
BRANCH   1  14
ATOM      2  C   UNL     1      -9.383   5.777  -4.537  0.00  0.00    +0.001 A 
ATOM      3  C   UNL     1      -8.074   5.415  -4.274  0.00  0.00    +0.000 A 
ATOM      4  C   UNL     1      -7.725   4.079  -4.199  0.00  0.00    +0.005 A 
ATOM      5  C   UNL     1      -8.680   3.104  -4.387  0.00  0.00    -0.029 A 
ATOM      6  C   UNL     1     -10.002   3.458  -4.652  0.00  0.00    -0.014 A 
ATOM      7  C   UNL     1     -10.347   4.808  -4.726  0.00  0.00    +0.009 A 
ATOM      8  C   UNL     1     -10.820   2.230  -4.810  0.00  0.00    -0.014 A 
ATOM      9  C   UNL     1     -12.179   2.058  -5.081  0.00  0.00    +0.009 A 
ATOM     10  C   UNL     1     -12.707   0.788  -5.182  0.00  0.00    +0.001 A 
ATOM     11  C   UNL     1     -11.895  -0.319  -5.016  0.00  0.00    +0.000 A 
ATOM     12  C   UNL     1     -10.547  -0.157  -4.747  0.00  0.00    +0.005 A 
ATOM     13  C   UNL     1     -10.011   1.109  -4.644  0.00  0.00    -0.029 A 
ATOM     14  C   UNL     1      -8.610   1.597  -4.367  0.00  0.00    +0.088 C 
ENDBRANCH   1  14
BRANCH   1  15
ATOM     15  O   UNL     1      -6.765   1.505  -2.780  0.00  0.00    -0.449 OA
BRANCH  15  16
ATOM     16  C   UNL     1      -6.201   1.151  -1.610  0.00  0.00    +0.400 C 
ATOM     17  O   UNL     1      -6.845   0.529  -0.789  0.00  0.00    -0.226 OA
ATOM     18  N   UNL     1      -4.922   1.487  -1.350  0.00  0.00    -0.283 N 
ATOM     19  H   UNL     1      -4.408   1.984  -2.005  0.00  0.00    +0.152 HD
BRANCH  18  20
ATOM     20  C   UNL     1      -4.308   1.102  -0.077  0.00  0.00    +0.092 C 
BRANCH  20  21
ATOM     21  C   UNL     1      -2.862   1.602  -0.035  0.00  0.00    -0.054 C 
ATOM     22  C   UNL     1      -2.184   1.095   1.239  0.00  0.00    -0.014 C 
ATOM     23  C   UNL     1      -0.731   1.580   1.267  0.00  0.00    -0.003 C 
ATOM     24  C   UNL     1      -0.013   1.086   0.008  0.00  0.00    -0.019 C 
ATOM     25  C   UNL     1      -0.754   1.594  -1.231  0.00  0.00    -0.082 C 
ATOM     26  N   UNL     1      -2.143   1.094  -1.219  0.00  0.00    +0.382 N 
ATOM     27  H   UNL     1      -2.623   1.411  -2.069  0.00  0.00    -0.085 HD
ATOM     28  H   UNL     1      -2.132   0.068  -1.194  0.00  0.00    -0.085 HD
ENDBRANCH  20  21
ENDBRANCH  18  20
ENDBRANCH  15  16
ENDBRANCH   1  15
TORSDOF 5
