REMARK  Name = ZINC58853666
REMARK  6 active torsions:
REMARK  status: ('A' for Active; 'I' for Inactive)
REMARK    1  A    between atoms: C_3  and  C_6
REMARK    2  A    between atoms: C_6  and  C_8
REMARK    3  A    between atoms: C_6  and  N_23
REMARK    4  A    between atoms: C_8  and  N_9
REMARK    5  A    between atoms: N_12  and  C_13
REMARK    6  A    between atoms: C_17  and  N_19
REMARK                            x       y       z     vdW  Elec       q    Type
REMARK                         _______ _______ _______ _____ _____    ______ ____
ROOT
ATOM      1  N   UNL     1       3.479   2.854   2.039  0.00  0.00    -0.300 N 
ATOM      2  C   UNL     1       3.857   3.054   3.318  0.00  0.00    +0.304 C 
ATOM      3  O   UNL     1       4.764   2.399   3.793  0.00  0.00    -0.253 OA
ATOM      4  N   UNL     1       3.229   3.979   4.069  0.00  0.00    -0.269 N 
ATOM      5  H   UNL     1       2.755   3.377   1.661  0.00  0.00    +0.150 HD
ATOM      6  H   UNL     1       2.552   4.549   3.672  0.00  0.00    +0.156 HD
ENDROOT
BRANCH   4   7
ATOM      7  C   UNL     1       3.553   4.119   5.424  0.00  0.00    +0.037 A 
ATOM      8  C   UNL     1       2.566   4.440   6.346  0.00  0.00    +0.025 A 
ATOM      9  C   UNL     1       2.889   4.577   7.682  0.00  0.00    +0.024 A 
ATOM     10  C   UNL     1       4.195   4.394   8.102  0.00  0.00    +0.071 A 
ATOM     11  C   UNL     1       5.181   4.074   7.185  0.00  0.00    +0.146 A 
ATOM     12  C   UNL     1       4.862   3.930   5.848  0.00  0.00    +0.057 A 
ATOM     13 CL   UNL     1       4.598   4.567   9.782  0.00  0.00    -0.081 Cl
BRANCH  11  14
ATOM     14  N   UNL     1       6.576   3.879   7.637  0.00  0.00    +0.058 N 
ATOM     15  O   UNL     1       7.438   3.599   6.836  0.00  0.00    -0.126 OA
ATOM     16  O   UNL     1       6.855   3.999   8.807  0.00  0.00    -0.126 OA
ENDBRANCH  11  14
ENDBRANCH   4   7
BRANCH   1  17
ATOM     17  C   UNL     1       4.162   1.848   1.222  0.00  0.00    +0.095 C 
BRANCH  17  18
ATOM     18  C   UNL     1       3.629   1.908  -0.211  0.00  0.00    -0.013 C 
BRANCH  18  19
ATOM     19  N   UNL     1       4.402   0.991  -1.059  0.00  0.00    +0.386 N 
ATOM     20  C   UNL     1       5.838   1.335  -0.982  0.00  0.00    -0.078 C 
ATOM     21  C   UNL     1       6.384   1.076  -2.409  0.00  0.00    -0.020 C 
ATOM     22  C   UNL     1       5.195   1.544  -3.289  0.00  0.00    -0.020 C 
ATOM     23  C   UNL     1       3.962   1.123  -2.461  0.00  0.00    -0.078 C 
ATOM     24  H   UNL     1       4.265   0.042  -0.748  0.00  0.00    -0.081 HD
ENDBRANCH  18  19
BRANCH  18  27
ATOM     25  C   UNL     1      -0.174   1.685  -0.273  0.00  0.00    +0.008 A 
ATOM     26  C   UNL     1       1.072   2.284  -0.269  0.00  0.00    +0.009 A 
ATOM     27  C   UNL     1       2.178   1.501  -0.224  0.00  0.00    -0.022 A 
ATOM     28  S   UNL     1       1.469  -0.137  -0.187  0.00  0.00    -0.103 S 
ATOM     29  C   UNL     1      -0.253   0.332  -0.233  0.00  0.00    +0.045 A 
ENDBRANCH  18  27
ENDBRANCH  17  18
ENDBRANCH   1  17
TORSDOF 6
