REMARK  Name = ZINC09068760
REMARK  7 active torsions:
REMARK  status: ('A' for Active; 'I' for Inactive)
REMARK    1  A    between atoms: C_2  and  C_26
REMARK    2  A    between atoms: C_4  and  N_10
REMARK    3  A    between atoms: C_6  and  C_7
REMARK    4  A    between atoms: C_11  and  C_13
REMARK    5  A    between atoms: C_13  and  O_14
REMARK    6  A    between atoms: O_14  and  C_15
REMARK    7  A    between atoms: C_15  and  C_17
REMARK                            x       y       z     vdW  Elec       q    Type
REMARK                         _______ _______ _______ _____ _____    ______ ____
ROOT
ATOM      1  N   UNL     1       3.634  -0.659  -0.037  0.00  0.00    -0.283 N 
ATOM      2  C   UNL     1       3.653  -2.003   0.058  0.00  0.00    +0.255 C 
ATOM      3  O   UNL     1       2.612  -2.626   0.065  0.00  0.00    -0.272 OA
ATOM      4  H   UNL     1       4.465  -0.166  -0.119  0.00  0.00    +0.155 HD
ENDROOT
BRANCH   1   8
ATOM      5  C   UNL     1      -0.016   1.391   0.029  0.00  0.00    +0.026 A 
ATOM      6  C   UNL     1       0.142   0.221   0.769  0.00  0.00    +0.039 A 
ATOM      7  C   UNL     1       1.360  -0.460   0.745  0.00  0.00    +0.036 A 
ATOM      8  C   UNL     1       2.413   0.026  -0.015  0.00  0.00    +0.035 A 
ATOM      9  C   UNL     1       2.260   1.190  -0.754  0.00  0.00    +0.036 A 
ATOM     10  C   UNL     1       1.044   1.877  -0.734  0.00  0.00    +0.039 A 
BRANCH  10  11
ATOM     11  C   UNL     1       0.882   3.117  -1.522  0.00  0.00    +0.242 C 
ATOM     12  O   UNL     1       1.807   3.540  -2.187  0.00  0.00    -0.270 OA
ATOM     13  N   UNL     1      -0.292   3.779  -1.503  0.00  0.00    -0.325 N 
ATOM     14  H   UNL     1      -1.030   3.441  -0.972  0.00  0.00    +0.145 HD
ATOM     15  H   UNL     1      -0.399   4.593  -2.020  0.00  0.00    +0.145 HD
ENDBRANCH  10  11
BRANCH   6  16
ATOM     16  C   UNL     1      -0.981  -0.297   1.581  0.00  0.00    +0.242 C 
ATOM     17  O   UNL     1      -0.843  -1.318   2.227  0.00  0.00    -0.270 OA
ATOM     18  N   UNL     1      -2.156   0.361   1.604  0.00  0.00    -0.325 N 
ATOM     19  H   UNL     1      -2.266   1.175   1.088  0.00  0.00    +0.145 HD
ATOM     20  H   UNL     1      -2.892   0.021   2.136  0.00  0.00    +0.145 HD
ENDBRANCH   6  16
ENDBRANCH   1   8
BRANCH   2  21
ATOM     21  C   UNL     1       4.968  -2.733   0.154  0.00  0.00    +0.328 C 
BRANCH  21  22
ATOM     22  O   UNL     1       4.728  -4.138   0.244  0.00  0.00    -0.451 OA
BRANCH  22  23
ATOM     23  C   UNL     1       5.809  -4.940   0.337  0.00  0.00    +0.346 C 
ATOM     24  O   UNL     1       6.926  -4.457   0.342  0.00  0.00    -0.244 OA
BRANCH  23  25
ATOM     25  C   UNL     1       5.639  -6.391   0.432  0.00  0.00    +0.097 A 
ATOM     26  C   UNL     1       6.603  -7.378   0.540  0.00  0.00    +0.026 A 
ATOM     27  C   UNL     1       6.152  -8.687   0.615  0.00  0.00    -0.036 A 
ATOM     28  C   UNL     1       4.801  -8.873   0.573  0.00  0.00    -0.006 A 
ATOM     29  S   UNL     1       4.134  -7.348   0.447  0.00  0.00    -0.086 S 
ATOM     30  C   UNL     1       4.075 -10.184   0.635  0.00  0.00    +0.043 C 
ATOM     31  C   UNL     1       5.083 -11.311   0.373  0.00  0.00    +0.005 C 
ATOM     32  C   UNL     1       6.317 -11.083   1.250  0.00  0.00    +0.005 C 
ATOM     33  C   UNL     1       7.102  -9.875   0.737  0.00  0.00    +0.036 C 
ENDBRANCH  23  25
ENDBRANCH  22  23
ENDBRANCH  21  22
ENDBRANCH   2  21
TORSDOF 7
