REMARK  Name = ZINC20913321
REMARK  12 active torsions:
REMARK  status: ('A' for Active; 'I' for Inactive)
REMARK    1  A    between atoms: C_1  and  O_2
REMARK    2  A    between atoms: O_2  and  C_3
REMARK    3  A    between atoms: C_3  and  C_5
REMARK    4  A    between atoms: C_8  and  C_11
REMARK    5  A    between atoms: N_12  and  N_13
REMARK    6  A    between atoms: C_17  and  S_20
REMARK    7  A    between atoms: N_18  and  N_19
REMARK    8  A    between atoms: S_20  and  C_21
REMARK    9  A    between atoms: C_21  and  C_22
REMARK   10  A    between atoms: N_24  and  C_25
REMARK   11  A    between atoms: C_25  and  C_26
REMARK   12  A    between atoms: C_29  and  C_32
REMARK                            x       y       z     vdW  Elec       q    Type
REMARK                         _______ _______ _______ _____ _____    ______ ____
ROOT
ATOM      1  N   UNL     1      -0.017   1.383   0.010  0.00  0.00    -0.204 N 
ATOM      2  C   UNL     1       0.002  -0.004   0.002  0.00  0.00    +0.254 A 
ATOM      3  N   UNL     1      -1.041  -0.796   0.013  0.00  0.00    -0.109 NA
ATOM      4  N   UNL     1      -0.662  -2.024  -0.003  0.00  0.00    -0.119 NA
ATOM      5  C   UNL     1       0.647  -2.090  -0.015  0.00  0.00    +0.210 A 
ATOM      6  N   UNL     1       1.116  -0.803  -0.013  0.00  0.00    -0.211 N 
ATOM      7  H   UNL     1       0.928   1.946   0.008  0.00  0.00    +0.177 HD
ENDROOT
BRANCH   6   8
ATOM      8  N   UNL     1       2.421  -0.401  -0.024  0.00  0.00    -0.294 N 
ATOM      9  H   UNL     1       3.228  -1.149  -0.035  0.00  0.00    +0.163 HD
ATOM     10  H   UNL     1       2.666   0.672  -0.021  0.00  0.00    +0.163 HD
ENDBRANCH   6   8
BRANCH   1  12
ATOM     11  C   UNL     1      -1.257   3.367   0.026  0.00  0.00    +0.138 C 
ATOM     12  N   UNL     1      -1.239   2.067   0.019  0.00  0.00    -0.188 NA
BRANCH  11  16
ATOM     13  C   UNL     1      -4.954   5.435   0.055  0.00  0.00    +0.059 A 
ATOM     14  C   UNL     1      -3.752   6.151   0.053  0.00  0.00    +0.015 A 
ATOM     15  C   UNL     1      -2.560   5.485   0.044  0.00  0.00    +0.010 A 
ATOM     16  C   UNL     1      -2.541   4.085   0.036  0.00  0.00    -0.005 A 
ATOM     17  C   UNL     1      -3.744   3.369   0.032  0.00  0.00    +0.010 A 
ATOM     18  C   UNL     1      -4.935   4.036   0.048  0.00  0.00    +0.015 A 
BRANCH  13  19
ATOM     19  C   UNL     1      -6.240   6.155   0.065  0.00  0.00    +0.339 C 
ATOM     20  O   UNL     1      -6.257   7.370   0.071  0.00  0.00    -0.245 OA
BRANCH  19  22
ATOM     21  C   UNL     1      -8.627   6.239   0.076  0.00  0.00    +0.280 C 
ATOM     22  O   UNL     1      -7.398   5.465   0.067  0.00  0.00    -0.464 OA
ENDBRANCH  19  22
ENDBRANCH  13  19
ENDBRANCH  11  16
ENDBRANCH   1  12
BRANCH   5  23
ATOM     23  S   UNL     1       1.621  -3.559  -0.032  0.00  0.00    -0.075 S 
BRANCH  23  24
ATOM     24  C   UNL     1       0.308  -4.806  -0.026  0.00  0.00    +0.173 C 
BRANCH  24  25
ATOM     25  C   UNL     1       0.923  -6.182  -0.039  0.00  0.00    +0.224 C 
ATOM     26  O   UNL     1       2.129  -6.307  -0.051  0.00  0.00    -0.275 OA
ATOM     27  N   UNL     1       0.132  -7.273  -0.038  0.00  0.00    -0.311 N 
ATOM     28  H   UNL     1      -0.962  -7.159  -0.027  0.00  0.00    +0.149 HD
BRANCH  27  29
ATOM     29  C   UNL     1       0.729  -8.611  -0.050  0.00  0.00    +0.139 C 
BRANCH  29  30
ATOM     30  C   UNL     1      -0.363  -9.649  -0.046  0.00  0.00    -0.030 A 
ATOM     31  C   UNL     1      -0.849 -10.135   1.153  0.00  0.00    +0.006 A 
ATOM     32  C   UNL     1      -1.855 -11.084   1.158  0.00  0.00    +0.013 A 
ATOM     33  C   UNL     1      -2.367 -11.554  -0.037  0.00  0.00    +0.055 A 
ATOM     34  C   UNL     1      -1.877 -11.071  -1.236  0.00  0.00    +0.013 A 
ATOM     35  C   UNL     1      -0.875 -10.118  -1.241  0.00  0.00    +0.006 A 
BRANCH  33  36
ATOM     36  C   UNL     1      -3.459 -12.592  -0.033  0.00  0.00    +0.417 C 
ATOM     37  F   UNL     1      -2.889 -13.869  -0.046  0.00  0.00    -0.166 F 
ATOM     38  F   UNL     1      -4.241 -12.441   1.118  0.00  0.00    -0.166 F 
ATOM     39  F   UNL     1      -4.263 -12.428  -1.166  0.00  0.00    -0.166 F 
ENDBRANCH  33  36
ENDBRANCH  29  30
ENDBRANCH  27  29
ENDBRANCH  24  25
ENDBRANCH  23  24
ENDBRANCH   5  23
TORSDOF 11
