REMARK  Name = ZINC16517564
REMARK  6 active torsions:
REMARK  status: ('A' for Active; 'I' for Inactive)
REMARK    1  A    between atoms: C_1  and  C_2
REMARK    2  A    between atoms: C_3  and  C_27
REMARK    3  A    between atoms: C_4  and  C_19
REMARK    4  A    between atoms: N_9  and  C_10
REMARK    5  A    between atoms: C_27  and  O_29
REMARK    6  A    between atoms: O_29  and  C_30
REMARK                            x       y       z     vdW  Elec       q    Type
REMARK                         _______ _______ _______ _____ _____    ______ ____
ROOT
ATOM      1  C   UNL     1       4.134  -2.681   2.642  0.00  0.00    +0.062 C 
ATOM      2  C   UNL     1       5.231  -1.653   2.749  0.00  0.00    +0.029 C 
ATOM      3  C   UNL     1       6.325  -1.923   3.494  0.00  0.00    +0.078 C 
ATOM      4  C   UNL     1       7.404  -0.862   3.573  0.00  0.00    +0.146 C 
ATOM      5  N   UNL     1       7.169   0.386   2.827  0.00  0.00    -0.287 N 
ATOM      6  C   UNL     1       6.027   0.507   2.122  0.00  0.00    +0.311 C 
ATOM      7  O   UNL     1       5.827   1.531   1.499  0.00  0.00    -0.252 OA
ATOM      8  N   UNL     1       5.103  -0.462   2.090  0.00  0.00    -0.228 N 
ATOM      9  H   UNL     1       7.824   1.102   2.839  0.00  0.00    +0.151 HD
ENDROOT
BRANCH   8  10
ATOM     10  C   UNL     1       3.942  -0.245   1.334  0.00  0.00    +0.046 A 
ATOM     11  C   UNL     1       3.857  -0.734   0.037  0.00  0.00    +0.028 A 
ATOM     12  C   UNL     1       2.714  -0.521  -0.709  0.00  0.00    +0.051 A 
ATOM     13  C   UNL     1       1.649   0.180  -0.165  0.00  0.00    +0.166 A 
ATOM     14  C   UNL     1       1.732   0.671   1.136  0.00  0.00    +0.168 A 
ATOM     15  C   UNL     1       2.878   0.458   1.882  0.00  0.00    +0.073 A 
ATOM     16  O   UNL     1       0.566   1.316   1.433  0.00  0.00    -0.453 OA
ATOM     17  C   UNL     1      -0.385   0.864   0.452  0.00  0.00    +0.466 C 
ATOM     18  O   UNL     1       0.431   0.518  -0.682  0.00  0.00    -0.453 OA
ENDBRANCH   8  10
BRANCH   4  19
ATOM     19  C   UNL     1       8.689  -1.468   3.072  0.00  0.00    +0.013 A 
ATOM     20  C   UNL     1       9.694  -1.794   3.964  0.00  0.00    +0.011 A 
ATOM     21  C   UNL     1      10.873  -2.349   3.506  0.00  0.00    +0.039 A 
ATOM     22  C   UNL     1      11.050  -2.581   2.151  0.00  0.00    +0.126 A 
ATOM     23  C   UNL     1      10.044  -2.256   1.258  0.00  0.00    +0.077 A 
ATOM     24  C   UNL     1       8.861  -1.703   1.718  0.00  0.00    +0.131 A 
ATOM     25  F   UNL     1       7.878  -1.389   0.847  0.00  0.00    -0.205 F 
ATOM     26  F   UNL     1      12.203  -3.124   1.704  0.00  0.00    -0.205 F 
ENDBRANCH   4  19
BRANCH   3  27
ATOM     27  C   UNL     1       6.459  -3.155   4.176  0.00  0.00    +0.339 C 
ATOM     28  O   UNL     1       5.579  -3.992   4.099  0.00  0.00    -0.245 OA
BRANCH  27  29
ATOM     29  O   UNL     1       7.563  -3.402   4.912  0.00  0.00    -0.465 OA
ATOM     30  C   UNL     1       7.632  -4.667   5.573  0.00  0.00    +0.280 C 
ENDBRANCH  27  29
ENDBRANCH   3  27
TORSDOF 4
