REMARK  Name = ZINC50090976
REMARK  8 active torsions:
REMARK  status: ('A' for Active; 'I' for Inactive)
REMARK    1  A    between atoms: C_1  and  C_2
REMARK    2  A    between atoms: C_2  and  C_4
REMARK    3  A    between atoms: C_2  and  N_16
REMARK    4  A    between atoms: C_6  and  C_9
REMARK    5  A    between atoms: N_19  and  C_20
REMARK    6  A    between atoms: C_22  and  C_28
REMARK    7  A    between atoms: C_25  and  O_26
REMARK    8  A    between atoms: O_26  and  C_27
REMARK                            x       y       z     vdW  Elec       q    Type
REMARK                         _______ _______ _______ _____ _____    ______ ____
ROOT
ATOM      1  N   UNL     1       0.687  -0.492  -1.197  0.00  0.00    -0.288 N 
ATOM      2  C   UNL     1       2.031  -0.593  -1.213  0.00  0.00    +0.305 C 
ATOM      3  O   UNL     1       2.674  -0.297  -0.224  0.00  0.00    -0.252 OA
ATOM      4  N   UNL     1       2.662  -1.022  -2.324  0.00  0.00    -0.266 N 
ATOM      5  H   UNL     1       0.174  -0.729  -1.986  0.00  0.00    +0.151 HD
ATOM      6  H   UNL     1       2.147  -1.319  -3.090  0.00  0.00    +0.156 HD
ENDROOT
BRANCH   4   7
ATOM      7  C   UNL     1       4.063  -1.037  -2.373  0.00  0.00    +0.078 A 
ATOM      8  C   UNL     1       4.792  -1.325  -1.233  0.00  0.00    +0.046 A 
ATOM      9  C   UNL     1       6.188  -1.340  -1.286  0.00  0.00    +0.054 A 
ATOM     10  C   UNL     1       6.841  -1.064  -2.490  0.00  0.00    +0.022 A 
ATOM     11  C   UNL     1       6.109  -0.778  -3.622  0.00  0.00    +0.049 A 
ATOM     12  C   UNL     1       4.722  -0.768  -3.572  0.00  0.00    +0.141 A 
BRANCH  12  13
ATOM     13  O   UNL     1       4.005  -0.490  -4.692  0.00  0.00    -0.493 OA
ATOM     14  C   UNL     1       4.745  -0.224  -5.886  0.00  0.00    +0.277 C 
ENDBRANCH  12  13
BRANCH   9  15
ATOM     15  C   UNL     1       6.947  -1.637  -0.109  0.00  0.00    +0.099 C 
ATOM     16  N   UNL     1       7.550  -1.873   0.825  0.00  0.00    -0.191 NA
ENDBRANCH   9  15
ENDBRANCH   4   7
BRANCH   1  18
ATOM     17  C   UNL     1      -0.031   1.503   0.021  0.00  0.00    +0.038 C 
ATOM     18  C   UNL     1       0.001  -0.026   0.011  0.00  0.00    +0.160 C 
BRANCH  18  19
ATOM     19  C   UNL     1      -1.409  -0.558   0.025  0.00  0.00    +0.248 A 
ATOM     20  N   UNL     1      -2.013  -1.085   1.052  0.00  0.00    -0.190 NA
ATOM     21  C   UNL     1      -3.261  -1.453   0.712  0.00  0.00    +0.202 A 
ATOM     22  N   UNL     1      -3.457  -1.157  -0.550  0.00  0.00    -0.056 NA
ATOM     23  O   UNL     1      -2.253  -0.564  -1.014  0.00  0.00    -0.336 OA
BRANCH  21  24
ATOM     24  C   UNL     1      -4.253  -2.088   1.615  0.00  0.00    +0.023 A 
ATOM     25  C   UNL     1      -3.922  -2.346   2.944  0.00  0.00    +0.014 A 
ATOM     26  C   UNL     1      -4.846  -2.937   3.781  0.00  0.00    +0.039 A 
ATOM     27  C   UNL     1      -6.102  -3.273   3.301  0.00  0.00    +0.123 A 
ATOM     28  C   UNL     1      -6.435  -3.018   1.981  0.00  0.00    +0.039 A 
ATOM     29  C   UNL     1      -5.519  -2.423   1.139  0.00  0.00    +0.014 A 
ATOM     30  F   UNL     1      -7.005  -3.851   4.124  0.00  0.00    -0.205 F 
ENDBRANCH  21  24
ENDBRANCH  18  19
ENDBRANCH   1  18
TORSDOF 6
