REMARK  Name = ZINC21882504
REMARK  6 active torsions:
REMARK  status: ('A' for Active; 'I' for Inactive)
REMARK    1  A    between atoms: C_4  and  C_7
REMARK    2  A    between atoms: C_7  and  N_8
REMARK    3  A    between atoms: C_11  and  N_14
REMARK    4  A    between atoms: C_15  and  C_17
REMARK    5  A    between atoms: C_17  and  C_18
REMARK    6  A    between atoms: C_18  and  C_19
REMARK                            x       y       z     vdW  Elec       q    Type
REMARK                         _______ _______ _______ _____ _____    ______ ____
ROOT
ATOM      1  N   UNL     1       3.695  -4.944  -0.052  0.00  0.00    -0.313 N 
ATOM      2  C   UNL     1       2.542  -4.247  -0.039  0.00  0.00    +0.214 C 
ATOM      3  O   UNL     1       1.479  -4.832  -0.033  0.00  0.00    -0.276 OA
ATOM      4  H   UNL     1       4.659  -4.414  -0.058  0.00  0.00    +0.149 HD
ENDROOT
BRANCH   1   8
ATOM      5  N   UNL     1       4.836  -8.917   0.765  0.00  0.00    +0.382 N 
ATOM      6  C   UNL     1       4.947  -8.474  -0.631  0.00  0.00    -0.077 C 
ATOM      7  C   UNL     1       4.957  -6.944  -0.682  0.00  0.00    +0.003 C 
ATOM      8  C   UNL     1       3.665  -6.409  -0.059  0.00  0.00    +0.069 C 
ATOM      9  C   UNL     1       3.549  -6.925   1.378  0.00  0.00    +0.003 C 
ATOM     10  C   UNL     1       3.580  -8.455   1.370  0.00  0.00    -0.077 C 
ATOM     11  H   UNL     1       5.665  -8.465   1.328  0.00  0.00    -0.081 HD
BRANCH   5  12
ATOM     12  C   UNL     1       4.962 -10.377   0.865  0.00  0.00    -0.043 C 
BRANCH  12  16
ATOM     13  C   UNL     1       5.322 -11.498   4.971  0.00  0.00    +0.000 A 
ATOM     14  C   UNL     1       4.073 -11.414   4.384  0.00  0.00    +0.000 A 
ATOM     15  C   UNL     1       3.957 -11.051   3.056  0.00  0.00    +0.002 A 
ATOM     16  C   UNL     1       5.089 -10.773   2.313  0.00  0.00    -0.064 A 
ATOM     17  C   UNL     1       6.338 -10.861   2.898  0.00  0.00    +0.002 A 
ATOM     18  C   UNL     1       6.455 -11.219   4.229  0.00  0.00    +0.000 A 
ENDBRANCH  12  16
ENDBRANCH   5  12
ENDBRANCH   1   8
BRANCH   2  19
ATOM     19  C   UNL     1       2.572  -2.740  -0.032  0.00  0.00    +0.103 C 
BRANCH  19  20
ATOM     20  C   UNL     1       1.141  -2.201  -0.018  0.00  0.00    +0.083 C 
BRANCH  20  21
ATOM     21  C   UNL     1       1.171  -0.694  -0.011  0.00  0.00    +0.111 A 
ATOM     22  N   UNL     1       0.002  -0.004   0.002  0.00  0.00    -0.310 N 
ATOM     23  H   UNL     1      -0.956  -0.545   0.007  0.00  0.00    +0.170 HD
ATOM     24  C   UNL     1      -0.016   1.342   0.009  0.00  0.00    +0.260 A 
ATOM     25  O   UNL     1      -1.074   1.948   0.018  0.00  0.00    -0.267 OA
ATOM     26  C   UNL     1       1.230   2.050   0.001  0.00  0.00    +0.075 A 
ATOM     27  C   UNL     1       1.446   3.500   0.008  0.00  0.00    -0.023 A 
ATOM     28  C   UNL     1       2.728   3.921  -0.012  0.00  0.00    -0.004 A 
ATOM     29  S   UNL     1       3.703   2.439  -0.022  0.00  0.00    -0.073 S 
ATOM     30  C   UNL     1       2.383   1.253  -0.013  0.00  0.00    +0.116 A 
ATOM     31  N   UNL     1       2.322  -0.076  -0.017  0.00  0.00    -0.227 NA
ATOM     32  C   UNL     1       3.231   5.331  -0.038  0.00  0.00    +0.043 C 
ATOM     33  C   UNL     1       2.517   6.144   1.050  0.00  0.00    +0.005 C 
ATOM     34  C   UNL     1       1.248   6.742   0.449  0.00  0.00    +0.001 C 
ATOM     35  C   UNL     1       0.671   5.796  -0.602  0.00  0.00    +0.005 C 
ATOM     36  C   UNL     1       0.270   4.471   0.035  0.00  0.00    +0.037 C 
ENDBRANCH  20  21
ENDBRANCH  19  20
ENDBRANCH   2  19
TORSDOF 6
