REMARK  Name = ZINC39509235
REMARK  11 active torsions:
REMARK  status: ('A' for Active; 'I' for Inactive)
REMARK    1  A    between atoms: C_1  and  C_2
REMARK    2  A    between atoms: C_2  and  O_3
REMARK    3  A    between atoms: O_3  and  C_4
REMARK    4  A    between atoms: C_4  and  C_6
REMARK    5  A    between atoms: N_9  and  C_25
REMARK    6  A    between atoms: C_10  and  C_12
REMARK    7  A    between atoms: C_12  and  N_13
REMARK    8  A    between atoms: N_13  and  C_14
REMARK    9  A    between atoms: C_14  and  C_15
REMARK   10  A    between atoms: C_15  and  C_16
REMARK   11  A    between atoms: N_29  and  C_36
REMARK                            x       y       z     vdW  Elec       q    Type
REMARK                         _______ _______ _______ _____ _____    ______ ____
ROOT
ATOM      1  C   UNL     1      -2.695  -2.238  -0.278  0.00  0.00    +0.072 C 
ATOM      2  C   UNL     1      -2.980  -3.280   0.528  0.00  0.00    +0.100 C 
ATOM      3  N   UNL     1      -4.307  -3.352   0.805  0.00  0.00    -0.270 N 
ATOM      4  N   UNL     1      -5.008  -2.318   0.171  0.00  0.00    -0.247 N 
ATOM      5  C   UNL     1      -4.003  -1.531  -0.563  0.00  0.00    +0.115 C 
ATOM      6  H   UNL     1      -4.715  -4.029   1.366  0.00  0.00    +0.169 HD
ENDROOT
BRANCH   4   7
ATOM      7  C   UNL     1      -6.365  -2.080   0.228  0.00  0.00    +0.062 A 
ATOM      8  C   UNL     1      -6.859  -0.806   0.149  0.00  0.00    +0.095 A 
ATOM      9  C   UNL     1      -8.241  -0.582   0.209  0.00  0.00    +0.253 A 
ATOM     10  O   UNL     1      -8.659   0.562   0.137  0.00  0.00    -0.268 OA
ATOM     11  N   UNL     1      -9.118  -1.590   0.343  0.00  0.00    -0.311 N 
ATOM     12  C   UNL     1      -8.694  -2.901   0.428  0.00  0.00    +0.054 A 
ATOM     13  C   UNL     1      -7.319  -3.191   0.369  0.00  0.00    +0.021 A 
ATOM     14  C   UNL     1      -6.882  -4.514   0.450  0.00  0.00    +0.012 A 
ATOM     15  C   UNL     1      -7.803  -5.529   0.582  0.00  0.00    +0.001 A 
ATOM     16  C   UNL     1      -9.160  -5.243   0.634  0.00  0.00    +0.002 A 
ATOM     17  C   UNL     1      -9.607  -3.940   0.567  0.00  0.00    +0.026 A 
ATOM     18  C   UNL     1     -10.552  -1.294   0.399  0.00  0.00    +0.152 C 
ENDBRANCH   4   7
BRANCH   1  19
ATOM     19  C   UNL     1      -1.419  -1.872  -0.760  0.00  0.00    +0.338 C 
ATOM     20  O   UNL     1      -0.442  -2.530  -0.455  0.00  0.00    -0.245 OA
BRANCH  19  21
ATOM     21  O   UNL     1      -1.284  -0.793  -1.560  0.00  0.00    -0.462 OA
BRANCH  21  23
ATOM     22  C   UNL     1      -0.009   0.763  -2.898  0.00  0.00    +0.048 C 
ATOM     23  C   UNL     1       0.036  -0.482  -2.010  0.00  0.00    +0.229 C 
ENDBRANCH  21  23
ENDBRANCH  19  21
ENDBRANCH   1  19
BRANCH   5  24
ATOM     24  C   UNL     1      -4.305  -1.548  -2.062  0.00  0.00    -0.053 C 
BRANCH  24  25
ATOM     25  N   UNL     1      -5.603  -0.905  -2.308  0.00  0.00    +0.381 N 
ATOM     26  H   UNL     1      -6.336  -1.458  -1.889  0.00  0.00    -0.086 HD
ATOM     27  H   UNL     1      -5.603   0.018  -1.900  0.00  0.00    -0.086 HD
BRANCH  25  28
ATOM     28  C   UNL     1      -5.832  -0.802  -3.755  0.00  0.00    -0.078 C 
BRANCH  28  29
ATOM     29  C   UNL     1      -7.184  -0.132  -4.010  0.00  0.00    +0.018 C 
BRANCH  29  30
ATOM     30  C   UNL     1      -7.420  -0.026  -5.495  0.00  0.00    -0.024 A 
ATOM     31  C   UNL     1      -7.987  -1.060  -6.363  0.00  0.00    +0.003 A 
ATOM     32  C   UNL     1      -8.456  -2.358  -6.149  0.00  0.00    +0.010 A 
ATOM     33  C   UNL     1      -8.938  -3.087  -7.199  0.00  0.00    +0.001 A 
ATOM     34  C   UNL     1      -8.965  -2.549  -8.478  0.00  0.00    +0.002 A 
ATOM     35  C   UNL     1      -8.508  -1.270  -8.712  0.00  0.00    +0.026 A 
ATOM     36  C   UNL     1      -8.013  -0.510  -7.658  0.00  0.00    +0.047 A 
ATOM     37  N   UNL     1      -7.497   0.764  -7.568  0.00  0.00    -0.360 N 
ATOM     38  C   UNL     1      -7.155   1.036  -6.271  0.00  0.00    +0.087 A 
ATOM     39  H   UNL     1      -7.396   1.377  -8.312  0.00  0.00    +0.165 HD
ENDBRANCH  29  30
ENDBRANCH  28  29
ENDBRANCH  25  28
ENDBRANCH  24  25
ENDBRANCH   5  24
TORSDOF 9
