REMARK  Name = ZINC48833732
REMARK  11 active torsions:
REMARK  status: ('A' for Active; 'I' for Inactive)
REMARK    1  A    between atoms: C_1  and  C_2
REMARK    2  A    between atoms: C_2  and  C_30
REMARK    3  A    between atoms: C_7  and  N_11
REMARK    4  A    between atoms: C_12  and  C_14
REMARK    5  A    between atoms: N_16  and  C_17
REMARK    6  A    between atoms: C_17  and  C_18
REMARK    7  A    between atoms: C_18  and  C_20
REMARK    8  A    between atoms: C_18  and  N_27
REMARK    9  A    between atoms: C_20  and  C_21
REMARK   10  A    between atoms: N_27  and  C_28
REMARK   11  A    between atoms: N_27  and  C_29
REMARK                            x       y       z     vdW  Elec       q    Type
REMARK                         _______ _______ _______ _____ _____    ______ ____
ROOT
ATOM      1  C   UNL     1      -1.674  -6.826   6.005  0.00  0.00    +0.299 C 
ATOM      2  O   UNL     1      -0.513  -6.792   6.359  0.00  0.00    -0.265 OA
ATOM      3  N   UNL     1      -2.282  -8.012   5.805  0.00  0.00    -0.309 N 
ATOM      4  H   UNL     1      -3.210  -8.039   5.523  0.00  0.00    +0.149 HD
ENDROOT
BRANCH   1   6
ATOM      5  N   UNL     1      -1.820  -4.369   5.994  0.00  0.00    -0.278 N 
ATOM      6  C   UNL     1      -2.428  -5.555   5.794  0.00  0.00    +0.303 C 
ATOM      7  O   UNL     1      -3.589  -5.589   5.441  0.00  0.00    -0.265 OA
ATOM      8  H   UNL     1      -0.874  -4.339   6.209  0.00  0.00    +0.155 HD
BRANCH   5  15
ATOM      9  C   UNL     1      -6.427   0.600   3.586  0.00  0.00    +0.104 C 
ATOM     10  C   UNL     1      -5.918  -0.379   4.645  0.00  0.00    +0.248 C 
ATOM     11  O   UNL     1      -4.843   0.208   5.402  0.00  0.00    -0.448 OA
ATOM     12  C   UNL     1      -3.999  -0.824   5.698  0.00  0.00    +0.167 A 
ATOM     13  C   UNL     1      -2.989  -0.942   6.639  0.00  0.00    +0.051 A 
ATOM     14  C   UNL     1      -2.267  -2.116   6.738  0.00  0.00    +0.027 A 
ATOM     15  C   UNL     1      -2.552  -3.181   5.894  0.00  0.00    +0.038 A 
ATOM     16  C   UNL     1      -3.564  -3.067   4.949  0.00  0.00    +0.073 A 
ATOM     17  C   UNL     1      -4.287  -1.891   4.849  0.00  0.00    +0.169 A 
ATOM     18  O   UNL     1      -5.311  -1.527   4.023  0.00  0.00    -0.448 OA
ATOM     19  C   UNL     1      -7.058  -0.808   5.570  0.00  0.00    +0.104 C 
ENDBRANCH   5  15
ENDBRANCH   1   6
BRANCH   3  20
ATOM     20  C   UNL     1      -1.543  -9.259   6.013  0.00  0.00    +0.090 C 
BRANCH  20  21
ATOM     21  C   UNL     1      -2.394 -10.441   5.544  0.00  0.00    -0.048 C 
BRANCH  21  22
ATOM     22  N   UNL     1      -2.520 -10.404   4.081  0.00  0.00    +0.379 N 
ATOM     23  C   UNL     1      -3.197  -9.165   3.679  0.00  0.00    -0.096 C 
ATOM     24  C   UNL     1      -1.183 -10.451   3.473  0.00  0.00    -0.096 C 
ATOM     25  H   UNL     1      -3.059 -11.198   3.770  0.00  0.00    -0.082 HD
ENDBRANCH  21  22
BRANCH  21  26
ATOM     26  C   UNL     1      -1.724 -11.751   5.966  0.00  0.00    +0.021 C 
BRANCH  26  27
ATOM     27  C   UNL     1      -2.631 -12.908   5.634  0.00  0.00    -0.049 A 
ATOM     28  C   UNL     1      -3.629 -13.278   6.516  0.00  0.00    +0.003 A 
ATOM     29  C   UNL     1      -4.461 -14.340   6.212  0.00  0.00    +0.000 A 
ATOM     30  C   UNL     1      -4.294 -15.030   5.026  0.00  0.00    +0.000 A 
ATOM     31  C   UNL     1      -3.297 -14.659   4.144  0.00  0.00    +0.000 A 
ATOM     32  C   UNL     1      -2.468 -13.595   4.446  0.00  0.00    +0.003 A 
ENDBRANCH  26  27
ENDBRANCH  21  26
ENDBRANCH  20  21
ENDBRANCH   3  20
TORSDOF 7
