REMARK  Name = ZINC39451991
REMARK  7 active torsions:
REMARK  status: ('A' for Active; 'I' for Inactive)
REMARK    1  A    between atoms: C_1  and  S_2
REMARK    2  A    between atoms: S_2  and  C_3
REMARK    3  A    between atoms: N_9  and  C_12
REMARK    4  A    between atoms: C_12  and  C_13
REMARK    5  A    between atoms: C_22  and  S_25
REMARK    6  A    between atoms: S_25  and  O_28
REMARK    7  A    between atoms: O_28  and  C_29
REMARK                            x       y       z     vdW  Elec       q    Type
REMARK                         _______ _______ _______ _____ _____    ______ ____
ROOT
ATOM      1  C   UNL     1       0.583  -1.282  -0.724  0.00  0.00    +0.026 A 
ATOM      2  C   UNL     1       0.899  -2.512  -1.296  0.00  0.00    +0.031 A 
ATOM      3  C   UNL     1       1.540  -2.511  -2.532  0.00  0.00    +0.068 A 
ATOM      4  C   UNL     1       1.843  -1.279  -3.154  0.00  0.00    +0.099 A 
ATOM      5  C   UNL     1       2.518  -1.307  -4.457  0.00  0.00    +0.082 A 
ATOM      6  C   UNL     1       2.842  -2.521  -5.037  0.00  0.00    +0.111 A 
ATOM      7  N   UNL     1       2.532  -3.720  -4.405  0.00  0.00    -0.299 N 
ATOM      8  C   UNL     1       1.913  -3.761  -3.212  0.00  0.00    +0.261 A 
ATOM      9  O   UNL     1       1.661  -4.833  -2.693  0.00  0.00    -0.267 OA
ATOM     10  C   UNL     1       3.502  -2.548  -6.285  0.00  0.00    +0.185 C 
ATOM     11  O   UNL     1       3.741  -3.615  -6.815  0.00  0.00    -0.290 OA
ATOM     12  C   UNL     1       3.912  -1.268  -6.965  0.00  0.00    +0.130 C 
ATOM     13  C   UNL     1       2.938  -0.151  -6.574  0.00  0.00    +0.263 C 
ATOM     14  N   UNL     1       2.828  -0.128  -5.108  0.00  0.00    -0.317 N 
ATOM     15  N   UNL     1       1.519  -0.134  -2.566  0.00  0.00    -0.252 NA
ATOM     16  C   UNL     1       0.909  -0.106  -1.402  0.00  0.00    +0.126 A 
ATOM     17  H   UNL     1       2.968   0.693  -4.611  0.00  0.00    +0.148 HD
ENDROOT
BRANCH  13  18
ATOM     18  S   UNL     1       1.310  -0.474  -7.306  0.00  0.00    +0.140 S 
ATOM     19  O   UNL     1       1.376  -0.348  -8.720  0.00  0.00    -0.135 OA
ATOM     20  O   UNL     1       0.723  -1.621  -6.707  0.00  0.00    -0.135 OA
BRANCH  18  21
ATOM     21  O   UNL     1       0.440   0.690  -6.853  0.00  0.00    -0.345 OA
BRANCH  21  22
ATOM     22  C   UNL     1       0.690   1.855  -7.507  0.00  0.00    +0.156 A 
ATOM     23  C   UNL     1       1.641   2.737  -7.014  0.00  0.00    +0.048 A 
ATOM     24  C   UNL     1       1.894   3.920  -7.681  0.00  0.00    +0.004 A 
ATOM     25  C   UNL     1       1.200   4.226  -8.837  0.00  0.00    +0.000 A 
ATOM     26  C   UNL     1       0.252   3.349  -9.330  0.00  0.00    +0.004 A 
ATOM     27  C   UNL     1      -0.000   2.161  -8.671  0.00  0.00    +0.048 A 
ENDBRANCH  21  22
ENDBRANCH  18  21
ENDBRANCH  13  18
BRANCH   1  29
ATOM     28  C   UNL     1      -0.429   0.565   1.148  0.00  0.00    +0.090 C 
ATOM     29  S   UNL     1      -0.230  -1.211   0.838  0.00  0.00    -0.127 S 
ENDBRANCH   1  29
BRANCH   7  30
ATOM     30  C   UNL     1       2.889  -4.980  -5.062  0.00  0.00    +0.160 C 
BRANCH  30  31
ATOM     31  C   UNL     1       4.263  -5.408  -4.612  0.00  0.00    -0.028 A 
ATOM     32  C   UNL     1       5.368  -5.107  -5.386  0.00  0.00    +0.005 A 
ATOM     33  C   UNL     1       6.628  -5.500  -4.974  0.00  0.00    +0.000 A 
ATOM     34  C   UNL     1       6.782  -6.193  -3.788  0.00  0.00    +0.000 A 
ATOM     35  C   UNL     1       5.677  -6.494  -3.014  0.00  0.00    +0.000 A 
ATOM     36  C   UNL     1       4.418  -6.097  -3.424  0.00  0.00    +0.005 A 
ENDBRANCH  30  31
ENDBRANCH   7  30
TORSDOF 6
