REMARK  Name = ZINC39671561
REMARK  4 active torsions:
REMARK  status: ('A' for Active; 'I' for Inactive)
REMARK    1  A    between atoms: C_6  and  C_11
REMARK    2  A    between atoms: C_11  and  N_12
REMARK    3  A    between atoms: C_13  and  C_15
REMARK    4  A    between atoms: C_26  and  C_28
REMARK                            x       y       z     vdW  Elec       q    Type
REMARK                         _______ _______ _______ _____ _____    ______ ____
ROOT
ATOM      1  C   UNL     1      -8.173   0.517   2.225  0.00  0.00    +0.100 C 
ATOM      2  C   UNL     1      -7.846   1.358   3.480  0.00  0.00    +0.121 C 
ATOM      3  N   UNL     1      -8.942   2.353   3.558  0.00  0.00    -0.300 N 
ATOM      4  C   UNL     1     -10.156   1.595   3.173  0.00  0.00    +0.115 C 
ATOM      5  C   UNL     1      -9.690   0.672   2.030  0.00  0.00    -0.004 C 
ATOM      6  C   UNL     1     -10.378  -0.686   2.134  0.00  0.00    -0.010 C 
ATOM      7  C   UNL     1     -11.878  -0.514   1.877  0.00  0.00    -0.082 C 
ATOM      8  N   UNL     1     -12.086   0.061   0.543  0.00  0.00    +0.379 N 
ATOM      9  C   UNL     1     -11.501   1.406   0.481  0.00  0.00    -0.082 C 
ATOM     10  C   UNL     1      -9.986   1.316   0.678  0.00  0.00    -0.010 C 
ATOM     11  C   UNL     1      -8.854   3.653   3.903  0.00  0.00    +0.219 C 
ATOM     12  O   UNL     1      -7.770   4.151   4.120  0.00  0.00    -0.275 OA
ATOM     13  H   UNL     1     -11.645  -0.528  -0.148  0.00  0.00    -0.086 HD
ATOM     14  H   UNL     1     -13.075   0.116   0.352  0.00  0.00    -0.086 HD
ENDROOT
BRANCH  11  15
ATOM     15  C   UNL     1     -10.103   4.488   4.019  0.00  0.00    +0.079 C 
ATOM     16  C   UNL     1      -9.759   5.965   3.791  0.00  0.00    +0.017 C 
ATOM     17  C   UNL     1     -11.063   6.763   3.737  0.00  0.00    +0.027 C 
ATOM     18  C   UNL     1     -11.933   6.414   4.909  0.00  0.00    -0.031 C 
ATOM     19  C   UNL     1     -11.774   5.357   5.640  0.00  0.00    -0.030 C 
ATOM     20  C   UNL     1     -10.696   4.335   5.421  0.00  0.00    +0.039 C 
ENDBRANCH  11  15
BRANCH   1  22
ATOM     21  N   UNL     1      -7.085   0.221   0.024  0.00  0.00    -0.309 N 
ATOM     22  C   UNL     1      -7.432   1.052   1.027  0.00  0.00    +0.219 C 
ATOM     23  O   UNL     1      -7.147   2.229   0.966  0.00  0.00    -0.275 OA
ATOM     24  H   UNL     1      -7.313  -0.720   0.072  0.00  0.00    +0.149 HD
BRANCH  21  25
ATOM     25  C   UNL     1      -6.365   0.741  -1.141  0.00  0.00    +0.157 C 
BRANCH  25  31
ATOM     26  C   UNL     1      -4.780  -3.848  -4.810  0.00  0.00    +0.001 A 
ATOM     27  C   UNL     1      -6.046  -3.636  -5.337  0.00  0.00    +0.002 A 
ATOM     28  C   UNL     1      -6.863  -2.650  -4.827  0.00  0.00    +0.026 A 
ATOM     29  C   UNL     1      -6.417  -1.859  -3.774  0.00  0.00    +0.047 A 
ATOM     30  N   UNL     1      -6.977  -0.822  -3.063  0.00  0.00    -0.357 N 
ATOM     31  C   UNL     1      -6.099  -0.382  -2.110  0.00  0.00    +0.034 A 
ATOM     32  H   UNL     1      -7.863  -0.456  -3.216  0.00  0.00    +0.166 HD
ATOM     33  C   UNL     1      -4.966  -1.099  -2.166  0.00  0.00    +0.032 A 
ATOM     34  C   UNL     1      -5.132  -2.079  -3.243  0.00  0.00    -0.000 A 
ATOM     35  C   UNL     1      -4.323  -3.086  -3.772  0.00  0.00    +0.010 A 
ENDBRANCH  25  31
ENDBRANCH  21  25
ENDBRANCH   1  22
TORSDOF 4
