REMARK  Name = ZINC40083614
REMARK  18 active torsions:
REMARK  status: ('A' for Active; 'I' for Inactive)
REMARK    1  A    between atoms: C_1  and  C_2
REMARK    2  A    between atoms: C_2  and  C_3
REMARK    3  A    between atoms: C_3  and  C_4
REMARK    4  A    between atoms: C_4  and  O_5
REMARK    5  A    between atoms: O_5  and  C_6
REMARK    6  A    between atoms: C_9  and  C_13
REMARK    7  A    between atoms: C_10  and  C_12
REMARK    8  A    between atoms: C_13  and  C_15
REMARK    9  A    between atoms: N_19  and  C_31
REMARK   10  A    between atoms: C_20  and  C_22
REMARK   11  A    between atoms: C_25  and  C_28
REMARK   12  A    between atoms: C_28  and  C_29
REMARK   13  A    between atoms: C_28  and  C_30
REMARK   14  A    between atoms: C_31  and  C_32
REMARK   15  A    between atoms: C_32  and  O_33
REMARK   16  A    between atoms: O_33  and  C_34
REMARK   17  A    between atoms: C_34  and  C_35
REMARK   18  A    between atoms: C_35  and  O_36
REMARK                            x       y       z     vdW  Elec       q    Type
REMARK                         _______ _______ _______ _____ _____    ______ ____
ROOT
ATOM      1  C   UNL     1       3.982  -9.703   1.810  0.00  0.00    +0.076 C 
ATOM      2  C   UNL     1       4.158 -10.970   1.371  0.00  0.00    +0.249 C 
ATOM      3  C   UNL     1       3.583 -11.099   0.015  0.00  0.00    +0.288 C 
ATOM      4  O   UNL     1       3.583 -12.116  -0.648  0.00  0.00    -0.266 OA
ATOM      5  N   UNL     1       3.060  -9.922  -0.375  0.00  0.00    -0.281 N 
ATOM      6  C   UNL     1       3.259  -8.957   0.713  0.00  0.00    +0.145 C 
ATOM      7  O   UNL     1       4.763 -11.963   2.063  0.00  0.00    -0.282 OA
ENDROOT
BRANCH   6   8
ATOM      8  C   UNL     1       1.929  -8.457   1.216  0.00  0.00    -0.022 A 
ATOM      9  C   UNL     1       0.887  -9.343   1.413  0.00  0.00    +0.006 A 
ATOM     10  C   UNL     1      -0.333  -8.884   1.874  0.00  0.00    +0.004 A 
ATOM     11  C   UNL     1      -0.510  -7.539   2.138  0.00  0.00    -0.045 A 
ATOM     12  C   UNL     1       0.533  -6.652   1.942  0.00  0.00    +0.004 A 
ATOM     13  C   UNL     1       1.754  -7.112   1.485  0.00  0.00    +0.006 A 
BRANCH  11  14
ATOM     14  C   UNL     1      -1.840  -7.038   2.640  0.00  0.00    +0.013 C 
ATOM     15  C   UNL     1      -1.639  -6.290   3.959  0.00  0.00    +0.012 C 
ATOM     16  C   UNL     1      -2.452  -6.092   1.605  0.00  0.00    +0.012 C 
ENDBRANCH  11  14
ENDBRANCH   6   8
BRANCH   1  17
ATOM     17  C   UNL     1       4.406  -9.159   3.104  0.00  0.00    +0.195 C 
ATOM     18  O   UNL     1       3.917  -9.586   4.134  0.00  0.00    -0.287 OA
BRANCH  17  22
ATOM     19  C   UNL     1       7.338  -6.090   3.260  0.00  0.00    +0.121 A 
ATOM     20  C   UNL     1       7.007  -6.672   2.041  0.00  0.00    +0.046 A 
ATOM     21  C   UNL     1       6.058  -7.667   1.986  0.00  0.00    +0.015 A 
ATOM     22  C   UNL     1       5.425  -8.092   3.159  0.00  0.00    +0.025 A 
ATOM     23  C   UNL     1       5.760  -7.504   4.382  0.00  0.00    -0.036 A 
ATOM     24  C   UNL     1       6.715  -6.513   4.429  0.00  0.00    +0.049 A 
ATOM     25  C   UNL     1       5.081  -7.958   5.648  0.00  0.00    +0.044 C 
BRANCH  19  26
ATOM     26  O   UNL     1       8.275  -5.109   3.310  0.00  0.00    -0.492 OA
BRANCH  26  27
ATOM     27  C   UNL     1       8.875  -4.722   2.072  0.00  0.00    +0.229 C 
BRANCH  27  28
ATOM     28  C   UNL     1       9.898  -3.614   2.326  0.00  0.00    +0.041 C 
BRANCH  28  30
ATOM     29  C   UNL     1      11.564  -2.091   1.255  0.00  0.00    +0.004 C 
ATOM     30  C   UNL     1      10.541  -3.199   1.001  0.00  0.00    -0.000 C 
ENDBRANCH  28  30
ENDBRANCH  27  28
ENDBRANCH  26  27
ENDBRANCH  19  26
ENDBRANCH  17  22
ENDBRANCH   1  17
BRANCH   5  31
ATOM     31  C   UNL     1       2.402  -9.654  -1.656  0.00  0.00    +0.137 C 
BRANCH  31  32
ATOM     32  C   UNL     1       3.416  -9.058  -2.635  0.00  0.00    +0.179 C 
BRANCH  32  33
ATOM     33  O   UNL     1       4.420 -10.030  -2.932  0.00  0.00    -0.376 OA
BRANCH  33  34
ATOM     34  C   UNL     1       5.480  -9.539  -3.754  0.00  0.00    +0.187 C 
BRANCH  34  35
ATOM     35  C   UNL     1       6.427 -10.688  -4.106  0.00  0.00    +0.184 C 
BRANCH  35  36
ATOM     36  O   UNL     1       5.728 -11.658  -4.889  0.00  0.00    -0.393 OA
ATOM     37  H   UNL     1       6.286 -12.378  -5.214  0.00  0.00    +0.209 HD
ENDBRANCH  35  36
ENDBRANCH  34  35
ENDBRANCH  33  34
ENDBRANCH  32  33
ENDBRANCH  31  32
ENDBRANCH   5  31
TORSDOF 14
