REMARK  Name = ZINC02686943
REMARK  7 active torsions:
REMARK  status: ('A' for Active; 'I' for Inactive)
REMARK    1  A    between atoms: C_1  and  C_2
REMARK    2  A    between atoms: C_5  and  N_8
REMARK    3  A    between atoms: C_9  and  C_11
REMARK    4  A    between atoms: C_11  and  C_12
REMARK    5  A    between atoms: N_16  and  C_24
REMARK    6  A    between atoms: C_24  and  C_25
REMARK    7  A    between atoms: N_27  and  C_28
REMARK                            x       y       z     vdW  Elec       q    Type
REMARK                         _______ _______ _______ _____ _____    ______ ____
ROOT
ATOM      1  C   UNL     1       3.672   6.180  -0.367  0.00  0.00    +0.166 C 
ATOM      2  C   UNL     1       3.653   7.621   0.075  0.00  0.00    +0.241 C 
ATOM      3  O   UNL     1       3.624   7.885   1.259  0.00  0.00    -0.273 OA
ATOM      4  N   UNL     1       3.669   8.617  -0.832  0.00  0.00    -0.259 N 
ATOM      5  C   UNL     1       3.845   8.347  -2.194  0.00  0.00    +0.058 A 
ATOM      6  C   UNL     1       3.650   9.339  -3.141  0.00  0.00    +0.025 A 
ATOM      7  C   UNL     1       3.807   9.050  -4.484  0.00  0.00    +0.002 A 
ATOM      8  C   UNL     1       4.159   7.775  -4.888  0.00  0.00    +0.002 A 
ATOM      9  C   UNL     1       4.360   6.779  -3.949  0.00  0.00    +0.025 A 
ATOM     10  C   UNL     1       4.208   7.063  -2.603  0.00  0.00    +0.049 A 
ATOM     11  N   UNL     1       4.415   6.074  -1.631  0.00  0.00    -0.331 N 
ATOM     12  H   UNL     1       5.111   5.237  -1.792  0.00  0.00    +0.147 HD
ENDROOT
BRANCH   1  13
ATOM     13  C   UNL     1       2.238   5.689  -0.574  0.00  0.00    +0.127 C 
BRANCH  13  15
ATOM     14  N   UNL     1       1.095   3.566  -1.125  0.00  0.00    -0.285 N 
ATOM     15  C   UNL     1       2.253   4.218  -0.901  0.00  0.00    +0.219 C 
ATOM     16  O   UNL     1       3.307   3.621  -0.962  0.00  0.00    -0.275 OA
ATOM     17  H   UNL     1       0.146   4.123  -1.153  0.00  0.00    +0.155 HD
BRANCH  14  22
ATOM     18  C   UNL     1       1.109  -2.051  -1.923  0.00  0.00    +0.044 C 
ATOM     19  C   UNL     1       1.105  -0.559  -1.712  0.00  0.00    -0.050 A 
ATOM     20  C   UNL     1       2.030   0.020  -0.862  0.00  0.00    +0.005 A 
ATOM     21  C   UNL     1       2.029   1.387  -0.665  0.00  0.00    +0.023 A 
ATOM     22  C   UNL     1       1.099   2.181  -1.323  0.00  0.00    +0.033 A 
ATOM     23  C   UNL     1       0.172   1.597  -2.177  0.00  0.00    +0.023 A 
ATOM     24  C   UNL     1       0.178   0.229  -2.368  0.00  0.00    +0.005 A 
ENDBRANCH  14  22
ENDBRANCH  13  15
ENDBRANCH   1  13
BRANCH   4  25
ATOM     25  C   UNL     1       3.499  10.002  -0.386  0.00  0.00    +0.209 C 
BRANCH  25  26
ATOM     26  C   UNL     1       2.034  10.355  -0.391  0.00  0.00    +0.235 C 
ATOM     27  O   UNL     1       1.213   9.531  -0.733  0.00  0.00    -0.274 OA
ATOM     28  N   UNL     1       1.637  11.587  -0.015  0.00  0.00    -0.284 N 
ATOM     29  H   UNL     1       2.385  12.361   0.214  0.00  0.00    +0.155 HD
BRANCH  28  30
ATOM     30  C   UNL     1       0.272  11.883   0.084  0.00  0.00    +0.034 A 
ATOM     31  C   UNL     1      -0.185  13.161  -0.206  0.00  0.00    +0.025 A 
ATOM     32  C   UNL     1      -1.533  13.449  -0.113  0.00  0.00    +0.022 A 
ATOM     33  C   UNL     1      -2.425  12.467   0.280  0.00  0.00    +0.041 A 
ATOM     34  C   UNL     1      -1.971  11.194   0.575  0.00  0.00    +0.022 A 
ATOM     35  C   UNL     1      -0.625  10.899   0.478  0.00  0.00    +0.025 A 
ATOM     36 CL   UNL     1      -4.118  12.834   0.403  0.00  0.00    -0.084 Cl
ENDBRANCH  28  30
ENDBRANCH  25  26
ENDBRANCH   4  25
TORSDOF 6
