REMARK  Name = ZINC14077515
REMARK  2 active torsions:
REMARK  status: ('A' for Active; 'I' for Inactive)
REMARK    1  A    between atoms: N_20  and  C_21
REMARK    2  A    between atoms: C_21  and  C_22
REMARK                            x       y       z     vdW  Elec       q    Type
REMARK                         _______ _______ _______ _____ _____    ______ ____
ROOT
ATOM      1  C   UNL     1      -0.597   3.869  -3.793  0.00  0.00    +0.001 A 
ATOM      2  C   UNL     1      -1.646   4.766  -3.840  0.00  0.00    +0.002 A 
ATOM      3  C   UNL     1      -2.388   5.088  -2.715  0.00  0.00    +0.024 A 
ATOM      4  C   UNL     1      -2.033   4.466  -1.516  0.00  0.00    +0.041 A 
ATOM      5  C   UNL     1      -0.967   3.560  -1.482  0.00  0.00    +0.024 A 
ATOM      6  C   UNL     1      -0.234   3.243  -2.605  0.00  0.00    +0.010 A 
ATOM      7  C   UNL     1      -0.860   3.090  -0.064  0.00  0.00    +0.208 C 
ATOM      8  C   UNL     1      -1.969   3.828   0.657  0.00  0.00    +0.264 C 
ATOM      9  O   UNL     1      -2.245   3.741   1.835  0.00  0.00    -0.271 OA
ATOM     10  N   UNL     1      -2.592   4.599  -0.258  0.00  0.00    -0.282 N 
ATOM     11  N   UNL     1       0.436   3.462   0.507  0.00  0.00    -0.312 N 
ATOM     12  C   UNL     1       1.543   2.669   0.222  0.00  0.00    +0.042 A 
ATOM     13  C   UNL     1       2.827   3.189   0.212  0.00  0.00    +0.025 A 
ATOM     14  C   UNL     1       3.898   2.361  -0.064  0.00  0.00    +0.022 A 
ATOM     15  C   UNL     1       3.698   1.015  -0.330  0.00  0.00    +0.042 A 
ATOM     16  C   UNL     1       2.424   0.482  -0.327  0.00  0.00    +0.035 A 
ATOM     17  C   UNL     1       1.335   1.307  -0.054  0.00  0.00    +0.059 A 
ATOM     18  C   UNL     1      -0.043   0.785  -0.050  0.00  0.00    +0.251 C 
ATOM     19  O   UNL     1      -0.247  -0.412  -0.115  0.00  0.00    -0.270 OA
ATOM     20  N   UNL     1      -1.077   1.649   0.021  0.00  0.00    -0.260 N 
ATOM     21 CL   UNL     1       5.059  -0.008  -0.669  0.00  0.00    -0.084 Cl
ATOM     22  H   UNL     1      -3.345   5.177  -0.058  0.00  0.00    +0.155 HD
ATOM     23  H   UNL     1       0.520   4.245   1.073  0.00  0.00    +0.149 HD
ENDROOT
BRANCH  20  24
ATOM     24  C   UNL     1      -2.438   1.133   0.192  0.00  0.00    +0.146 C 
BRANCH  24  25
ATOM     25  C   UNL     1      -3.032   0.826  -1.159  0.00  0.00    -0.030 A 
ATOM     26  C   UNL     1      -3.835   1.758  -1.789  0.00  0.00    +0.006 A 
ATOM     27  C   UNL     1      -4.375   1.478  -3.030  0.00  0.00    +0.020 A 
ATOM     28  C   UNL     1      -4.121   0.261  -3.637  0.00  0.00    +0.041 A 
ATOM     29  C   UNL     1      -3.322  -0.674  -3.003  0.00  0.00    +0.020 A 
ATOM     30  C   UNL     1      -2.778  -0.391  -1.764  0.00  0.00    +0.006 A 
ATOM     31 CL   UNL     1      -4.804  -0.094  -5.193  0.00  0.00    -0.084 Cl
ENDBRANCH  24  25
ENDBRANCH  20  24
TORSDOF 2
