REMARK  Name = ZINC36581408
REMARK  15 active torsions:
REMARK  status: ('A' for Active; 'I' for Inactive)
REMARK    1  A    between atoms: C_1  and  C_2
REMARK    2  A    between atoms: C_4  and  C_15
REMARK    3  A    between atoms: C_12  and  C_13
REMARK    4  A    between atoms: C_12  and  C_14
REMARK    5  A    between atoms: N_17  and  C_18
REMARK    6  A    between atoms: N_17  and  C_38
REMARK    7  A    between atoms: C_18  and  C_20
REMARK    8  A    between atoms: C_18  and  C_29
REMARK    9  A    between atoms: C_21  and  O_28
REMARK   10  A    between atoms: C_23  and  O_27
REMARK   11  A    between atoms: C_25  and  O_26
REMARK   12  A    between atoms: N_31  and  C_32
REMARK   13  A    between atoms: C_38  and  C_39
REMARK   14  A    between atoms: C_38  and  C_40
REMARK   15  A    between atoms: C_38  and  C_41
REMARK                            x       y       z     vdW  Elec       q    Type
REMARK                         _______ _______ _______ _____ _____    ______ ____
ROOT
ATOM      1  C   UNL     1      -1.407  -1.447  -4.010  0.00  0.00    +0.200 C 
ENDROOT
BRANCH   1   2
ATOM      2  C   UNL     1      -2.814  -1.518  -3.474  0.00  0.00    +0.065 A 
ATOM      3  C   UNL     1      -3.034  -1.835  -2.142  0.00  0.00    +0.129 A 
ATOM      4  C   UNL     1      -4.329  -1.900  -1.650  0.00  0.00    +0.091 A 
ATOM      5  C   UNL     1      -5.404  -1.647  -2.489  0.00  0.00    +0.124 A 
ATOM      6  C   UNL     1      -5.184  -1.329  -3.821  0.00  0.00    +0.091 A 
ATOM      7  C   UNL     1      -3.889  -1.260  -4.312  0.00  0.00    +0.129 A 
BRANCH   7   8
ATOM      8  O   UNL     1      -3.673  -0.943  -5.616  0.00  0.00    -0.506 OA
ATOM      9  H   UNL     1      -3.649  -1.708  -6.207  0.00  0.00    +0.292 HD
ENDBRANCH   7   8
BRANCH   5  10
ATOM     10  O   UNL     1      -6.672  -1.712  -2.006  0.00  0.00    -0.507 OA
ATOM     11  H   UNL     1      -7.003  -0.873  -1.655  0.00  0.00    +0.292 HD
ENDBRANCH   5  10
BRANCH   3  12
ATOM     12  O   UNL     1      -1.981  -2.083  -1.320  0.00  0.00    -0.506 OA
ATOM     13  H   UNL     1      -1.449  -1.301  -1.116  0.00  0.00    +0.292 HD
ENDBRANCH   3  12
ENDBRANCH   1   2
BRANCH   1  14
ATOM     14  C   UNL     1      -0.510  -2.330  -3.181  0.00  0.00    +0.239 C 
ATOM     15  O   UNL     1       0.341  -1.835  -2.473  0.00  0.00    -0.273 OA
ATOM     16  N   UNL     1      -0.653  -3.669  -3.228  0.00  0.00    -0.311 N 
ATOM     17  H   UNL     1      -1.334  -4.065  -3.794  0.00  0.00    +0.149 HD
BRANCH  16  18
ATOM     18  C   UNL     1       0.220  -4.527  -2.422  0.00  0.00    +0.073 C 
ATOM     19  C   UNL     1       1.522  -4.787  -3.182  0.00  0.00    +0.022 C 
ATOM     20  C   UNL     1       2.433  -5.683  -2.341  0.00  0.00    +0.002 C 
ATOM     21  C   UNL     1       1.728  -7.013  -2.067  0.00  0.00    +0.000 C 
ATOM     22  C   UNL     1       0.426  -6.754  -1.307  0.00  0.00    +0.002 C 
ATOM     23  C   UNL     1      -0.485  -5.857  -2.148  0.00  0.00    +0.022 C 
ENDBRANCH  16  18
ENDBRANCH   1  14
BRANCH   1  26
ATOM     24  C   UNL     1      -1.353   0.749  -2.956  0.00  0.00    +0.220 C 
ATOM     25  O   UNL     1      -1.766   0.278  -1.918  0.00  0.00    -0.275 OA
ATOM     26  N   UNL     1      -0.928  -0.064  -3.943  0.00  0.00    -0.280 N 
BRANCH  24  29
ATOM     27  C   UNL     1      -3.302   3.802  -3.191  0.00  0.00    +0.008 C 
ATOM     28  C   UNL     1      -2.406   2.923  -2.326  0.00  0.00    +0.001 C 
ATOM     29  C   UNL     1      -1.313   2.245  -3.143  0.00  0.00    +0.079 C 
ATOM     30  C   UNL     1       0.080   2.789  -2.847  0.00  0.00    +0.017 C 
ATOM     31  C   UNL     1       0.175   3.398  -1.447  0.00  0.00    -0.004 C 
ATOM     32  C   UNL     1      -0.779   2.754  -0.428  0.00  0.00    +0.008 C 
ATOM     33  C   UNL     1      -1.858   3.644  -1.100  0.00  0.00    -0.001 C 
ATOM     34  C   UNL     1      -0.724   4.644  -1.313  0.00  0.00    -0.029 C 
ATOM     35  C   UNL     1      -0.400   5.483  -0.063  0.00  0.00    +0.011 C 
ATOM     36  C   UNL     1      -0.782   5.523  -2.559  0.00  0.00    +0.011 C 
ENDBRANCH  24  29
BRANCH  26  37
ATOM     37  C   UNL     1       0.012   0.434  -4.950  0.00  0.00    +0.030 C 
ATOM     38  C   UNL     1       1.421   0.477  -4.355  0.00  0.00    +0.031 C 
ATOM     39  C   UNL     1      -0.001  -0.495  -6.165  0.00  0.00    +0.031 C 
ATOM     40  C   UNL     1      -0.402   1.843  -5.381  0.00  0.00    +0.031 C 
ENDBRANCH  26  37
ENDBRANCH   1  26
TORSDOF 9
