REMARK  Name = ZINC39266353
REMARK  8 active torsions:
REMARK  status: ('A' for Active; 'I' for Inactive)
REMARK    1  A    between atoms: C_4  and  C_7
REMARK    2  A    between atoms: C_7  and  C_8
REMARK    3  A    between atoms: C_7  and  N_14
REMARK    4  A    between atoms: C_15  and  C_17
REMARK    5  A    between atoms: N_22  and  C_23
REMARK    6  A    between atoms: C_23  and  C_24
REMARK    7  A    between atoms: N_26  and  C_27
REMARK    8  A    between atoms: C_31  and  C_33
REMARK                            x       y       z     vdW  Elec       q    Type
REMARK                         _______ _______ _______ _____ _____    ______ ____
ROOT
ATOM      1  C   UNL     1       3.718  -2.916  -3.174  0.00  0.00    +0.020 C 
ATOM      2  C   UNL     1       4.807  -3.963  -2.830  0.00  0.00    -0.008 C 
ATOM      3  C   UNL     1       4.984  -4.729  -4.162  0.00  0.00    -0.020 C 
ATOM      4  C   UNL     1       4.466  -3.770  -5.249  0.00  0.00    -0.077 C 
ATOM      5  N   UNL     1       4.048  -2.523  -4.568  0.00  0.00    +0.393 N 
ATOM      6  H   UNL     1       4.805  -1.856  -4.572  0.00  0.00    -0.080 HD
ENDROOT
BRANCH   1   8
ATOM      7  N   UNL     1       3.594  -1.884  -0.930  0.00  0.00    -0.306 N 
ATOM      8  C   UNL     1       3.811  -1.729  -2.251  0.00  0.00    +0.200 C 
ATOM      9  O   UNL     1       4.081  -0.634  -2.696  0.00  0.00    -0.278 OA
ATOM     10  H   UNL     1       3.378  -2.760  -0.573  0.00  0.00    +0.150 HD
BRANCH   7  11
ATOM     11  C   UNL     1       3.684  -0.730  -0.032  0.00  0.00    +0.133 C 
BRANCH  11  15
ATOM     12  C   UNL     1      -0.055   1.334   0.011  0.00  0.00    +0.000 A 
ATOM     13  C   UNL     1       1.129   2.048   0.010  0.00  0.00    +0.000 A 
ATOM     14  C   UNL     1       2.339   1.380  -0.003  0.00  0.00    +0.006 A 
ATOM     15  C   UNL     1       2.365  -0.002  -0.016  0.00  0.00    -0.023 A 
ATOM     16  C   UNL     1       1.181  -0.716  -0.015  0.00  0.00    +0.006 A 
ATOM     17  C   UNL     1      -0.029  -0.048  -0.003  0.00  0.00    +0.000 A 
ENDBRANCH  11  15
BRANCH  11  18
ATOM     18  C   UNL     1       4.015  -1.202   1.361  0.00  0.00    -0.023 A 
ATOM     19  C   UNL     1       3.431  -2.352   1.858  0.00  0.00    +0.006 A 
ATOM     20  C   UNL     1       3.734  -2.785   3.135  0.00  0.00    +0.000 A 
ATOM     21  C   UNL     1       4.621  -2.067   3.916  0.00  0.00    +0.000 A 
ATOM     22  C   UNL     1       5.205  -0.917   3.418  0.00  0.00    +0.000 A 
ATOM     23  C   UNL     1       4.906  -0.487   2.139  0.00  0.00    +0.006 A 
ENDBRANCH  11  18
ENDBRANCH   7  11
ENDBRANCH   1   8
BRANCH   5  24
ATOM     24  C   UNL     1       2.865  -1.954  -5.227  0.00  0.00    +0.020 C 
BRANCH  24  25
ATOM     25  C   UNL     1       3.246  -1.449  -6.595  0.00  0.00    +0.201 C 
ATOM     26  O   UNL     1       4.390  -1.553  -6.983  0.00  0.00    -0.278 OA
ATOM     27  N   UNL     1       2.315  -0.881  -7.387  0.00  0.00    -0.287 N 
ATOM     28  H   UNL     1       1.387  -0.858  -7.105  0.00  0.00    +0.155 HD
BRANCH  27  29
ATOM     29  C   UNL     1       2.687  -0.325  -8.617  0.00  0.00    +0.035 A 
ATOM     30  C   UNL     1       2.048   0.817  -9.085  0.00  0.00    +0.023 A 
ATOM     31  C   UNL     1       2.411   1.370 -10.298  0.00  0.00    +0.003 A 
ATOM     32  C   UNL     1       3.412   0.792 -11.053  0.00  0.00    +0.019 A 
ATOM     33  C   UNL     1       4.060  -0.355 -10.592  0.00  0.00    +0.054 A 
ATOM     34  C   UNL     1       3.696  -0.910  -9.364  0.00  0.00    +0.042 A 
BRANCH  33  35
ATOM     35  C   UNL     1       5.098  -0.957 -11.373  0.00  0.00    +0.099 C 
ATOM     36  N   UNL     1       5.922  -1.434 -11.993  0.00  0.00    -0.191 NA
ENDBRANCH  33  35
ENDBRANCH  27  29
ENDBRANCH  24  25
ENDBRANCH   5  24
TORSDOF 8
