REMARK  Name = ZINC08860077
REMARK  10 active torsions:
REMARK  status: ('A' for Active; 'I' for Inactive)
REMARK    1  A    between atoms: C_1  and  C_2
REMARK    2  A    between atoms: C_2  and  O_3
REMARK    3  A    between atoms: O_3  and  C_4
REMARK    4  A    between atoms: C_4  and  C_6
REMARK    5  A    between atoms: C_10  and  N_11
REMARK    6  A    between atoms: C_12  and  C_14
REMARK    7  A    between atoms: C_25  and  C_31
REMARK    8  A    between atoms: C_25  and  C_32
REMARK    9  A    between atoms: C_27  and  C_29
REMARK   10  A    between atoms: C_27  and  C_30
REMARK                            x       y       z     vdW  Elec       q    Type
REMARK                         _______ _______ _______ _____ _____    ______ ____
ROOT
ATOM      1  C   UNL     1       1.449  -2.344  -2.516  0.00  0.00    +0.091 A 
ATOM      2  C   UNL     1       2.868  -2.619  -2.533  0.00  0.00    -0.024 A 
ATOM      3  C   UNL     1       3.334  -3.112  -3.704  0.00  0.00    -0.016 A 
ATOM      4  S   UNL     1       1.905  -3.210  -4.739  0.00  0.00    -0.079 S 
ATOM      5  C   UNL     1       0.741  -2.622  -3.680  0.00  0.00    +0.086 A 
ATOM      6  C   UNL     1       4.750  -3.471  -4.011  0.00  0.00    -0.041 C 
ATOM      7  N   UNL     1       5.600  -3.454  -2.822  0.00  0.00    +0.389 N 
ATOM      8  C   UNL     1       4.923  -3.514  -1.533  0.00  0.00    -0.069 C 
ATOM      9  C   UNL     1       3.854  -2.423  -1.392  0.00  0.00    +0.024 C 
ATOM     10  C   UNL     1       5.969  -3.297  -0.424  0.00  0.00    -0.010 C 
ATOM     11  C   UNL     1       4.282  -4.886  -1.312  0.00  0.00    -0.010 C 
ATOM     12  C   UNL     1       5.299  -2.447  -5.024  0.00  0.00    -0.005 C 
ATOM     13  C   UNL     1       4.793  -4.856  -4.672  0.00  0.00    -0.005 C 
ATOM     14  H   UNL     1       6.254  -4.237  -2.880  0.00  0.00    -0.084 HD
ATOM     15  H   UNL     1       6.177  -2.612  -2.846  0.00  0.00    -0.084 HD
ENDROOT
BRANCH   5  16
ATOM     16  N   UNL     1      -0.615  -2.452  -3.911  0.00  0.00    -0.276 N 
ATOM     17  C   UNL     1      -1.140  -2.776  -5.109  0.00  0.00    +0.262 C 
ATOM     18  O   UNL     1      -0.426  -3.215  -5.986  0.00  0.00    -0.271 OA
ATOM     19  H   UNL     1      -1.186  -2.100  -3.211  0.00  0.00    +0.155 HD
BRANCH  17  20
ATOM     20  C   UNL     1      -2.614  -2.591  -5.361  0.00  0.00    +0.296 C 
ATOM     21  C   UNL     1      -3.416  -3.542  -4.462  0.00  0.00    +0.283 C 
ATOM     22  O   UNL     1      -4.808  -3.351  -4.736  0.00  0.00    -0.484 OA
ATOM     23  C   UNL     1      -5.172  -3.303  -6.046  0.00  0.00    +0.162 A 
ATOM     24  C   UNL     1      -6.504  -3.484  -6.389  0.00  0.00    +0.049 A 
ATOM     25  C   UNL     1      -6.890  -3.435  -7.715  0.00  0.00    +0.004 A 
ATOM     26  C   UNL     1      -5.951  -3.205  -8.703  0.00  0.00    +0.004 A 
ATOM     27  C   UNL     1      -4.622  -3.025  -8.368  0.00  0.00    +0.049 A 
ATOM     28  C   UNL     1      -4.228  -3.074  -7.039  0.00  0.00    +0.163 A 
ATOM     29  O   UNL     1      -2.914  -2.903  -6.726  0.00  0.00    -0.473 OA
ENDBRANCH  17  20
ENDBRANCH   5  16
BRANCH   1  30
ATOM     30  C   UNL     1       0.776  -1.800  -1.335  0.00  0.00    +0.342 C 
ATOM     31  O   UNL     1       0.312  -2.552  -0.499  0.00  0.00    -0.245 OA
BRANCH  30  32
ATOM     32  O   UNL     1       0.671  -0.465  -1.174  0.00  0.00    -0.461 OA
BRANCH  32  34
ATOM     33  C   UNL     1      -0.019   1.526   0.010  0.00  0.00    +0.048 C 
ATOM     34  C   UNL     1       0.002  -0.004   0.002  0.00  0.00    +0.229 C 
ENDBRANCH  32  34
ENDBRANCH  30  32
ENDBRANCH   1  30
TORSDOF 5
