REMARK  Name = ZINC03351672
REMARK  13 active torsions:
REMARK  status: ('A' for Active; 'I' for Inactive)
REMARK    1  A    between atoms: C_1  and  C_2
REMARK    2  A    between atoms: C_2  and  O_3
REMARK    3  A    between atoms: O_3  and  C_4
REMARK    4  A    between atoms: C_4  and  C_6
REMARK    5  A    between atoms: C_10  and  N_11
REMARK    6  A    between atoms: C_12  and  C_14
REMARK    7  A    between atoms: C_14  and  C_16
REMARK    8  A    between atoms: C_14  and  N_65
REMARK    9  A    between atoms: C_19  and  C_22
REMARK   10  A    between atoms: C_22  and  O_24
REMARK   11  A    between atoms: O_24  and  C_25
REMARK   12  A    between atoms: C_25  and  C_26
REMARK   13  A    between atoms: C_28  and  C_32
REMARK                            x       y       z     vdW  Elec       q    Type
REMARK                         _______ _______ _______ _____ _____    ______ ____
ROOT
ATOM      1  N   UNL     1      -1.700   1.089  -4.849  0.00  0.00    -0.281 N 
ATOM      2  C   UNL     1      -2.109   1.956  -5.796  0.00  0.00    +0.204 C 
ATOM      3  O   UNL     1      -2.412   3.090  -5.489  0.00  0.00    -0.277 OA
ATOM      4  H   UNL     1      -1.458   0.182  -5.094  0.00  0.00    +0.155 HD
ENDROOT
BRANCH   1   9
ATOM      5  C   UNL     1      -1.234   0.751  -2.418  0.00  0.00    +0.091 A 
ATOM      6  C   UNL     1      -1.246   1.417  -1.126  0.00  0.00    -0.021 A 
ATOM      7  C   UNL     1      -1.647   2.707  -1.148  0.00  0.00    -0.004 A 
ATOM      8  S   UNL     1      -2.004   3.042  -2.849  0.00  0.00    -0.077 S 
ATOM      9  C   UNL     1      -1.627   1.492  -3.525  0.00  0.00    +0.086 A 
ATOM     10  C   UNL     1      -1.758   3.637   0.021  0.00  0.00    +0.046 C 
ATOM     11  C   UNL     1      -0.992   3.025   1.202  0.00  0.00    -0.009 C 
ATOM     12  C   UNL     1      -1.399   1.556   1.349  0.00  0.00    +0.008 C 
ATOM     13  C   UNL     1      -0.843   0.742   0.179  0.00  0.00    +0.037 C 
ATOM     14  C   UNL     1      -1.336   3.783   2.485  0.00  0.00    +0.008 C 
BRANCH   5  15
ATOM     15  C   UNL     1      -0.822  -0.648  -2.547  0.00  0.00    +0.342 C 
ATOM     16  O   UNL     1      -1.647  -1.536  -2.453  0.00  0.00    -0.245 OA
BRANCH  15  17
ATOM     17  O   UNL     1       0.473  -0.952  -2.772  0.00  0.00    -0.461 OA
BRANCH  17  19
ATOM     18  C   UNL     1       2.311  -2.506  -3.140  0.00  0.00    +0.048 C 
ATOM     19  C   UNL     1       0.809  -2.360  -2.889  0.00  0.00    +0.229 C 
ENDBRANCH  17  19
ENDBRANCH  15  17
ENDBRANCH   5  15
ENDBRANCH   1   9
BRANCH   2  20
ATOM     20  C   UNL     1      -2.188   1.518  -7.236  0.00  0.00    +0.016 C 
ATOM     21  C   UNL     1      -0.830   1.726  -7.908  0.00  0.00    -0.004 C 
BRANCH  20  27
ATOM     22  C   UNL     1      -3.196   2.034  -9.376  0.00  0.00    -0.077 C 
ATOM     23  C   UNL     1      -4.164   2.982 -10.088  0.00  0.00    -0.004 C 
ATOM     24  C   UNL     1      -5.573   2.784  -9.521  0.00  0.00    +0.094 C 
ATOM     25  C   UNL     1      -5.547   3.034  -8.011  0.00  0.00    -0.004 C 
ATOM     26  C   UNL     1      -4.539   2.085  -7.359  0.00  0.00    -0.077 C 
ATOM     27  N   UNL     1      -3.199   2.343  -7.930  0.00  0.00    +0.387 N 
ATOM     28  H   UNL     1      -2.967   3.334  -7.800  0.00  0.00    -0.081 HD
BRANCH  24  29
ATOM     29  C   UNL     1      -6.520   3.756 -10.176  0.00  0.00    +0.310 C 
ATOM     30  O   UNL     1      -7.114   4.567  -9.505  0.00  0.00    -0.251 OA
BRANCH  29  31
ATOM     31  O   UNL     1      -6.704   3.722 -11.506  0.00  0.00    -0.465 OA
BRANCH  31  32
ATOM     32  C   UNL     1      -7.630   4.688 -12.068  0.00  0.00    +0.229 C 
ATOM     33  C   UNL     1      -7.708   4.497 -13.584  0.00  0.00    +0.048 C 
ENDBRANCH  31  32
ENDBRANCH  29  31
ENDBRANCH  24  29
ENDBRANCH  20  27
ENDBRANCH   2  20
TORSDOF 9
