REMARK  Name = ZINC04034838
REMARK  10 active torsions:
REMARK  status: ('A' for Active; 'I' for Inactive)
REMARK    1  A    between atoms: N_9  and  C_12
REMARK    2  A    between atoms: C_12  and  C_13
REMARK    3  A    between atoms: N_15  and  C_16
REMARK    4  A    between atoms: C_16  and  C_17
REMARK    5  A    between atoms: C_17  and  C_18
REMARK    6  A    between atoms: N_20  and  C_21
REMARK    7  A    between atoms: C_21  and  C_22
REMARK    8  A    between atoms: C_22  and  C_23
REMARK    9  A    between atoms: C_23  and  N_24
REMARK   10  A    between atoms: N_27  and  C_30
REMARK                            x       y       z     vdW  Elec       q    Type
REMARK                         _______ _______ _______ _____ _____    ______ ____
ROOT
ATOM      1  C   UNL     1       8.693  -4.863  -4.575  0.00  0.00    +0.215 C 
ATOM      2  O   UNL     1       7.999  -4.468  -5.488  0.00  0.00    -0.276 OA
ATOM      3  N   UNL     1       9.842  -5.517  -4.835  0.00  0.00    -0.315 N 
ATOM      4  H   UNL     1      10.397  -5.833  -4.104  0.00  0.00    +0.149 HD
ENDROOT
BRANCH   1   5
ATOM      5  C   UNL     1       8.269  -4.622  -3.149  0.00  0.00    +0.114 C 
BRANCH   5   6
ATOM      6  C   UNL     1       6.939  -3.866  -3.132  0.00  0.00    +0.113 C 
BRANCH   6   9
ATOM      7  C   UNL     1       5.378  -2.978  -1.486  0.00  0.00    +0.233 C 
ATOM      8  O   UNL     1       4.685  -2.583  -2.399  0.00  0.00    -0.274 OA
ATOM      9  N   UNL     1       6.528  -3.632  -1.746  0.00  0.00    -0.313 N 
ATOM     10  H   UNL     1       7.082  -3.947  -1.016  0.00  0.00    +0.149 HD
BRANCH   7  11
ATOM     11  C   UNL     1       4.955  -2.737  -0.060  0.00  0.00    +0.220 C 
BRANCH  11  20
ATOM     12  C   UNL     1      -0.017   1.363   0.009  0.00  0.00    +0.001 A 
ATOM     13  C   UNL     1       1.166   2.092   0.002  0.00  0.00    +0.001 A 
ATOM     14  C   UNL     1       2.379   1.462  -0.013  0.00  0.00    +0.014 A 
ATOM     15  C   UNL     1       2.429   0.068  -0.021  0.00  0.00    +0.047 A 
ATOM     16  C   UNL     1       1.226  -0.675  -0.013  0.00  0.00    -0.011 A 
ATOM     17  C   UNL     1       0.002  -0.004   0.002  0.00  0.00    +0.009 A 
ATOM     18  C   UNL     1       1.311  -2.136  -0.022  0.00  0.00    +0.026 A 
ATOM     19  C   UNL     1       2.517  -2.726  -0.037  0.00  0.00    +0.090 A 
ATOM     20  N   UNL     1       3.681  -2.013  -0.044  0.00  0.00    -0.306 N 
ATOM     21  C   UNL     1       3.700  -0.665  -0.037  0.00  0.00    +0.259 A 
ATOM     22  O   UNL     1       4.758  -0.063  -0.044  0.00  0.00    -0.267 OA
ENDBRANCH  11  20
ENDBRANCH   7  11
ENDBRANCH   6   9
ENDBRANCH   5   6
ENDBRANCH   1   5
BRANCH   3  23
ATOM     23  C   UNL     1      10.254  -5.751  -6.221  0.00  0.00    +0.102 C 
BRANCH  23  24
ATOM     24  C   UNL     1      11.584  -6.508  -6.237  0.00  0.00    +0.000 C 
BRANCH  24  25
ATOM     25  C   UNL     1      12.014  -6.752  -7.685  0.00  0.00    -0.077 C 
BRANCH  25  26
ATOM     26  N   UNL     1      13.291  -7.478  -7.701  0.00  0.00    +0.382 N 
ATOM     27  C   UNL     1      14.338  -6.636  -7.111  0.00  0.00    -0.060 C 
ATOM     28  C   UNL     1      15.644  -7.433  -7.021  0.00  0.00    +0.086 C 
ATOM     29  N   UNL     1      15.965  -7.953  -8.359  0.00  0.00    -0.331 N 
ATOM     30  C   UNL     1      14.913  -8.673  -9.094  0.00  0.00    +0.086 C 
ATOM     31  C   UNL     1      13.642  -7.817  -9.086  0.00  0.00    -0.060 C 
ATOM     32  H   UNL     1      13.201  -8.326  -7.161  0.00  0.00    -0.082 HD
BRANCH  29  33
ATOM     33  C   UNL     1      17.234  -7.768  -8.917  0.00  0.00    +0.065 A 
ATOM     34  C   UNL     1      18.230  -8.713  -8.710  0.00  0.00    +0.026 A 
ATOM     35  C   UNL     1      19.482  -8.528  -9.262  0.00  0.00    +0.002 A 
ATOM     36  C   UNL     1      19.746  -7.403 -10.022  0.00  0.00    +0.003 A 
ATOM     37  C   UNL     1      18.758  -6.459 -10.231  0.00  0.00    +0.040 A 
ATOM     38  C   UNL     1      17.500  -6.640  -9.686  0.00  0.00    +0.144 A 
ATOM     39  F   UNL     1      16.533  -5.721  -9.895  0.00  0.00    -0.204 F 
ENDBRANCH  29  33
ENDBRANCH  25  26
ENDBRANCH  24  25
ENDBRANCH  23  24
ENDBRANCH   3  23
TORSDOF 10
