REMARK  Name = ZINC15276690
REMARK  8 active torsions:
REMARK  status: ('A' for Active; 'I' for Inactive)
REMARK    1  A    between atoms: C_1  and  C_2
REMARK    2  A    between atoms: C_2  and  C_3
REMARK    3  A    between atoms: C_2  and  C_4
REMARK    4  A    between atoms: C_2  and  C_5
REMARK    5  A    between atoms: C_14  and  N_30
REMARK    6  A    between atoms: N_30  and  C_31
REMARK    7  A    between atoms: C_31  and  C_32
REMARK    8  A    between atoms: C_32  and  C_33
REMARK                            x       y       z     vdW  Elec       q    Type
REMARK                         _______ _______ _______ _____ _____    ______ ____
ROOT
ATOM      1  C   UNL     1      -2.528   5.421   0.000  0.00  0.00    -0.038 A 
ATOM      2  C   UNL     1      -1.360   6.162   0.011  0.00  0.00    +0.006 A 
ATOM      3  C   UNL     1      -0.134   5.523   0.014  0.00  0.00    +0.029 A 
ATOM      4  C   UNL     1      -0.075   4.138   0.006  0.00  0.00    +0.083 A 
ATOM      5  C   UNL     1      -1.252   3.390  -0.005  0.00  0.00    +0.152 A 
ATOM      6  C   UNL     1      -2.477   4.039  -0.008  0.00  0.00    +0.052 A 
ATOM      7  O   UNL     1      -1.203   2.034  -0.017  0.00  0.00    -0.452 OA
ATOM      8  C   UNL     1      -0.017   1.376  -0.009  0.00  0.00    +0.154 A 
ATOM      9  C   UNL     1       0.002  -0.004  -0.016  0.00  0.00    +0.072 A 
ATOM     10  C   UNL     1       1.212  -0.697  -0.014  0.00  0.00    +0.042 A 
ATOM     11  C   UNL     1       2.424   0.006  -0.004  0.00  0.00    +0.056 A 
ATOM     12  C   UNL     1       2.411   1.421   0.004  0.00  0.00    +0.062 A 
ATOM     13  C   UNL     1       1.191   2.099   0.002  0.00  0.00    +0.094 A 
ATOM     14  N   UNL     1       1.162   3.485   0.009  0.00  0.00    -0.349 N 
ATOM     15  H   UNL     1       1.988   3.994   0.017  0.00  0.00    +0.166 HD
ATOM     16  C   UNL     1       3.676   2.168   0.016  0.00  0.00    +0.197 A 
ATOM     17  O   UNL     1       3.666   3.385   0.022  0.00  0.00    -0.287 OA
ATOM     18  C   UNL     1       4.961   1.439   0.018  0.00  0.00    +0.033 A 
ATOM     19  C   UNL     1       6.166   2.138   0.028  0.00  0.00    +0.012 A 
ATOM     20  C   UNL     1       7.363   1.447   0.029  0.00  0.00    +0.001 A 
ATOM     21  C   UNL     1       7.374   0.063   0.021  0.00  0.00    +0.001 A 
ATOM     22  C   UNL     1       6.188  -0.647   0.011  0.00  0.00    +0.012 A 
ATOM     23  C   UNL     1       4.972   0.033   0.010  0.00  0.00    +0.033 A 
ATOM     24  C   UNL     1       3.699  -0.717  -0.002  0.00  0.00    +0.196 A 
ATOM     25  O   UNL     1       3.709  -1.934  -0.009  0.00  0.00    -0.287 OA
ENDROOT
BRANCH   1  27
ATOM     26  C   UNL     1      -3.641   7.636   0.007  0.00  0.00    +0.015 C 
ATOM     27  C   UNL     1      -3.862   6.122  -0.003  0.00  0.00    -0.013 C 
ATOM     28  C   UNL     1      -4.642   5.729  -1.259  0.00  0.00    +0.015 C 
ATOM     29  C   UNL     1      -4.655   5.714   1.240  0.00  0.00    +0.015 C 
ENDBRANCH   1  27
BRANCH  10  30
ATOM     30  N   UNL     1       1.216  -2.083  -0.021  0.00  0.00    -0.343 N 
ATOM     31  H   UNL     1       2.053  -2.565  -0.106  0.00  0.00    +0.146 HD
BRANCH  30  32
ATOM     32  C   UNL     1      -0.045  -2.819   0.098  0.00  0.00    +0.102 C 
BRANCH  32  33
ATOM     33  C   UNL     1       0.237  -4.323   0.063  0.00  0.00    +0.034 C 
BRANCH  33  34
ATOM     34  C   UNL     1      -1.079  -5.092   0.188  0.00  0.00    +0.110 C 
ATOM     35 CL   UNL     1      -0.746  -6.864   0.146  0.00  0.00    -0.125 Cl
ENDBRANCH  33  34
ENDBRANCH  32  33
ENDBRANCH  30  32
ENDBRANCH  10  30
TORSDOF 5
