REMARK  Name = ZINC21322923
REMARK  7 active torsions:
REMARK  status: ('A' for Active; 'I' for Inactive)
REMARK    1  A    between atoms: C_1  and  C_2
REMARK    2  A    between atoms: C_2  and  C_16
REMARK    3  A    between atoms: N_3  and  N_4
REMARK    4  A    between atoms: C_8  and  S_11
REMARK    5  A    between atoms: N_9  and  N_10
REMARK    6  A    between atoms: S_11  and  C_12
REMARK    7  A    between atoms: C_12  and  C_13
REMARK                            x       y       z     vdW  Elec       q    Type
REMARK                         _______ _______ _______ _____ _____    ______ ____
ROOT
ATOM      1  N   UNL     1       4.418   4.531  -0.016  0.00  0.00    -0.204 N 
ATOM      2  C   UNL     1       3.541   3.456  -0.013  0.00  0.00    +0.254 A 
ATOM      3  N   UNL     1       3.875   2.188  -0.023  0.00  0.00    -0.109 NA
ATOM      4  N   UNL     1       2.697   1.430  -0.010  0.00  0.00    -0.119 NA
ATOM      5  C   UNL     1       1.681   2.259  -0.002  0.00  0.00    +0.210 A 
ATOM      6  N   UNL     1       2.175   3.533   0.000  0.00  0.00    -0.211 N 
ATOM      7  H   UNL     1       4.027   5.559  -0.007  0.00  0.00    +0.178 HD
ENDROOT
BRANCH   1  10
ATOM      8  C   UNL     1       6.087   6.722  -0.021  0.00  0.00    +0.068 C 
ATOM      9  C   UNL     1       6.622   5.313  -0.033  0.00  0.00    +0.063 C 
ATOM     10  N   UNL     1       5.801   4.307  -0.031  0.00  0.00    -0.184 NA
BRANCH   9  11
ATOM     11  C   UNL     1       8.077   5.077  -0.049  0.00  0.00    -0.002 A 
ATOM     12  C   UNL     1       8.963   6.157  -0.057  0.00  0.00    +0.011 A 
ATOM     13  C   UNL     1      10.323   5.929  -0.067  0.00  0.00    +0.016 A 
ATOM     14  C   UNL     1      10.811   4.633  -0.078  0.00  0.00    +0.018 A 
ATOM     15  C   UNL     1       9.938   3.558  -0.074  0.00  0.00    +0.016 A 
ATOM     16  C   UNL     1       8.576   3.772  -0.060  0.00  0.00    +0.011 A 
ATOM     17 BR   UNL     1      12.677   4.331  -0.097  0.00  0.00    -0.050 Br
ENDBRANCH   9  11
ENDBRANCH   1  10
BRANCH   6  18
ATOM     18  N   UNL     1       1.436   4.681   0.014  0.00  0.00    -0.294 N 
ATOM     19  H   UNL     1       0.337   4.627   0.024  0.00  0.00    +0.163 HD
ATOM     20  H   UNL     1       1.939   5.659   0.015  0.00  0.00    +0.163 HD
ENDBRANCH   6  18
BRANCH   5  21
ATOM     21  S   UNL     1      -0.022   1.810   0.012  0.00  0.00    -0.075 S 
BRANCH  21  22
ATOM     22  C   UNL     1       0.002  -0.004   0.002  0.00  0.00    +0.172 C 
BRANCH  22  23
ATOM     23  C   UNL     1      -1.412  -0.526   0.013  0.00  0.00    +0.221 C 
ATOM     24  O   UNL     1      -2.344   0.250   0.026  0.00  0.00    -0.275 OA
ATOM     25  N   UNL     1      -1.640  -1.854   0.008  0.00  0.00    -0.329 N 
ATOM     26  H   UNL     1      -2.672  -2.235   0.016  0.00  0.00    +0.145 HD
ATOM     27  H   UNL     1      -0.794  -2.557  -0.004  0.00  0.00    +0.145 HD
ENDBRANCH  22  23
ENDBRANCH  21  22
ENDBRANCH   5  21
TORSDOF 6
