REMARK  Name = ZINC39687453
REMARK  6 active torsions:
REMARK  status: ('A' for Active; 'I' for Inactive)
REMARK    1  A    between atoms: C_1  and  C_2
REMARK    2  A    between atoms: C_2  and  C_3
REMARK    3  A    between atoms: C_3  and  C_5
REMARK    4  A    between atoms: C_3  and  C_11
REMARK    5  A    between atoms: C_15  and  C_24
REMARK    6  A    between atoms: N_26  and  C_27
REMARK                            x       y       z     vdW  Elec       q    Type
REMARK                         _______ _______ _______ _____ _____    ______ ____
ROOT
ATOM      1  C   UNL     1       2.172   0.083  -1.288  0.00  0.00    +0.223 C 
ATOM      2  O   UNL     1       3.087  -0.689  -1.483  0.00  0.00    -0.275 OA
ATOM      3  N   UNL     1       2.425   1.393  -1.098  0.00  0.00    -0.300 N 
ATOM      4  C   UNL     1       1.446   2.494  -0.942  0.00  0.00    +0.121 C 
ATOM      5  C   UNL     1       2.053   3.405   0.149  0.00  0.00    +0.100 C 
ATOM      6  C   UNL     1       3.563   3.116   0.106  0.00  0.00    -0.004 C 
ATOM      7  C   UNL     1       3.747   2.058  -0.991  0.00  0.00    +0.115 C 
ATOM      8  C   UNL     1       4.334   4.384  -0.247  0.00  0.00    -0.010 C 
ATOM      9  C   UNL     1       5.835   4.085  -0.226  0.00  0.00    -0.082 C 
ATOM     10  N   UNL     1       6.223   3.608   1.107  0.00  0.00    +0.379 N 
ATOM     11  C   UNL     1       5.547   2.339   1.400  0.00  0.00    -0.082 C 
ATOM     12  C   UNL     1       4.033   2.564   1.448  0.00  0.00    -0.010 C 
ATOM     13  H   UNL     1       7.222   3.470   1.135  0.00  0.00    -0.086 HD
ATOM     14  H   UNL     1       5.961   4.295   1.798  0.00  0.00    -0.086 HD
ENDROOT
BRANCH   5  15
ATOM     15  C   UNL     1       1.487   3.054   1.501  0.00  0.00    +0.218 C 
ATOM     16  O   UNL     1       1.211   1.902   1.762  0.00  0.00    -0.275 OA
ATOM     17  N   UNL     1       1.288   4.019   2.420  0.00  0.00    -0.312 N 
ATOM     18  H   UNL     1       1.440   4.949   2.188  0.00  0.00    +0.149 HD
BRANCH  17  19
ATOM     19  C   UNL     1       0.842   3.665   3.770  0.00  0.00    +0.076 C 
ATOM     20  C   UNL     1      -0.672   3.440   3.764  0.00  0.00    +0.041 C 
ATOM     21  C   UNL     1      -1.129   3.037   5.169  0.00  0.00    +0.108 C 
ATOM     22  N   UNL     1      -0.674   4.054   6.126  0.00  0.00    -0.317 N 
ATOM     23  C   UNL     1       0.751   4.412   6.151  0.00  0.00    +0.108 C 
ATOM     24  C   UNL     1       1.188   4.801   4.735  0.00  0.00    +0.041 C 
ATOM     25  C   UNL     1      -1.574   4.668   6.989  0.00  0.00    +0.099 A 
ATOM     26  C   UNL     1      -1.152   5.728   7.786  0.00  0.00    +0.042 A 
ATOM     27  C   UNL     1      -2.058   6.328   8.641  0.00  0.00    +0.005 A 
ATOM     28  C   UNL     1      -3.360   5.848   8.671  0.00  0.00    +0.018 A 
ATOM     29  C   UNL     1      -3.710   4.792   7.853  0.00  0.00    +0.084 A 
ATOM     30  N   UNL     1      -2.826   4.242   7.043  0.00  0.00    -0.350 N 
ATOM     31  H   UNL     1      -3.099   3.504   6.476  0.00  0.00    +0.166 HD
ENDBRANCH  17  19
ENDBRANCH   5  15
BRANCH   1  32
ATOM     32  C   UNL     1       0.753  -0.422  -1.258  0.00  0.00    +0.105 C 
BRANCH  32  33
ATOM     33  C   UNL     1       0.208  -0.472  -2.662  0.00  0.00    -0.036 A 
ATOM     34  C   UNL     1       0.820  -1.267  -3.613  0.00  0.00    +0.004 A 
ATOM     35  C   UNL     1       0.320  -1.313  -4.901  0.00  0.00    +0.000 A 
ATOM     36  C   UNL     1      -0.793  -0.565  -5.237  0.00  0.00    +0.000 A 
ATOM     37  C   UNL     1      -1.406   0.229  -4.286  0.00  0.00    +0.000 A 
ATOM     38  C   UNL     1      -0.908   0.272  -2.997  0.00  0.00    +0.004 A 
ENDBRANCH  32  33
BRANCH  32  40
ATOM     39  C   UNL     1       1.146  -1.753   0.820  0.00  0.00    +0.005 C 
ATOM     40  C   UNL     1       0.724  -1.825  -0.649  0.00  0.00    +0.014 C 
ENDBRANCH  32  40
ENDBRANCH   1  32
TORSDOF 5
