REMARK  Name = ZINC21122790
REMARK  11 active torsions:
REMARK  status: ('A' for Active; 'I' for Inactive)
REMARK    1  A    between atoms: C_1  and  C_2
REMARK    2  A    between atoms: C_2  and  C_3
REMARK    3  A    between atoms: C_6  and  N_9
REMARK    4  A    between atoms: C_10  and  C_12
REMARK    5  A    between atoms: C_12  and  C_14
REMARK    6  A    between atoms: C_12  and  S_15
REMARK    7  A    between atoms: S_15  and  C_16
REMARK    8  A    between atoms: C_19  and  C_22
REMARK    9  A    between atoms: N_20  and  N_21
REMARK   10  A    between atoms: C_25  and  O_28
REMARK   11  A    between atoms: O_28  and  C_29
REMARK                            x       y       z     vdW  Elec       q    Type
REMARK                         _______ _______ _______ _____ _____    ______ ____
ROOT
ATOM      1  C   UNL     1      -1.117   2.165   0.031  0.00  0.00    +0.209 A 
ATOM      2  N   UNL     1      -0.683   3.405   0.047  0.00  0.00    -0.121 NA
ATOM      3  N   UNL     1       0.602   3.424   0.041  0.00  0.00    -0.127 NA
ATOM      4  C   UNL     1       1.067   2.196   0.027  0.00  0.00    +0.182 A 
ATOM      5  N   UNL     1      -0.019   1.352   0.023  0.00  0.00    -0.224 N 
ENDROOT
BRANCH   4   6
ATOM      6  C   UNL     1       2.490   1.797   0.016  0.00  0.00    +0.021 A 
ATOM      7  C   UNL     1       2.850   0.482   0.319  0.00  0.00    +0.015 A 
ATOM      8  C   UNL     1       4.178   0.112   0.303  0.00  0.00    +0.046 A 
ATOM      9  C   UNL     1       5.158   1.047  -0.004  0.00  0.00    +0.127 A 
ATOM     10  C   UNL     1       4.804   2.357  -0.300  0.00  0.00    +0.046 A 
ATOM     11  C   UNL     1       3.478   2.734  -0.291  0.00  0.00    +0.015 A 
BRANCH   9  12
ATOM     12  O   UNL     1       6.466   0.680  -0.013  0.00  0.00    -0.434 OA
BRANCH  12  13
ATOM     13  C   UNL     1       6.759  -0.683   0.300  0.00  0.00    +0.541 C 
ATOM     14  F   UNL     1       6.296  -0.975   1.588  0.00  0.00    -0.166 F 
ATOM     15  F   UNL     1       6.126  -1.521  -0.624  0.00  0.00    -0.166 F 
ENDBRANCH  12  13
ENDBRANCH   9  12
ENDBRANCH   4   6
BRANCH   5  16
ATOM     16  N   UNL     1      -0.004  -0.013   0.008  0.00  0.00    -0.295 N 
ATOM     17  H   UNL     1       0.955  -0.552   0.003  0.00  0.00    +0.163 HD
ATOM     18  H   UNL     1      -0.950  -0.574   0.002  0.00  0.00    +0.163 HD
ENDBRANCH   5  16
BRANCH   1  19
ATOM     19  S   UNL     1      -2.802   1.647   0.025  0.00  0.00    -0.072 S 
BRANCH  19  20
ATOM     20  C   UNL     1      -3.626   3.259   0.041  0.00  0.00    +0.137 C 
ATOM     21  C   UNL     1      -3.315   4.004  -1.258  0.00  0.00    +0.029 C 
BRANCH  20  23
ATOM     22  N   UNL     1      -5.897   4.070   0.594  0.00  0.00    -0.285 N 
ATOM     23  C   UNL     1      -5.115   3.060   0.163  0.00  0.00    +0.230 C 
ATOM     24  O   UNL     1      -5.610   1.991  -0.128  0.00  0.00    -0.274 OA
ATOM     25  H   UNL     1      -5.441   5.013   0.929  0.00  0.00    +0.155 HD
BRANCH  22  29
ATOM     26  C   UNL     1     -10.038   3.617   0.656  0.00  0.00    -0.048 A 
ATOM     27  C   UNL     1      -9.221   2.537   0.934  0.00  0.00    +0.005 A 
ATOM     28  C   UNL     1      -7.848   2.683   0.914  0.00  0.00    +0.023 A 
ATOM     29  C   UNL     1      -7.287   3.918   0.615  0.00  0.00    +0.033 A 
ATOM     30  C   UNL     1      -8.110   5.003   0.341  0.00  0.00    +0.023 A 
ATOM     31  C   UNL     1      -9.482   4.848   0.357  0.00  0.00    +0.005 A 
BRANCH  26  33
ATOM     32  C   UNL     1     -12.060   3.746   2.086  0.00  0.00    +0.009 C 
ATOM     33  C   UNL     1     -11.536   3.454   0.678  0.00  0.00    +0.032 C 
ENDBRANCH  26  33
ENDBRANCH  22  29
ENDBRANCH  20  23
ENDBRANCH  19  20
ENDBRANCH   1  19
TORSDOF 9
