REMARK  Name = ZINC58414970
REMARK  8 active torsions:
REMARK  status: ('A' for Active; 'I' for Inactive)
REMARK    1  A    between atoms: C_1  and  C_2
REMARK    2  A    between atoms: C_6  and  C_7
REMARK    3  A    between atoms: N_9  and  C_10
REMARK    4  A    between atoms: C_15  and  N_16
REMARK    5  A    between atoms: N_16  and  C_17
REMARK    6  A    between atoms: C_17  and  C_18
REMARK    7  A    between atoms: C_23  and  C_27
REMARK    8  A    between atoms: C_23  and  C_28
REMARK                            x       y       z     vdW  Elec       q    Type
REMARK                         _______ _______ _______ _____ _____    ______ ____
ROOT
ATOM      1  C   UNL     1       0.034  -0.395   2.490  0.00  0.00    +0.284 C 
ATOM      2  O   UNL     1       0.013   0.792   2.759  0.00  0.00    -0.266 OA
ATOM      3  N   UNL     1       0.053  -1.309   3.480  0.00  0.00    -0.277 N 
ATOM      4  H   UNL     1      -0.011  -2.254   3.269  0.00  0.00    +0.155 HD
ENDROOT
BRANCH   1  10
ATOM      5  C   UNL     1      -0.005   1.502   0.010  0.00  0.00    +0.048 C 
ATOM      6  C   UNL     1       0.021  -0.004   0.002  0.00  0.00    +0.011 A 
ATOM      7  C   UNL     1       0.039  -0.841  -1.125  0.00  0.00    +0.062 A 
ATOM      8  C   UNL     1       0.059  -2.152  -0.662  0.00  0.00    +0.117 A 
ATOM      9  O   UNL     1       0.058  -2.114   0.664  0.00  0.00    -0.454 OA
ATOM     10  C   UNL     1       0.039  -0.830   1.089  0.00  0.00    +0.193 A 
ATOM     11  C   UNL     1       0.075  -3.344  -1.585  0.00  0.00    +0.082 C 
ATOM     12  C   UNL     1      -0.437  -2.922  -2.965  0.00  0.00    -0.021 C 
ATOM     13  C   UNL     1       0.335  -1.704  -3.480  0.00  0.00    +0.086 C 
ATOM     14  C   UNL     1       0.041  -0.526  -2.562  0.00  0.00    +0.167 C 
ATOM     15  O   UNL     1      -0.176   0.590  -2.984  0.00  0.00    -0.292 OA
ATOM     16  C   UNL     1      -1.923  -2.572  -2.865  0.00  0.00    +0.012 C 
ATOM     17  C   UNL     1      -0.259  -4.083  -3.945  0.00  0.00    +0.012 C 
ENDBRANCH   1  10
BRANCH   3  18
ATOM     18  C   UNL     1       0.166  -0.896   4.814  0.00  0.00    +0.055 A 
ATOM     19  C   UNL     1       0.756   0.322   5.117  0.00  0.00    +0.025 A 
ATOM     20  C   UNL     1       0.867   0.727   6.434  0.00  0.00    +0.002 A 
ATOM     21  C   UNL     1       0.389  -0.078   7.452  0.00  0.00    +0.002 A 
ATOM     22  C   UNL     1      -0.202  -1.293   7.159  0.00  0.00    +0.025 A 
ATOM     23  C   UNL     1      -0.321  -1.705   5.840  0.00  0.00    +0.049 A 
BRANCH  23  24
ATOM     24  N   UNL     1      -0.924  -2.932   5.541  0.00  0.00    -0.334 N 
ATOM     25  H   UNL     1      -1.003  -3.221   4.618  0.00  0.00    +0.146 HD
BRANCH  24  26
ATOM     26  C   UNL     1      -1.434  -3.780   6.620  0.00  0.00    +0.215 C 
BRANCH  26  27
ATOM     27  C   UNL     1      -2.039  -5.054   6.026  0.00  0.00    +0.405 C 
ATOM     28  F   UNL     1      -1.056  -5.748   5.313  0.00  0.00    -0.169 F 
ATOM     29  F   UNL     1      -2.526  -5.864   7.057  0.00  0.00    -0.169 F 
ATOM     30  F   UNL     1      -3.087  -4.714   5.164  0.00  0.00    -0.169 F 
ENDBRANCH  26  27
ENDBRANCH  24  26
ENDBRANCH  23  24
ENDBRANCH   3  18
TORSDOF 5
