REMARK  Name = ZINC38981437
REMARK  5 active torsions:
REMARK  status: ('A' for Active; 'I' for Inactive)
REMARK    1  A    between atoms: N_7  and  S_8
REMARK    2  A    between atoms: S_8  and  C_11
REMARK    3  A    between atoms: C_20  and  N_25
REMARK    4  A    between atoms: N_25  and  C_26
REMARK    5  A    between atoms: C_30  and  C_32
REMARK                            x       y       z     vdW  Elec       q    Type
REMARK                         _______ _______ _______ _____ _____    ______ ____
ROOT
ATOM      1  C   UNL     1      -0.273   1.097   0.326  0.00  0.00    +0.002 A 
ATOM      2  C   UNL     1       0.836   1.950   0.199  0.00  0.00    +0.002 A 
ATOM      3  C   UNL     1       2.098   1.491   0.051  0.00  0.00    +0.030 A 
ATOM      4  C   UNL     1       2.354   0.097   0.018  0.00  0.00    +0.089 A 
ATOM      5  N   UNL     1       3.586  -0.345  -0.125  0.00  0.00    -0.226 NA
ATOM      6  C   UNL     1       3.864  -1.659  -0.160  0.00  0.00    +0.192 C 
ATOM      7  N   UNL     1       5.089  -2.071  -0.303  0.00  0.00    -0.110 NA
ATOM      8  C   UNL     1       2.730  -2.651  -0.032  0.00  0.00    +0.237 C 
ATOM      9  N   UNL     1       1.367  -2.121   0.127  0.00  0.00    -0.359 N 
ATOM     10  C   UNL     1       1.202  -0.828   0.150  0.00  0.00    +0.063 A 
ATOM     11  C   UNL     1      -0.140  -0.247   0.307  0.00  0.00    +0.027 A 
ATOM     12  H   UNL     1       0.609  -2.720   0.213  0.00  0.00    +0.162 HD
ENDROOT
BRANCH   7  13
ATOM     13  S   UNL     1       6.321  -0.973  -0.442  0.00  0.00    +0.103 S 
ATOM     14  O   UNL     1       6.118  -0.288  -1.670  0.00  0.00    -0.146 OA
ATOM     15  O   UNL     1       6.403  -0.294   0.804  0.00  0.00    -0.146 OA
BRANCH  13  16
ATOM     16  C   UNL     1       7.816  -1.887  -0.616  0.00  0.00    +0.141 A 
ATOM     17  C   UNL     1       8.527  -1.807  -1.766  0.00  0.00    +0.031 A 
ATOM     18  C   UNL     1       9.715  -2.517  -1.939  0.00  0.00    +0.004 A 
ATOM     19  C   UNL     1      10.210  -3.317  -0.965  0.00  0.00    +0.031 A 
ATOM     20  C   UNL     1       9.517  -3.450   0.269  0.00  0.00    +0.102 A 
ATOM     21  C   UNL     1       8.278  -2.703   0.452  0.00  0.00    +0.127 A 
ATOM     22  N   UNL     1       7.719  -2.900   1.647  0.00  0.00    -0.189 NA
ATOM     23  S   UNL     1       8.695  -3.919   2.420  0.00  0.00    +0.117 S 
ATOM     24  N   UNL     1       9.849  -4.184   1.331  0.00  0.00    -0.191 NA
ENDBRANCH  13  16
ENDBRANCH   7  13
BRANCH   8  25
ATOM     25  N   UNL     1       2.743  -3.501  -1.225  0.00  0.00    -0.318 N 
ATOM     26  H   UNL     1       2.870  -3.104  -2.102  0.00  0.00    +0.148 HD
BRANCH  25  27
ATOM     27  C   UNL     1       2.571  -4.882  -1.102  0.00  0.00    +0.030 A 
ATOM     28  C   UNL     1       2.230  -5.433   0.129  0.00  0.00    +0.023 A 
ATOM     29  C   UNL     1       2.059  -6.798   0.257  0.00  0.00    +0.003 A 
ATOM     30  C   UNL     1       2.226  -7.625  -0.835  0.00  0.00    +0.015 A 
ATOM     31  C   UNL     1       2.568  -7.082  -2.076  0.00  0.00    +0.065 A 
ATOM     32  C   UNL     1       2.735  -5.702  -2.207  0.00  0.00    +0.038 A 
BRANCH  31  33
ATOM     33  C   UNL     1       2.748  -7.964  -3.246  0.00  0.00    +0.387 C 
ATOM     34  O   UNL     1       2.597  -9.172  -3.130  0.00  0.00    -0.241 OA
ATOM     35  O   UNL     1       3.048  -7.487  -4.331  0.00  0.00    -0.241 OA
ENDBRANCH  31  33
ENDBRANCH  25  27
ENDBRANCH   8  25
TORSDOF 5
