REMARK  Name = ZINC40173247
REMARK  9 active torsions:
REMARK  status: ('A' for Active; 'I' for Inactive)
REMARK    1  A    between atoms: C_1  and  C_2
REMARK    2  A    between atoms: C_2  and  C_3
REMARK    3  A    between atoms: C_3  and  C_5
REMARK    4  A    between atoms: C_3  and  N_19
REMARK    5  A    between atoms: N_7  and  C_8
REMARK    6  A    between atoms: C_9  and  C_17
REMARK    7  A    between atoms: C_23  and  S_24
REMARK    8  A    between atoms: S_24  and  C_25
REMARK    9  A    between atoms: C_25  and  C_26
REMARK                            x       y       z     vdW  Elec       q    Type
REMARK                         _______ _______ _______ _____ _____    ______ ____
ROOT
ATOM      1  C   UNL     1       0.742  -0.511   1.242  0.00  0.00    +0.178 C 
ENDROOT
BRANCH   1   2
ATOM      2  N   UNL     1      -0.008  -0.140   2.444  0.00  0.00    -0.279 N 
ATOM      3  C   UNL     1      -1.285  -0.522   2.743  0.00  0.00    +0.216 A 
ATOM      4  N   UNL     1      -1.607   0.007   3.898  0.00  0.00    -0.113 NA
ATOM      5  N   UNL     1      -0.509   0.749   4.355  0.00  0.00    -0.121 NA
ATOM      6  C   UNL     1       0.448   0.644   3.466  0.00  0.00    +0.194 A 
ATOM      7  N   UNL     1      -2.100  -1.330   1.960  0.00  0.00    -0.328 N 
ATOM      8  H   UNL     1      -1.772  -1.676   1.116  0.00  0.00    +0.145 HD
ATOM      9  H   UNL     1      -2.997  -1.548   2.258  0.00  0.00    +0.145 HD
BRANCH   6  10
ATOM     10  S   UNL     1       2.043   1.387   3.569  0.00  0.00    -0.081 S 
BRANCH  10  11
ATOM     11  C   UNL     1       2.009   2.281   5.147  0.00  0.00    +0.114 C 
BRANCH  11  12
ATOM     12  C   UNL     1       3.332   2.972   5.361  0.00  0.00    -0.019 A 
ATOM     13  C   UNL     1       4.357   2.314   6.014  0.00  0.00    +0.006 A 
ATOM     14  C   UNL     1       5.570   2.947   6.210  0.00  0.00    +0.000 A 
ATOM     15  C   UNL     1       5.758   4.239   5.754  0.00  0.00    +0.001 A 
ATOM     16  C   UNL     1       4.734   4.897   5.101  0.00  0.00    +0.020 A 
ATOM     17  C   UNL     1       3.521   4.262   4.899  0.00  0.00    +0.045 A 
ATOM     18 CL   UNL     1       2.236   5.086   4.073  0.00  0.00    -0.083 Cl
ENDBRANCH  11  12
ENDBRANCH  10  11
ENDBRANCH   6  10
ENDBRANCH   1   2
BRANCH   1  19
ATOM     19  C   UNL     1       0.870  -2.011   1.172  0.00  0.00    +0.241 C 
ATOM     20  O   UNL     1       0.382  -2.702   2.041  0.00  0.00    -0.273 OA
ATOM     21  N   UNL     1       1.526  -2.584   0.144  0.00  0.00    -0.277 N 
ATOM     22  H   UNL     1       1.916  -2.031  -0.551  0.00  0.00    +0.155 HD
BRANCH  21  23
ATOM     23  C   UNL     1       1.644  -3.966   0.080  0.00  0.00    +0.090 A 
ATOM     24  C   UNL     1       2.282  -4.722  -0.890  0.00  0.00    +0.084 A 
ATOM     25  C   UNL     1       2.264  -6.164  -0.726  0.00  0.00    -0.018 A 
ATOM     26  C   UNL     1       1.611  -6.587   0.378  0.00  0.00    -0.004 A 
ATOM     27  S   UNL     1       1.052  -5.104   1.164  0.00  0.00    -0.077 S 
ATOM     28  C   UNL     1       1.417  -8.004   0.822  0.00  0.00    +0.043 C 
ATOM     29  C   UNL     1       1.746  -8.928  -0.359  0.00  0.00    +0.005 C 
ATOM     30  C   UNL     1       3.080  -8.493  -0.973  0.00  0.00    +0.005 C 
ATOM     31  C   UNL     1       2.912  -7.150  -1.688  0.00  0.00    +0.037 C 
BRANCH  24  32
ATOM     32  C   UNL     1       2.932  -4.106  -2.008  0.00  0.00    +0.102 C 
ATOM     33  N   UNL     1       3.447  -3.618  -2.895  0.00  0.00    -0.191 NA
ENDBRANCH  24  32
ENDBRANCH  21  23
ENDBRANCH   1  19
BRANCH   1  35
ATOM     34  C   UNL     1      -0.019   1.526   0.010  0.00  0.00    +0.006 C 
ATOM     35  C   UNL     1       0.002  -0.004   0.002  0.00  0.00    +0.031 C 
ENDBRANCH   1  35
TORSDOF 8
