REMARK  Name = ZINC17086024
REMARK  6 active torsions:
REMARK  status: ('A' for Active; 'I' for Inactive)
REMARK    1  A    between atoms: C_1  and  C_2
REMARK    2  A    between atoms: C_2  and  C_3
REMARK    3  A    between atoms: C_2  and  C_4
REMARK    4  A    between atoms: C_2  and  C_5
REMARK    5  A    between atoms: C_17  and  C_20
REMARK    6  A    between atoms: C_23  and  C_25
REMARK                            x       y       z     vdW  Elec       q    Type
REMARK                         _______ _______ _______ _____ _____    ______ ____
ROOT
ATOM      1  C   UNL     1       4.337   5.933   0.129  0.00  0.00    -0.000 C 
ATOM      2  C   UNL     1       4.412   4.800  -0.899  0.00  0.00    +0.009 C 
ATOM      3  C   UNL     1       3.648   3.579  -0.383  0.00  0.00    +0.037 C 
ATOM      4  C   UNL     1       2.243   4.013   0.021  0.00  0.00    -0.023 A 
ATOM      5  C   UNL     1       1.959   5.314   0.252  0.00  0.00    -0.004 A 
ATOM      6  S   UNL     1       0.238   5.338   0.680  0.00  0.00    -0.078 S 
ATOM      7  C   UNL     1      -0.093   3.663   0.554  0.00  0.00    +0.080 A 
ATOM      8  C   UNL     1       1.133   3.088   0.183  0.00  0.00    +0.068 A 
ATOM      9  C   UNL     1       1.170   1.619  -0.000  0.00  0.00    +0.248 C 
ATOM     10  O   UNL     1       2.222   1.026  -0.152  0.00  0.00    -0.270 OA
ATOM     11  N   UNL     1      -0.011   0.966   0.007  0.00  0.00    -0.287 N 
ATOM     12  C   UNL     1      -1.306   1.637   0.017  0.00  0.00    +0.227 C 
ATOM     13  N   UNL     1      -1.234   2.926   0.735  0.00  0.00    -0.314 N 
ATOM     14  C   UNL     1       2.901   6.475   0.163  0.00  0.00    +0.046 C 
ATOM     15  H   UNL     1       0.039  -0.133   0.006  0.00  0.00    +0.151 HD
ATOM     16  H   UNL     1      -2.070   3.248   1.373  0.00  0.00    +0.149 HD
ENDROOT
BRANCH  12  17
ATOM     17  C   UNL     1      -1.746   1.881  -1.403  0.00  0.00    +0.144 A 
ATOM     18  C   UNL     1      -1.433   1.113  -2.465  0.00  0.00    +0.049 A 
ATOM     19  C   UNL     1      -2.046   1.697  -3.592  0.00  0.00    +0.050 A 
ATOM     20  C   UNL     1      -2.707   2.800  -3.150  0.00  0.00    +0.135 A 
ATOM     21  O   UNL     1      -2.521   2.896  -1.820  0.00  0.00    -0.456 OA
BRANCH  20  22
ATOM     22  C   UNL     1      -3.498   3.729  -3.984  0.00  0.00    +0.020 A 
ATOM     23  C   UNL     1      -3.611   3.514  -5.359  0.00  0.00    +0.031 A 
ATOM     24  C   UNL     1      -4.354   4.384  -6.132  0.00  0.00    +0.043 A 
ATOM     25  C   UNL     1      -4.979   5.473  -5.548  0.00  0.00    +0.040 A 
ATOM     26  C   UNL     1      -4.866   5.694  -4.186  0.00  0.00    +0.043 A 
ATOM     27  C   UNL     1      -4.129   4.829  -3.402  0.00  0.00    +0.031 A 
ATOM     28 CL   UNL     1      -5.653   7.063  -3.463  0.00  0.00    -0.083 Cl
ATOM     29 CL   UNL     1      -4.501   4.114  -7.841  0.00  0.00    -0.083 Cl
ENDBRANCH  20  22
ENDBRANCH  12  17
BRANCH   1  31
ATOM     30  C   UNL     1       5.208   8.192   0.746  0.00  0.00    +0.011 C 
ATOM     31  C   UNL     1       5.298   7.054  -0.273  0.00  0.00    -0.035 C 
ATOM     32  C   UNL     1       6.729   6.511  -0.305  0.00  0.00    +0.011 C 
ATOM     33  C   UNL     1       4.920   7.579  -1.659  0.00  0.00    +0.011 C 
ENDBRANCH   1  31
TORSDOF 3
