REMARK  Name = ZINC39666097
REMARK  9 active torsions:
REMARK  status: ('A' for Active; 'I' for Inactive)
REMARK    1  A    between atoms: C_1  and  C_2
REMARK    2  A    between atoms: C_5  and  O_8
REMARK    3  A    between atoms: O_8  and  C_9
REMARK    4  A    between atoms: C_9  and  C_11
REMARK    5  A    between atoms: C_9  and  C_12
REMARK    6  A    between atoms: C_12  and  N_13
REMARK    7  A    between atoms: C_14  and  C_16
REMARK    8  A    between atoms: C_27  and  C_29
REMARK    9  A    between atoms: C_33  and  C_35
REMARK                            x       y       z     vdW  Elec       q    Type
REMARK                         _______ _______ _______ _____ _____    ______ ____
ROOT
ATOM      1  C   UNL     1      -3.998  -6.704   0.534  0.00  0.00    +0.100 C 
ATOM      2  C   UNL     1      -4.652  -5.810   1.611  0.00  0.00    +0.121 C 
ATOM      3  N   UNL     1      -6.043  -6.310   1.719  0.00  0.00    -0.296 N 
ATOM      4  C   UNL     1      -5.915  -7.783   1.610  0.00  0.00    +0.115 C 
ATOM      5  C   UNL     1      -4.829  -7.998   0.537  0.00  0.00    -0.004 C 
ATOM      6  C   UNL     1      -3.951  -9.189   0.908  0.00  0.00    -0.010 C 
ATOM      7  C   UNL     1      -4.786 -10.472   0.848  0.00  0.00    -0.082 C 
ATOM      8  N   UNL     1      -5.329 -10.641  -0.506  0.00  0.00    +0.379 N 
ATOM      9  C   UNL     1      -6.245  -9.538  -0.819  0.00  0.00    -0.082 C 
ATOM     10  C   UNL     1      -5.472  -8.216  -0.829  0.00  0.00    -0.010 C 
ATOM     11  C   UNL     1      -7.170  -5.588   1.878  0.00  0.00    +0.247 C 
ATOM     12  O   UNL     1      -7.106  -4.381   2.011  0.00  0.00    -0.270 OA
ATOM     13  H   UNL     1      -4.571 -10.646  -1.172  0.00  0.00    -0.086 HD
ATOM     14  H   UNL     1      -5.827 -11.517  -0.560  0.00  0.00    -0.086 HD
ENDROOT
BRANCH  11  15
ATOM     15  C   UNL     1      -8.485  -6.264   1.891  0.00  0.00    +0.037 A 
ATOM     16  C   UNL     1      -8.610  -7.542   2.438  0.00  0.00    +0.014 A 
ATOM     17  C   UNL     1      -9.839  -8.168   2.447  0.00  0.00    +0.016 A 
ATOM     18  C   UNL     1     -10.948  -7.530   1.915  0.00  0.00    +0.021 A 
ATOM     19  C   UNL     1     -10.829  -6.262   1.371  0.00  0.00    -0.036 A 
ATOM     20  C   UNL     1      -9.607  -5.624   1.362  0.00  0.00    +0.017 A 
ATOM     21  C   UNL     1     -12.040  -5.575   0.795  0.00  0.00    +0.045 C 
ATOM     22 BR   UNL     1     -12.629  -8.395   1.930  0.00  0.00    -0.050 Br
ENDBRANCH  11  15
BRANCH   1  24
ATOM     23  N   UNL     1      -1.652  -7.200  -0.074  0.00  0.00    -0.312 N 
ATOM     24  C   UNL     1      -2.566  -7.000   0.897  0.00  0.00    +0.218 C 
ATOM     25  O   UNL     1      -2.235  -7.058   2.062  0.00  0.00    -0.275 OA
ATOM     26  H   UNL     1      -1.917  -7.154  -1.006  0.00  0.00    +0.149 HD
BRANCH  23  27
ATOM     27  C   UNL     1      -0.260  -7.487   0.279  0.00  0.00    +0.148 C 
BRANCH  27  28
ATOM     28  C   UNL     1       0.562  -7.671  -0.998  0.00  0.00    +0.187 C 
ATOM     29  C   UNL     1       2.017  -7.971  -0.630  0.00  0.00    +0.053 C 
BRANCH  28  30
ATOM     30  O   UNL     1       0.029  -8.759  -1.756  0.00  0.00    -0.488 OA
BRANCH  30  35
ATOM     31  C   UNL     1       1.037  -8.754  -7.297  0.00  0.00    +0.044 C 
ATOM     32  C   UNL     1       0.767  -8.755  -5.814  0.00  0.00    -0.050 A 
ATOM     33  C   UNL     1       1.172  -7.685  -5.038  0.00  0.00    +0.007 A 
ATOM     34  C   UNL     1       0.926  -7.684  -3.679  0.00  0.00    +0.046 A 
ATOM     35  C   UNL     1       0.272  -8.758  -3.093  0.00  0.00    +0.121 A 
ATOM     36  C   UNL     1      -0.135  -9.830  -3.874  0.00  0.00    +0.046 A 
ATOM     37  C   UNL     1       0.109  -9.824  -5.234  0.00  0.00    +0.007 A 
ENDBRANCH  30  35
ENDBRANCH  28  30
ENDBRANCH  27  28
ENDBRANCH  23  27
ENDBRANCH   1  24
TORSDOF 6
