REMARK  Name = ZINC63655796
REMARK  5 active torsions:
REMARK  status: ('A' for Active; 'I' for Inactive)
REMARK    1  A    between atoms: C_8  and  N_11
REMARK    2  A    between atoms: C_15  and  C_18
REMARK    3  A    between atoms: N_20  and  C_21
REMARK    4  A    between atoms: C_21  and  C_22
REMARK    5  A    between atoms: C_22  and  C_23
REMARK                            x       y       z     vdW  Elec       q    Type
REMARK                         _______ _______ _______ _____ _____    ______ ____
ROOT
ATOM      1  C   UNL     1       4.904   1.064   4.861  0.00  0.00    +0.217 C 
ATOM      2  O   UNL     1       3.767   0.649   4.776  0.00  0.00    -0.275 OA
ATOM      3  N   UNL     1       5.452   1.283   6.072  0.00  0.00    -0.315 N 
ATOM      4  H   UNL     1       6.361   1.615   6.141  0.00  0.00    +0.149 HD
ENDROOT
BRANCH   1   9
ATOM      5  N   UNL     1       5.641   1.247   1.165  0.00  0.00    -0.275 NA
ATOM      6  C   UNL     1       6.830   0.386   1.119  0.00  0.00    +0.087 C 
ATOM      7  C   UNL     1       7.736   0.700   2.312  0.00  0.00    +0.016 C 
ATOM      8  C   UNL     1       6.960   0.462   3.611  0.00  0.00    +0.015 C 
ATOM      9  C   UNL     1       5.702   1.335   3.612  0.00  0.00    +0.089 C 
ATOM     10  C   UNL     1       4.856   1.002   2.381  0.00  0.00    +0.099 C 
BRANCH   5  18
ATOM     11  C   UNL     1      -0.017   1.375   0.010  0.00  0.00    +0.022 A 
ATOM     12  C   UNL     1       1.168   2.087   0.002  0.00  0.00    +0.027 A 
ATOM     13  C   UNL     1       2.392   1.394  -0.013  0.00  0.00    +0.061 A 
ATOM     14  C   UNL     1       2.304  -0.004  -0.020  0.00  0.00    +0.121 A 
ATOM     15  N   UNL     1       1.158  -0.647  -0.013  0.00  0.00    -0.247 NA
ATOM     16  C   UNL     1       0.002  -0.004   0.002  0.00  0.00    +0.112 A 
ATOM     17  S   UNL     1       3.991  -0.570  -0.039  0.00  0.00    -0.066 S 
ATOM     18  C   UNL     1       4.817   1.071  -0.038  0.00  0.00    +0.208 C 
ATOM     19  N   UNL     1       3.658   1.974  -0.022  0.00  0.00    -0.318 N 
ATOM     20  H   UNL     1       3.771   2.937  -0.018  0.00  0.00    +0.148 HD
ENDBRANCH   5  18
ENDBRANCH   1   9
BRANCH   3  21
ATOM     21  C   UNL     1       4.676   1.020   7.287  0.00  0.00    +0.108 C 
BRANCH  21  22
ATOM     22  C   UNL     1       5.525   1.349   8.516  0.00  0.00    +0.052 C 
BRANCH  22  23
ATOM     23  C   UNL     1       4.726   1.078   9.765  0.00  0.00    -0.040 C 
ATOM     24  C   UNL     1       4.740  -0.050  10.511  0.00  0.00    +0.000 A 
ATOM     25  C   UNL     1       5.475  -1.315  10.387  0.00  0.00    +0.030 A 
ATOM     26  C   UNL     1       5.274  -2.284  11.310  0.00  0.00    +0.042 A 
ATOM     27  C   UNL     1       4.383  -2.110  12.380  0.00  0.00    +0.022 A 
ATOM     28  C   UNL     1       3.673  -0.976  12.560  0.00  0.00    +0.027 A 
ATOM     29  C   UNL     1       3.807   0.108  11.649  0.00  0.00    +0.043 A 
ATOM     30  N   UNL     1       3.237   1.289  11.608  0.00  0.00    -0.380 N 
ATOM     31  C   UNL     1       3.751   2.016  10.442  0.00  0.00    +0.144 C 
ATOM     32 CL   UNL     1       6.141  -3.781  11.167  0.00  0.00    -0.084 Cl
ATOM     33  H   UNL     1       2.588   1.626  12.245  0.00  0.00    +0.160 HD
ENDBRANCH  22  23
ENDBRANCH  21  22
ENDBRANCH   3  21
TORSDOF 5
