REMARK  Name = ZINC09542514
REMARK  9 active torsions:
REMARK  status: ('A' for Active; 'I' for Inactive)
REMARK    1  A    between atoms: C_1  and  C_2
REMARK    2  A    between atoms: C_2  and  O_3
REMARK    3  A    between atoms: O_3  and  C_4
REMARK    4  A    between atoms: C_8  and  C_11
REMARK    5  A    between atoms: C_9  and  O_10
REMARK    6  A    between atoms: C_14  and  C_26
REMARK    7  A    between atoms: C_16  and  C_18
REMARK    8  A    between atoms: C_22  and  O_24
REMARK    9  A    between atoms: O_24  and  C_25
REMARK                            x       y       z     vdW  Elec       q    Type
REMARK                         _______ _______ _______ _____ _____    ______ ____
ROOT
ATOM      1  C   UNL     1       3.717   7.492  -0.877  0.00  0.00    -0.028 C 
ATOM      2  C   UNL     1       2.591   7.836  -1.858  0.00  0.00    +0.044 C 
ATOM      3  C   UNL     1       1.338   7.109  -1.458  0.00  0.00    +0.040 C 
ATOM      4  N   UNL     1       1.332   6.123  -0.641  0.00  0.00    -0.299 NA
ATOM      5  C   UNL     1       2.524   5.592   0.008  0.00  0.00    +0.081 C 
ATOM      6  N   UNL     1       3.740   6.027  -0.696  0.00  0.00    +0.401 N 
ATOM      7  H   UNL     1       4.565   5.765  -0.144  0.00  0.00    -0.081 HD
ATOM      8  H   UNL     1       3.784   5.571  -1.615  0.00  0.00    -0.081 HD
ENDROOT
BRANCH   3   9
ATOM      9  C   UNL     1       0.054   7.551  -2.035  0.00  0.00    -0.004 A 
ATOM     10  C   UNL     1       0.019   8.626  -2.926  0.00  0.00    +0.011 A 
ATOM     11  C   UNL     1      -1.184   9.031  -3.465  0.00  0.00    +0.020 A 
ATOM     12  C   UNL     1      -2.356   8.382  -3.117  0.00  0.00    +0.041 A 
ATOM     13  C   UNL     1      -2.329   7.319  -2.230  0.00  0.00    +0.020 A 
ATOM     14  C   UNL     1      -1.132   6.901  -1.687  0.00  0.00    +0.011 A 
ATOM     15 CL   UNL     1      -3.867   8.903  -3.796  0.00  0.00    -0.084 Cl
ENDBRANCH   3   9
BRANCH   1  20
ATOM     16  C   UNL     1       6.689   9.672  -1.741  0.00  0.00    +0.162 A 
ATOM     17  C   UNL     1       7.470   8.790  -2.469  0.00  0.00    +0.049 A 
ATOM     18  C   UNL     1       7.036   7.494  -2.679  0.00  0.00    +0.004 A 
ATOM     19  C   UNL     1       5.826   7.074  -2.160  0.00  0.00    +0.006 A 
ATOM     20  C   UNL     1       5.039   7.951  -1.437  0.00  0.00    -0.016 A 
ATOM     21  C   UNL     1       5.468   9.251  -1.223  0.00  0.00    +0.160 A 
BRANCH  21  22
ATOM     22  O   UNL     1       4.697  10.114  -0.507  0.00  0.00    -0.503 OA
ATOM     23  H   UNL     1       4.878  10.107   0.443  0.00  0.00    +0.292 HD
ENDBRANCH  21  22
BRANCH  16  24
ATOM     24  O   UNL     1       7.114  10.947  -1.532  0.00  0.00    -0.489 OA
BRANCH  24  26
ATOM     25  C   UNL     1       8.685  12.770  -1.757  0.00  0.00    +0.048 C 
ATOM     26  C   UNL     1       8.377  11.309  -2.094  0.00  0.00    +0.226 C 
ENDBRANCH  24  26
ENDBRANCH  16  24
ENDBRANCH   1  20
BRANCH   5  27
ATOM     27  C   UNL     1       2.463   4.086   0.000  0.00  0.00    -0.037 A 
ATOM     28  C   UNL     1       3.633   3.348  -0.015  0.00  0.00    +0.004 A 
ATOM     29  C   UNL     1       3.580   1.966  -0.023  0.00  0.00    +0.004 A 
ATOM     30  C   UNL     1       2.359   1.320  -0.008  0.00  0.00    +0.045 A 
ATOM     31  C   UNL     1       1.185   2.058   0.002  0.00  0.00    +0.120 A 
ATOM     32  C   UNL     1       1.240   3.445   0.009  0.00  0.00    +0.049 A 
BRANCH  31  33
ATOM     33  O   UNL     1      -0.017   1.425   0.010  0.00  0.00    -0.495 OA
ATOM     34  C   UNL     1       0.002  -0.004   0.002  0.00  0.00    +0.277 C 
ENDBRANCH  31  33
ENDBRANCH   5  27
TORSDOF 7
