REMARK  Name = ZINC06693869
REMARK  9 active torsions:
REMARK  status: ('A' for Active; 'I' for Inactive)
REMARK    1  A    between atoms: C_1  and  C_2
REMARK    2  A    between atoms: C_2  and  O_3
REMARK    3  A    between atoms: O_3  and  C_4
REMARK    4  A    between atoms: C_9  and  C_10
REMARK    5  A    between atoms: C_13  and  C_24
REMARK    6  A    between atoms: C_19  and  N_23
REMARK    7  A    between atoms: C_20  and  C_21
REMARK    8  A    between atoms: C_24  and  C_25
REMARK    9  A    between atoms: C_24  and  C_26
REMARK                            x       y       z     vdW  Elec       q    Type
REMARK                         _______ _______ _______ _____ _____    ______ ____
ROOT
ATOM      1  C   UNL     1      -0.082   5.350   0.031  0.00  0.00    +0.105 C 
ATOM      2  C   UNL     1      -0.811   5.854  -1.188  0.00  0.00    +0.050 A 
ATOM      3  C   UNL     1      -0.404   5.859  -2.516  0.00  0.00    +0.073 A 
ATOM      4  N   UNL     1      -1.364   6.394  -3.234  0.00  0.00    -0.175 NA
ATOM      5  N   UNL     1      -2.416   6.747  -2.375  0.00  0.00    -0.246 N 
ATOM      6  H   UNL     1      -3.325   7.214  -2.782  0.00  0.00    +0.192 HD
ATOM      7  C   UNL     1      -2.058   6.409  -1.125  0.00  0.00    +0.222 A 
ATOM      8  O   UNL     1      -2.737   6.554   0.040  0.00  0.00    -0.423 OA
ATOM      9  C   UNL     1      -2.050   6.389   1.188  0.00  0.00    +0.200 C 
ATOM     10  C   UNL     1      -0.816   5.840   1.254  0.00  0.00    +0.098 C 
ENDROOT
BRANCH   1  16
ATOM     11  C   UNL     1       1.155   3.169   0.008  0.00  0.00    +0.125 A 
ATOM     12  C   UNL     1       1.174   1.782   0.000  0.00  0.00    +0.046 A 
ATOM     13  C   UNL     1      -0.013   1.076   0.008  0.00  0.00    +0.004 A 
ATOM     14  C   UNL     1      -1.220   1.750   0.017  0.00  0.00    +0.001 A 
ATOM     15  C   UNL     1      -1.242   3.132   0.030  0.00  0.00    +0.008 A 
ATOM     16  C   UNL     1      -0.057   3.844   0.022  0.00  0.00    +0.007 A 
BRANCH  11  17
ATOM     17  O   UNL     1       2.321   3.867   0.001  0.00  0.00    -0.492 OA
BRANCH  17  19
ATOM     18  C   UNL     1       4.731   4.057  -0.020  0.00  0.00    +0.048 C 
ATOM     19  C   UNL     1       3.531   3.107  -0.014  0.00  0.00    +0.225 C 
ENDBRANCH  17  19
ENDBRANCH  11  17
ENDBRANCH   1  16
BRANCH   9  20
ATOM     20  N   UNL     1      -2.637   6.801   2.358  0.00  0.00    -0.328 N 
ATOM     21  H   UNL     1      -2.104   6.681   3.313  0.00  0.00    +0.145 HD
ATOM     22  H   UNL     1      -3.640   7.252   2.341  0.00  0.00    +0.145 HD
ENDBRANCH   9  20
BRANCH   3  23
ATOM     23  C   UNL     1       0.910   5.340  -3.041  0.00  0.00    +0.034 C 
ATOM     24  C   UNL     1       0.650   4.219  -4.049  0.00  0.00    +0.014 C 
ATOM     25  C   UNL     1       1.668   6.478  -3.728  0.00  0.00    +0.014 C 
ENDBRANCH   3  23
BRANCH  10  26
ATOM     26  C   UNL     1      -0.182   5.720   2.532  0.00  0.00    +0.101 C 
ATOM     27  N   UNL     1       0.320   5.625   3.547  0.00  0.00    -0.191 NA
ENDBRANCH  10  26
TORSDOF 6
