REMARK  Name = ZINC03669161
REMARK  8 active torsions:
REMARK  status: ('A' for Active; 'I' for Inactive)
REMARK    1  A    between atoms: C_1  and  O_2
REMARK    2  A    between atoms: O_2  and  C_3
REMARK    3  A    between atoms: C_3  and  C_5
REMARK    4  A    between atoms: C_3  and  C_11
REMARK    5  A    between atoms: N_13  and  N_14
REMARK    6  A    between atoms: N_14  and  C_15
REMARK    7  A    between atoms: C_15  and  N_17
REMARK    8  A    between atoms: C_18  and  C_20
REMARK                            x       y       z     vdW  Elec       q    Type
REMARK                         _______ _______ _______ _____ _____    ______ ____
ROOT
ATOM      1  C   UNL     1       3.349  -4.465  -2.192  0.00  0.00    +0.153 C 
ATOM      2  S   UNL     1       4.050  -5.967  -1.763  0.00  0.00    -0.017 S 
ENDROOT
BRANCH   1   3
ATOM      3  N   UNL     1       3.553  -3.954  -3.423  0.00  0.00    -0.262 N 
ATOM      4  C   UNL     1       4.307  -4.626  -4.315  0.00  0.00    +0.256 C 
ATOM      5  O   UNL     1       4.804  -5.693  -4.010  0.00  0.00    -0.270 OA
ATOM      6  H   UNL     1       3.156  -3.103  -3.666  0.00  0.00    +0.157 HD
BRANCH   4   7
ATOM      7  C   UNL     1       4.529  -4.068  -5.659  0.00  0.00    +0.122 A 
ATOM      8  C   UNL     1       5.297  -4.740  -6.602  0.00  0.00    +0.031 A 
ATOM      9  C   UNL     1       5.492  -4.124  -7.864  0.00  0.00    +0.019 A 
ATOM     10  C   UNL     1       6.084  -4.835  -8.919  0.00  0.00    +0.026 A 
ATOM     11  C   UNL     1       6.227  -4.242 -10.141  0.00  0.00    +0.019 A 
ATOM     12  C   UNL     1       5.798  -2.937 -10.347  0.00  0.00    +0.019 A 
ATOM     13  C   UNL     1       5.231  -2.213  -9.319  0.00  0.00    +0.048 A 
ATOM     14  C   UNL     1       5.083  -2.793  -8.066  0.00  0.00    +0.139 A 
ATOM     15  O   UNL     1       4.567  -2.078  -7.037  0.00  0.00    -0.422 OA
ATOM     16  C   UNL     1       3.941  -2.777  -6.060  0.00  0.00    +0.350 A 
ATOM     17  O   UNL     1       2.931  -2.355  -5.529  0.00  0.00    -0.244 OA
ATOM     18 BR   UNL     1       7.016  -5.205 -11.564  0.00  0.00    -0.050 Br
ENDBRANCH   4   7
ENDBRANCH   1   3
BRANCH   1  19
ATOM     19  N   UNL     1       2.595  -3.793  -1.300  0.00  0.00    -0.245 N 
ATOM     20  H   UNL     1       2.449  -4.161  -0.415  0.00  0.00    +0.172 HD
BRANCH  19  23
ATOM     21  C   UNL     1       1.268  -1.893  -0.760  0.00  0.00    +0.262 C 
ATOM     22  O   UNL     1       1.085  -2.352   0.348  0.00  0.00    -0.271 OA
ATOM     23  N   UNL     1       2.022  -2.564  -1.652  0.00  0.00    -0.233 N 
ATOM     24  H   UNL     1       2.169  -2.197  -2.538  0.00  0.00    +0.173 HD
BRANCH  21  25
ATOM     25  C   UNL     1       0.652  -0.570  -1.138  0.00  0.00    +0.235 C 
BRANCH  25  26
ATOM     26  C   UNL     1      -0.357  -0.782  -2.237  0.00  0.00    -0.010 A 
ATOM     27  C   UNL     1      -1.655  -1.141  -1.925  0.00  0.00    +0.006 A 
ATOM     28  C   UNL     1      -2.580  -1.335  -2.933  0.00  0.00    +0.000 A 
ATOM     29  C   UNL     1      -2.208  -1.171  -4.254  0.00  0.00    +0.000 A 
ATOM     30  C   UNL     1      -0.910  -0.811  -4.567  0.00  0.00    +0.000 A 
ATOM     31  C   UNL     1       0.014  -0.612  -3.558  0.00  0.00    +0.006 A 
ENDBRANCH  25  26
BRANCH  25  33
ATOM     32  C   UNL     1      -0.017   1.425   0.010  0.00  0.00    +0.195 C 
ATOM     33  O   UNL     1       0.002  -0.004   0.002  0.00  0.00    -0.366 OA
ENDBRANCH  25  33
ENDBRANCH  21  25
ENDBRANCH  19  23
ENDBRANCH   1  19
TORSDOF 7
