REMARK  Name = ZINC21320489
REMARK  11 active torsions:
REMARK  status: ('A' for Active; 'I' for Inactive)
REMARK    1  A    between atoms: C_1  and  C_2
REMARK    2  A    between atoms: C_5  and  N_9
REMARK    3  A    between atoms: C_6  and  C_8
REMARK    4  A    between atoms: C_10  and  C_12
REMARK    5  A    between atoms: C_12  and  S_13
REMARK    6  A    between atoms: S_13  and  C_14
REMARK    7  A    between atoms: N_18  and  N_19
REMARK    8  A    between atoms: N_20  and  N_21
REMARK    9  A    between atoms: C_22  and  C_23
REMARK   10  A    between atoms: C_28  and  O_29
REMARK   11  A    between atoms: O_29  and  C_30
REMARK                            x       y       z     vdW  Elec       q    Type
REMARK                         _______ _______ _______ _____ _____    ______ ____
ROOT
ATOM      1  C   UNL     1      -6.504   1.947  -0.417  0.00  0.00    +0.210 A 
ATOM      2  N   UNL     1      -6.529   3.259  -0.405  0.00  0.00    -0.119 NA
ATOM      3  N   UNL     1      -7.864   3.668  -0.517  0.00  0.00    -0.109 NA
ATOM      4  C   UNL     1      -8.612   2.594  -0.586  0.00  0.00    +0.254 A 
ATOM      5  N   UNL     1      -7.791   1.502  -0.526  0.00  0.00    -0.211 N 
ATOM      6  N   UNL     1      -9.995   2.569  -0.700  0.00  0.00    -0.204 N 
ATOM      7  H   UNL     1     -10.525   1.607  -0.749  0.00  0.00    +0.177 HD
ENDROOT
BRANCH   5   8
ATOM      8  N   UNL     1      -8.188   0.196  -0.568  0.00  0.00    -0.294 N 
ATOM      9  H   UNL     1      -9.256  -0.052  -0.658  0.00  0.00    +0.163 HD
ATOM     10  H   UNL     1      -7.439  -0.608  -0.512  0.00  0.00    +0.163 HD
ENDBRANCH   5   8
BRANCH   6  11
ATOM     11  N   UNL     1     -10.715   3.770  -0.751  0.00  0.00    -0.187 NA
ATOM     12  C   UNL     1     -12.009   3.746  -0.857  0.00  0.00    +0.142 C 
BRANCH  12  13
ATOM     13  C   UNL     1     -12.767   5.009  -0.911  0.00  0.00    +0.037 A 
ATOM     14  C   UNL     1     -14.158   4.989  -1.031  0.00  0.00    +0.028 A 
ATOM     15  C   UNL     1     -14.862   6.175  -1.075  0.00  0.00    +0.019 A 
ATOM     16  C   UNL     1     -14.193   7.386  -1.012  0.00  0.00    +0.019 A 
ATOM     17  C   UNL     1     -12.816   7.419  -0.899  0.00  0.00    +0.047 A 
ATOM     18  C   UNL     1     -12.095   6.237  -0.847  0.00  0.00    +0.129 A 
ATOM     19 BR   UNL     1     -16.747   6.147  -1.228  0.00  0.00    -0.050 Br
BRANCH  18  20
ATOM     20  O   UNL     1     -10.741   6.269  -0.737  0.00  0.00    -0.494 OA
ATOM     21  C   UNL     1     -10.125   7.557  -0.678  0.00  0.00    +0.277 C 
ENDBRANCH  18  20
ENDBRANCH  12  13
ENDBRANCH   6  11
BRANCH   1  22
ATOM     22  S   UNL     1      -5.065   0.937  -0.304  0.00  0.00    -0.075 S 
BRANCH  22  23
ATOM     23  C   UNL     1      -3.702   2.128  -0.184  0.00  0.00    +0.173 C 
BRANCH  23  25
ATOM     24  N   UNL     1      -1.237   2.069   0.019  0.00  0.00    -0.285 N 
ATOM     25  C   UNL     1      -2.394   1.385  -0.081  0.00  0.00    +0.227 C 
ATOM     26  O   UNL     1      -2.383   0.173  -0.088  0.00  0.00    -0.275 OA
ATOM     27  H   UNL     1      -1.252   3.166   0.100  0.00  0.00    +0.155 HD
BRANCH  24  32
ATOM     28  C   UNL     1       3.704  -0.717   0.009  0.00  0.00    +0.044 C 
ATOM     29  C   UNL     1       2.392   0.024   0.013  0.00  0.00    -0.050 A 
ATOM     30  C   UNL     1       1.282  -0.542   0.613  0.00  0.00    +0.005 A 
ATOM     31  C   UNL     1       0.078   0.134   0.619  0.00  0.00    +0.024 A 
ATOM     32  C   UNL     1      -0.017   1.384   0.021  0.00  0.00    +0.036 A 
ATOM     33  C   UNL     1       1.099   1.949  -0.581  0.00  0.00    -0.029 A 
ATOM     34  C   UNL     1       2.300   1.267  -0.584  0.00  0.00    +0.008 A 
ATOM     35  C   UNL     1       1.000   3.305  -1.231  0.00  0.00    +0.045 C 
ENDBRANCH  24  32
ENDBRANCH  23  25
ENDBRANCH  22  23
ENDBRANCH   1  22
TORSDOF 8
