REMARK  Name = ZINC39691318
REMARK  9 active torsions:
REMARK  status: ('A' for Active; 'I' for Inactive)
REMARK    1  A    between atoms: C_1  and  O_2
REMARK    2  A    between atoms: O_2  and  C_3
REMARK    3  A    between atoms: C_7  and  C_9
REMARK    4  A    between atoms: C_13  and  C_22
REMARK    5  A    between atoms: N_24  and  C_25
REMARK    6  A    between atoms: C_25  and  C_26
REMARK    7  A    between atoms: C_26  and  N_27
REMARK    8  A    between atoms: C_28  and  C_30
REMARK    9  A    between atoms: C_30  and  C_31
REMARK                            x       y       z     vdW  Elec       q    Type
REMARK                         _______ _______ _______ _____ _____    ______ ____
ROOT
ATOM      1  C   UNL     1       1.397  -4.100   2.225  0.00  0.00    +0.247 C 
ATOM      2  O   UNL     1       0.803  -4.771   1.403  0.00  0.00    -0.270 OA
ATOM      3  N   UNL     1       2.104  -4.702   3.202  0.00  0.00    -0.296 N 
ATOM      4  C   UNL     1       2.780  -4.066   4.357  0.00  0.00    +0.121 C 
ATOM      5  C   UNL     1       2.526  -5.030   5.537  0.00  0.00    +0.100 C 
ATOM      6  C   UNL     1       2.266  -6.395   4.880  0.00  0.00    -0.004 C 
ATOM      7  C   UNL     1       2.374  -6.150   3.368  0.00  0.00    +0.115 C 
ATOM      8  C   UNL     1       0.866  -6.891   5.229  0.00  0.00    -0.010 C 
ATOM      9  C   UNL     1       0.652  -8.276   4.611  0.00  0.00    -0.082 C 
ATOM     10  N   UNL     1       1.665  -9.206   5.126  0.00  0.00    +0.379 N 
ATOM     11  C   UNL     1       3.003  -8.771   4.707  0.00  0.00    -0.082 C 
ATOM     12  C   UNL     1       3.317  -7.407   5.329  0.00  0.00    -0.010 C 
ATOM     13  H   UNL     1       1.620  -9.226   6.134  0.00  0.00    -0.086 HD
ATOM     14  H   UNL     1       1.485 -10.131   4.765  0.00  0.00    -0.086 HD
ENDROOT
BRANCH   1  19
ATOM     15  C   UNL     1       2.309  -0.477   2.642  0.00  0.00    +0.121 A 
ATOM     16  C   UNL     1       1.237   0.143   2.013  0.00  0.00    +0.045 A 
ATOM     17  C   UNL     1       0.224  -0.615   1.456  0.00  0.00    +0.004 A 
ATOM     18  C   UNL     1       0.270  -1.993   1.522  0.00  0.00    +0.013 A 
ATOM     19  C   UNL     1       1.344  -2.625   2.152  0.00  0.00    +0.040 A 
ATOM     20  C   UNL     1       2.369  -1.859   2.708  0.00  0.00    +0.058 A 
BRANCH  15  22
ATOM     21  C   UNL     1       3.176   1.692   3.082  0.00  0.00    +0.277 C 
ATOM     22  O   UNL     1       3.303   0.273   3.187  0.00  0.00    -0.495 OA
ENDBRANCH  15  22
ENDBRANCH   1  19
BRANCH   5  23
ATOM     23  C   UNL     1       3.739  -5.097   6.430  0.00  0.00    +0.218 C 
ATOM     24  O   UNL     1       4.837  -4.845   5.981  0.00  0.00    -0.275 OA
ATOM     25  N   UNL     1       3.603  -5.437   7.727  0.00  0.00    -0.314 N 
ATOM     26  H   UNL     1       2.725  -5.639   8.086  0.00  0.00    +0.149 HD
BRANCH  25  27
ATOM     27  C   UNL     1       4.782  -5.503   8.594  0.00  0.00    +0.123 C 
BRANCH  27  28
ATOM     28  C   UNL     1       4.354  -5.909  10.006  0.00  0.00    +0.123 C 
BRANCH  28  29
ATOM     29  N   UNL     1       5.533  -5.974  10.874  0.00  0.00    -0.314 N 
ATOM     30  C   UNL     1       5.397  -6.315  12.171  0.00  0.00    +0.217 C 
ATOM     31  O   UNL     1       4.299  -6.567  12.619  0.00  0.00    -0.275 OA
ATOM     32  H   UNL     1       6.411  -5.772  10.515  0.00  0.00    +0.149 HD
BRANCH  30  33
ATOM     33  C   UNL     1       6.609  -6.382  13.063  0.00  0.00    +0.131 C 
BRANCH  33  34
ATOM     34  C   UNL     1       6.188  -6.782  14.453  0.00  0.00    -0.031 A 
ATOM     35  C   UNL     1       5.945  -5.830  15.395  0.00  0.00    +0.005 A 
ATOM     36  C   UNL     1       5.554  -6.181  16.686  0.00  0.00    +0.001 A 
ATOM     37  C   UNL     1       5.406  -7.486  17.043  0.00  0.00    +0.008 A 
ATOM     38  C   UNL     1       5.648  -8.497  16.098  0.00  0.00    -0.018 A 
ATOM     39  C   UNL     1       6.039  -8.140  14.783  0.00  0.00    -0.014 A 
ATOM     40  C   UNL     1       6.276  -9.151  13.836  0.00  0.00    +0.009 A 
ATOM     41  C   UNL     1       6.121 -10.456  14.191  0.00  0.00    +0.001 A 
ATOM     42  C   UNL     1       5.730 -10.807  15.482  0.00  0.00    +0.001 A 
ATOM     43  C   UNL     1       5.505  -9.855  16.429  0.00  0.00    +0.008 A 
ENDBRANCH  33  34
ENDBRANCH  30  33
ENDBRANCH  28  29
ENDBRANCH  27  28
ENDBRANCH  25  27
ENDBRANCH   5  23
TORSDOF 8
