REMARK  Name = ZINC39563704
REMARK  13 active torsions:
REMARK  status: ('A' for Active; 'I' for Inactive)
REMARK    1  A    between atoms: C_1  and  C_2
REMARK    2  A    between atoms: C_2  and  C_4
REMARK    3  A    between atoms: C_2  and  N_34
REMARK    4  A    between atoms: C_9  and  N_25
REMARK    5  A    between atoms: C_12  and  C_14
REMARK    6  A    between atoms: N_16  and  C_17
REMARK    7  A    between atoms: C_17  and  C_19
REMARK    8  A    between atoms: C_17  and  C_22
REMARK    9  A    between atoms: C_19  and  C_20
REMARK   10  A    between atoms: C_19  and  C_21
REMARK   11  A    between atoms: C_26  and  C_28
REMARK   12  A    between atoms: C_28  and  C_29
REMARK   13  A    between atoms: N_34  and  C_35
REMARK                            x       y       z     vdW  Elec       q    Type
REMARK                         _______ _______ _______ _____ _____    ______ ____
ROOT
ATOM      1  C   UNL     1       1.400   0.519   0.593  0.00  0.00    +0.202 C 
ATOM      2  O   UNL     1       0.700  -0.243   1.226  0.00  0.00    -0.277 OA
ATOM      3  N   UNL     1       2.672   0.743   0.977  0.00  0.00    -0.291 N 
ATOM      4  C   UNL     1       3.493   1.754   0.297  0.00  0.00    +0.110 C 
ATOM      5  C   UNL     1       4.798   1.100  -0.165  0.00  0.00    +0.041 C 
ATOM      6  C   UNL     1       5.483   0.436   1.032  0.00  0.00    +0.077 C 
ATOM      7  C   UNL     1       4.572  -0.654   1.603  0.00  0.00    +0.054 C 
ATOM      8  C   UNL     1       3.262  -0.015   2.089  0.00  0.00    +0.163 C 
ENDROOT
BRANCH   8   9
ATOM      9  C   UNL     1       3.545   0.914   3.241  0.00  0.00    +0.234 C 
ATOM     10  O   UNL     1       3.632   2.109   3.048  0.00  0.00    -0.274 OA
ATOM     11  N   UNL     1       3.701   0.419   4.484  0.00  0.00    -0.302 N 
ATOM     12  H   UNL     1       3.632  -0.536   4.638  0.00  0.00    +0.150 HD
BRANCH  11  13
ATOM     13  C   UNL     1       3.977   1.323   5.604  0.00  0.00    +0.161 C 
BRANCH  13  14
ATOM     14  C   UNL     1       2.678   1.868   6.140  0.00  0.00    +0.231 C 
ATOM     15  O   UNL     1       1.637   1.291   5.909  0.00  0.00    -0.274 OA
ATOM     16  N   UNL     1       2.674   2.996   6.877  0.00  0.00    -0.328 N 
ATOM     17  H   UNL     1       3.495   3.497   7.001  0.00  0.00    +0.145 HD
ATOM     18  H   UNL     1       1.850   3.307   7.283  0.00  0.00    +0.145 HD
ENDBRANCH  13  14
BRANCH  13  19
ATOM     19  C   UNL     1       4.704   0.557   6.710  0.00  0.00    +0.012 C 
ATOM     20  C   UNL     1       3.865  -0.651   7.132  0.00  0.00    +0.009 C 
ATOM     21  C   UNL     1       6.062   0.078   6.192  0.00  0.00    +0.009 C 
ENDBRANCH  13  19
ENDBRANCH  11  13
ENDBRANCH   8   9
BRANCH   6  22
ATOM     22  N   UNL     1       6.748  -0.163   0.601  0.00  0.00    -0.312 N 
ATOM     23  C   UNL     1       7.865   0.590   0.544  0.00  0.00    +0.218 C 
ATOM     24  O   UNL     1       7.822   1.762   0.850  0.00  0.00    -0.275 OA
ATOM     25  H   UNL     1       6.783  -1.101   0.356  0.00  0.00    +0.149 HD
BRANCH  23  26
ATOM     26  C   UNL     1       9.167  -0.026   0.100  0.00  0.00    +0.138 C 
BRANCH  26  27
ATOM     27  C   UNL     1      10.252   1.020   0.124  0.00  0.00    -0.001 A 
ATOM     28  C   UNL     1      11.091   1.356   1.134  0.00  0.00    +0.011 A 
ATOM     29  C   UNL     1      12.020   2.359   0.928  0.00  0.00    +0.008 A 
ATOM     30  C   UNL     1      12.064   2.976  -0.277  0.00  0.00    +0.045 A 
ATOM     31  S   UNL     1      10.770   2.132  -1.172  0.00  0.00    -0.101 S 
ENDBRANCH  26  27
ENDBRANCH  23  26
ENDBRANCH   6  22
BRANCH   1  33
ATOM     32  C   UNL     1       0.391   2.625  -0.241  0.00  0.00    -0.004 C 
ATOM     33  C   UNL     1       0.847   1.216  -0.624  0.00  0.00    +0.013 C 
BRANCH  33  34
ATOM     34  N   UNL     1      -0.297   0.456  -1.146  0.00  0.00    +0.385 N 
ATOM     35  C   UNL     1      -0.761   1.067  -2.398  0.00  0.00    -0.099 C 
ATOM     36  H   UNL     1      -0.016  -0.497  -1.321  0.00  0.00    -0.085 HD
ATOM     37  H   UNL     1      -1.045   0.467  -0.469  0.00  0.00    -0.085 HD
ENDBRANCH  33  34
ENDBRANCH   1  33
TORSDOF 9
