REMARK  Name = ZINC37523471
REMARK  15 active torsions:
REMARK  status: ('A' for Active; 'I' for Inactive)
REMARK    1  A    between atoms: C_1  and  O_2
REMARK    2  A    between atoms: O_2  and  C_3
REMARK    3  A    between atoms: C_6  and  C_13
REMARK    4  A    between atoms: C_7  and  O_11
REMARK    5  A    between atoms: C_8  and  O_9
REMARK    6  A    between atoms: O_9  and  C_10
REMARK    7  A    between atoms: O_11  and  C_12
REMARK    8  A    between atoms: N_23  and  C_24
REMARK    9  A    between atoms: C_24  and  C_25
REMARK   10  A    between atoms: C_26  and  O_35
REMARK   11  A    between atoms: C_28  and  O_33
REMARK   12  A    between atoms: C_30  and  O_31
REMARK   13  A    between atoms: O_31  and  C_32
REMARK   14  A    between atoms: O_33  and  C_34
REMARK   15  A    between atoms: O_35  and  C_36
REMARK                            x       y       z     vdW  Elec       q    Type
REMARK                         _______ _______ _______ _____ _____    ______ ____
ROOT
ATOM      1  C   UNL     1      -5.029  -2.719   0.162  0.00  0.00    +0.014 C 
ATOM      2  C   UNL     1      -5.366  -3.101  -1.259  0.00  0.00    +0.010 A 
ATOM      3  C   UNL     1      -4.499  -3.534  -2.194  0.00  0.00    +0.021 A 
ATOM      4  C   UNL     1      -5.235  -3.788  -3.368  0.00  0.00    +0.019 A 
ATOM      5  C   UNL     1      -6.526  -3.497  -3.107  0.00  0.00    +0.086 A 
ATOM      6  N   UNL     1      -6.612  -3.066  -1.818  0.00  0.00    -0.352 N 
ATOM      7  C   UNL     1      -7.828  -2.619  -1.128  0.00  0.00    +0.119 C 
ATOM      8  C   UNL     1      -7.882  -3.272   0.257  0.00  0.00    +0.003 C 
ATOM      9  C   UNL     1      -7.142  -2.402   1.265  0.00  0.00    -0.075 C 
ATOM     10  N   UNL     1      -6.001  -1.727   0.642  0.00  0.00    +0.391 N 
ATOM     11  H   UNL     1      -6.325  -1.172  -0.136  0.00  0.00    -0.080 HD
ENDROOT
BRANCH   1  15
ATOM     12  C   UNL     1      -1.095  -1.042   0.294  0.00  0.00    +0.165 A 
ATOM     13  C   UNL     1      -2.102  -0.404  -0.414  0.00  0.00    +0.050 A 
ATOM     14  C   UNL     1      -3.372  -0.948  -0.455  0.00  0.00    +0.010 A 
ATOM     15  C   UNL     1      -3.643  -2.130   0.209  0.00  0.00    -0.010 A 
ATOM     16  C   UNL     1      -2.641  -2.774   0.919  0.00  0.00    +0.167 A 
ATOM     17  C   UNL     1      -1.362  -2.233   0.958  0.00  0.00    +0.204 A 
BRANCH  12  19
ATOM     18  C   UNL     1       0.356   0.722  -0.371  0.00  0.00    +0.277 C 
ATOM     19  O   UNL     1       0.154  -0.505   0.334  0.00  0.00    -0.491 OA
ENDBRANCH  12  19
BRANCH  17  20
ATOM     20  O   UNL     1      -0.374  -2.865   1.649  0.00  0.00    -0.488 OA
ATOM     21  C   UNL     1      -0.218  -2.512   3.025  0.00  0.00    +0.277 C 
ENDBRANCH  17  20
BRANCH  16  22
ATOM     22  O   UNL     1      -2.909  -3.936   1.573  0.00  0.00    -0.491 OA
ATOM     23  C   UNL     1      -2.613  -5.152   0.883  0.00  0.00    +0.277 C 
ENDBRANCH  16  22
ENDBRANCH   1  15
BRANCH  10  24
ATOM     24  C   UNL     1      -5.355  -0.850   1.627  0.00  0.00    -0.034 C 
BRANCH  24  25
ATOM     25  C   UNL     1      -6.324   0.220   2.059  0.00  0.00    +0.020 A 
ATOM     26  C   UNL     1      -6.386   1.420   1.368  0.00  0.00    +0.128 A 
ATOM     27  C   UNL     1      -7.278   2.405   1.765  0.00  0.00    +0.091 A 
ATOM     28  C   UNL     1      -8.109   2.189   2.854  0.00  0.00    +0.127 A 
ATOM     29  C   UNL     1      -8.048   0.988   3.545  0.00  0.00    +0.091 A 
ATOM     30  C   UNL     1      -7.159   0.002   3.145  0.00  0.00    +0.128 A 
BRANCH  30  31
ATOM     31  O   UNL     1      -7.103  -1.177   3.819  0.00  0.00    -0.495 OA
ATOM     32  C   UNL     1      -7.992  -1.333   4.927  0.00  0.00    +0.277 C 
ENDBRANCH  30  31
BRANCH  28  33
ATOM     33  O   UNL     1      -8.983   3.154   3.244  0.00  0.00    -0.495 OA
ATOM     34  C   UNL     1      -9.808   2.864   4.373  0.00  0.00    +0.277 C 
ENDBRANCH  28  33
BRANCH  26  35
ATOM     35  O   UNL     1      -5.571   1.632   0.301  0.00  0.00    -0.495 OA
ATOM     36  C   UNL     1      -5.688   2.891  -0.365  0.00  0.00    +0.277 C 
ENDBRANCH  26  35
ENDBRANCH  24  25
ENDBRANCH  10  24
TORSDOF 9
