REMARK  Name = ZINC63771897
REMARK  10 active torsions:
REMARK  status: ('A' for Active; 'I' for Inactive)
REMARK    1  A    between atoms: C_1  and  N_2
REMARK    2  A    between atoms: N_2  and  C_3
REMARK    3  A    between atoms: N_2  and  C_25
REMARK    4  A    between atoms: C_3  and  C_4
REMARK    5  A    between atoms: C_4  and  N_5
REMARK    6  A    between atoms: N_5  and  C_6
REMARK    7  A    between atoms: C_7  and  C_9
REMARK    8  A    between atoms: C_9  and  C_10
REMARK    9  A    between atoms: C_9  and  N_21
REMARK   10  A    between atoms: C_10  and  C_11
REMARK                            x       y       z     vdW  Elec       q    Type
REMARK                         _______ _______ _______ _____ _____    ______ ____
ROOT
ATOM      1  C   UNL     1       1.102  -2.316   5.343  0.00  0.00    +0.165 C 
ENDROOT
BRANCH   1   2
ATOM      2  N   UNL     1       0.344  -3.414   5.949  0.00  0.00    -0.288 N 
ATOM      3  C   UNL     1       0.093  -4.532   5.240  0.00  0.00    +0.298 C 
ATOM      4  O   UNL     1       0.495  -4.630   4.097  0.00  0.00    -0.253 OA
ATOM      5  N   UNL     1      -0.604  -5.541   5.798  0.00  0.00    -0.313 N 
ATOM      6  H   UNL     1       0.023  -3.335   6.862  0.00  0.00    +0.151 HD
ATOM      7  H   UNL     1      -0.925  -5.463   6.710  0.00  0.00    +0.146 HD
ATOM      8  H   UNL     1      -0.785  -6.346   5.288  0.00  0.00    +0.146 HD
ENDBRANCH   1   2
BRANCH   1  11
ATOM      9  N   UNL     1       0.637  -0.589   3.635  0.00  0.00    -0.305 N 
ATOM     10  C   UNL     1       1.633   0.261   4.292  0.00  0.00    +0.132 C 
ATOM     11  C   UNL     1       0.373  -1.817   4.122  0.00  0.00    +0.236 C 
ATOM     12  O   UNL     1      -0.452  -2.521   3.578  0.00  0.00    -0.274 OA
BRANCH   9  13
ATOM     13  C   UNL     1      -0.071  -0.103   2.448  0.00  0.00    +0.089 C 
BRANCH  13  14
ATOM     14  C   UNL     1       0.713  -0.491   1.192  0.00  0.00    -0.060 C 
BRANCH  14  16
ATOM     15  C   UNL     1      -0.018   1.465   0.010  0.00  0.00    -0.096 C 
ATOM     16  N   UNL     1       0.002  -0.004   0.002  0.00  0.00    +0.381 N 
ATOM     17  H   UNL     1      -0.945  -0.353   0.009  0.00  0.00    -0.082 HD
BRANCH  16  18
ATOM     18  C   UNL     1       0.690  -0.478  -1.207  0.00  0.00    -0.069 C 
ATOM     19  C   UNL     1       0.710  -2.008  -1.215  0.00  0.00    -0.015 C 
ATOM     20  C   UNL     1       1.427  -2.501  -2.474  0.00  0.00    -0.002 C 
ATOM     21  C   UNL     1       0.687  -1.994  -3.713  0.00  0.00    -0.000 C 
ATOM     22  C   UNL     1       0.666  -0.464  -3.705  0.00  0.00    -0.002 C 
ATOM     23  C   UNL     1      -0.050   0.029  -2.446  0.00  0.00    -0.015 C 
ENDBRANCH  16  18
ENDBRANCH  14  16
ENDBRANCH  13  14
ENDBRANCH   9  13
ENDBRANCH   1  11
BRANCH   1  24
ATOM     24  C   UNL     1       2.490  -2.817   4.939  0.00  0.00    +0.069 C 
BRANCH  24  25
ATOM     25  C   UNL     1       3.264  -3.202   6.173  0.00  0.00    -0.020 A 
ATOM     26  C   UNL     1       4.126  -2.426   6.849  0.00  0.00    +0.087 A 
ATOM     27  N   UNL     1       4.636  -3.115   7.916  0.00  0.00    -0.360 N 
ATOM     28  H   UNL     1       5.279  -2.762   8.551  0.00  0.00    +0.165 HD
ATOM     29  C   UNL     1       4.102  -4.383   7.953  0.00  0.00    +0.047 A 
ATOM     30  C   UNL     1       3.214  -4.491   6.867  0.00  0.00    +0.003 A 
ATOM     31  C   UNL     1       2.514  -5.681   6.655  0.00  0.00    +0.010 A 
ATOM     32  C   UNL     1       2.693  -6.734   7.507  0.00  0.00    +0.001 A 
ATOM     33  C   UNL     1       3.565  -6.631   8.582  0.00  0.00    +0.002 A 
ATOM     34  C   UNL     1       4.272  -5.470   8.805  0.00  0.00    +0.026 A 
ENDBRANCH  24  25
ENDBRANCH   1  24
TORSDOF 8
