REMARK  Name = ZINC23259825
REMARK  11 active torsions:
REMARK  status: ('A' for Active; 'I' for Inactive)
REMARK    1  A    between atoms: C_1  and  C_2
REMARK    2  A    between atoms: C_5  and  N_9
REMARK    3  A    between atoms: C_6  and  C_8
REMARK    4  A    between atoms: C_13  and  C_15
REMARK    5  A    between atoms: C_15  and  N_16
REMARK    6  A    between atoms: N_16  and  C_17
REMARK    7  A    between atoms: N_16  and  C_18
REMARK    8  A    between atoms: C_18  and  C_20
REMARK    9  A    between atoms: C_18  and  C_21
REMARK   10  A    between atoms: C_24  and  S_27
REMARK   11  A    between atoms: S_27  and  N_30
REMARK                            x       y       z     vdW  Elec       q    Type
REMARK                         _______ _______ _______ _____ _____    ______ ____
ROOT
ATOM      1  C   UNL     1      -3.044   3.923   7.149  0.00  0.00    +0.019 C 
ENDROOT
BRANCH   1   6
ATOM      2  N   UNL     1      -2.171   5.463  11.619  0.00  0.00    -0.269 N 
ATOM      3  C   UNL     1      -1.736   5.266  10.359  0.00  0.00    +0.310 C 
ATOM      4  O   UNL     1      -0.602   5.576  10.052  0.00  0.00    -0.252 OA
ATOM      5  N   UNL     1      -2.559   4.724   9.439  0.00  0.00    -0.241 N 
ATOM      6  C   UNL     1      -2.124   4.528   8.178  0.00  0.00    +0.204 C 
ATOM      7  O   UNL     1      -0.992   4.838   7.872  0.00  0.00    -0.277 OA
ATOM      8  H   UNL     1      -3.224   5.270  11.874  0.00  0.00    +0.156 HD
ATOM      9  H   UNL     1      -3.586   4.443   9.716  0.00  0.00    +0.159 HD
BRANCH   2  14
ATOM     10  C   UNL     1       1.427   7.283  15.610  0.00  0.00    +0.044 C 
ATOM     11  C   UNL     1       0.471   6.799  14.550  0.00  0.00    -0.050 A 
ATOM     12  C   UNL     1       0.952   6.120  13.445  0.00  0.00    +0.005 A 
ATOM     13  C   UNL     1       0.079   5.675  12.472  0.00  0.00    +0.024 A 
ATOM     14  C   UNL     1      -1.284   5.911  12.604  0.00  0.00    +0.038 A 
ATOM     15  C   UNL     1      -1.763   6.598  13.711  0.00  0.00    -0.029 A 
ATOM     16  C   UNL     1      -0.885   7.035  14.684  0.00  0.00    +0.008 A 
ATOM     17  C   UNL     1      -3.240   6.862  13.855  0.00  0.00    +0.045 C 
ENDBRANCH   2  14
ENDBRANCH   1   6
BRANCH   1  18
ATOM     18  N   UNL     1      -2.338   3.814   5.865  0.00  0.00    +0.388 N 
ATOM     19  C   UNL     1      -2.030   5.142   5.320  0.00  0.00    -0.095 C 
ATOM     20  H   UNL     1      -1.386   3.293   6.046  0.00  0.00    -0.081 HD
BRANCH  18  21
ATOM     21  C   UNL     1      -3.114   3.017   4.905  0.00  0.00    -0.041 C 
ATOM     22  C   UNL     1      -2.262   2.745   3.663  0.00  0.00    -0.008 C 
BRANCH  21  23
ATOM     23  C   UNL     1      -3.508   1.709   5.540  0.00  0.00    -0.061 A 
ATOM     24  C   UNL     1      -4.801   1.237   5.406  0.00  0.00    +0.004 A 
ATOM     25  C   UNL     1      -5.162   0.037   5.988  0.00  0.00    +0.029 A 
ATOM     26  C   UNL     1      -4.232  -0.692   6.705  0.00  0.00    +0.105 A 
ATOM     27  C   UNL     1      -2.941  -0.218   6.844  0.00  0.00    +0.029 A 
ATOM     28  C   UNL     1      -2.578   0.980   6.257  0.00  0.00    +0.004 A 
BRANCH  26  29
ATOM     29  S   UNL     1      -4.693  -2.222   7.447  0.00  0.00    +0.056 S 
ATOM     30  O   UNL     1      -6.101  -2.174   7.635  0.00  0.00    -0.153 OA
ATOM     31  O   UNL     1      -3.788  -2.442   8.521  0.00  0.00    -0.153 OA
BRANCH  29  32
ATOM     32  N   UNL     1      -4.405  -3.413   6.334  0.00  0.00    -0.204 NA
ATOM     33  H   UNL     1      -4.681  -4.389   6.761  0.00  0.00    +0.144 HD
ATOM     34  H   UNL     1      -3.337  -3.418   6.070  0.00  0.00    +0.144 HD
ENDBRANCH  29  32
ENDBRANCH  26  29
ENDBRANCH  21  23
ENDBRANCH  18  21
ENDBRANCH   1  18
TORSDOF 7
