REMARK  Name = ZINC52901978
REMARK  4 active torsions:
REMARK  status: ('A' for Active; 'I' for Inactive)
REMARK    1  A    between atoms: C_3  and  C_6
REMARK    2  A    between atoms: C_7  and  C_12
REMARK    3  A    between atoms: C_10  and  N_11
REMARK    4  A    between atoms: C_17  and  N_18
REMARK                            x       y       z     vdW  Elec       q    Type
REMARK                         _______ _______ _______ _____ _____    ______ ____
ROOT
ATOM      1  C   UNL     1       3.850   1.323   0.095  0.00  0.00    +0.077 A 
ATOM      2  C   UNL     1       4.687   1.391  -1.123  0.00  0.00    +0.126 A 
ATOM      3  N   UNL     1       5.694   2.172  -0.859  0.00  0.00    -0.075 NA
ATOM      4  O   UNL     1       5.630   2.664   0.460  0.00  0.00    -0.339 OA
ATOM      5  C   UNL     1       4.540   2.194   1.080  0.00  0.00    +0.224 A 
ENDROOT
BRANCH   2   6
ATOM      6  C   UNL     1       4.428   0.695  -2.406  0.00  0.00    +0.035 A 
ATOM      7  C   UNL     1       3.239   0.925  -3.098  0.00  0.00    +0.014 A 
ATOM      8  C   UNL     1       3.002   0.275  -4.292  0.00  0.00    +0.021 A 
ATOM      9  C   UNL     1       3.943  -0.604  -4.803  0.00  0.00    +0.043 A 
ATOM     10  C   UNL     1       5.125  -0.835  -4.120  0.00  0.00    +0.053 A 
ATOM     11  C   UNL     1       5.374  -0.185  -2.928  0.00  0.00    +0.137 A 
ATOM     12 CL   UNL     1       3.639  -1.418  -6.306  0.00  0.00    -0.083 Cl
BRANCH  11  13
ATOM     13  N   UNL     1       6.641  -0.428  -2.203  0.00  0.00    +0.057 N 
ATOM     14  O   UNL     1       7.583  -1.166  -2.752  0.00  0.00    -0.126 OA
ATOM     15  O   UNL     1       6.825   0.093  -1.008  0.00  0.00    -0.126 OA
ENDBRANCH  11  13
ENDBRANCH   2   6
BRANCH   1  18
ATOM     16  C   UNL     1       0.382   0.157   0.646  0.00  0.00    +0.008 A 
ATOM     17  C   UNL     1       1.304   1.114   0.513  0.00  0.00    +0.016 A 
ATOM     18  C   UNL     1       2.677   0.611   0.275  0.00  0.00    +0.026 A 
ATOM     19  S   UNL     1       2.421  -1.154   0.279  0.00  0.00    -0.096 S 
ATOM     20  C   UNL     1       0.764  -1.187   0.553  0.00  0.00    +0.046 A 
ENDBRANCH   1  18
BRANCH   5  21
ATOM     21  N   UNL     1       4.154   2.453   2.334  0.00  0.00    -0.327 N 
ATOM     22  H   UNL     1       3.342   2.053   2.684  0.00  0.00    +0.145 HD
ATOM     23  H   UNL     1       4.685   3.040   2.894  0.00  0.00    +0.145 HD
ENDBRANCH   5  21
TORSDOF 4
