REMARK  Name = ZINC43224254
REMARK  17 active torsions:
REMARK  status: ('A' for Active; 'I' for Inactive)
REMARK    1  A    between atoms: C_1  and  C_2
REMARK    2  A    between atoms: C_2  and  C_3
REMARK    3  A    between atoms: C_8  and  C_9
REMARK    4  A    between atoms: C_11  and  C_28
REMARK    5  A    between atoms: C_12  and  C_27
REMARK    6  A    between atoms: N_13  and  C_14
REMARK    7  A    between atoms: C_14  and  C_15
REMARK    8  A    between atoms: C_17  and  O_25
REMARK    9  A    between atoms: C_18  and  O_23
REMARK   10  A    between atoms: C_19  and  O_21
REMARK   11  A    between atoms: O_21  and  C_22
REMARK   12  A    between atoms: O_23  and  C_24
REMARK   13  A    between atoms: O_25  and  C_26
REMARK   14  A    between atoms: C_31  and  C_37
REMARK   15  A    between atoms: C_31  and  C_38
REMARK   16  A    between atoms: C_34  and  C_35
REMARK   17  A    between atoms: C_34  and  C_36
REMARK                            x       y       z     vdW  Elec       q    Type
REMARK                         _______ _______ _______ _____ _____    ______ ____
ROOT
ATOM      1  C   UNL     1       3.107   0.453  -0.191  0.00  0.00    +0.051 A 
ATOM      2  C   UNL     1       2.718   0.842   1.050  0.00  0.00    +0.041 A 
ATOM      3  C   UNL     1       3.894   0.971   1.833  0.00  0.00    +0.057 A 
ATOM      4  C   UNL     1       4.958   0.650   1.017  0.00  0.00    +0.029 A 
ATOM      5  N   UNL     1       4.475   0.333  -0.201  0.00  0.00    -0.339 N 
ATOM      6  C   UNL     1       6.410   0.647   1.419  0.00  0.00    +0.064 C 
ENDROOT
BRANCH   1  12
ATOM      7  C   UNL     1       1.284   1.162  -1.738  0.00  0.00    -0.038 A 
ATOM      8  C   UNL     1       0.456   0.910  -2.808  0.00  0.00    +0.008 A 
ATOM      9  C   UNL     1       0.527  -0.298  -3.493  0.00  0.00    -0.038 A 
ATOM     10  C   UNL     1       1.438  -1.257  -3.103  0.00  0.00    -0.037 A 
ATOM     11  C   UNL     1       2.274  -1.014  -2.024  0.00  0.00    +0.014 A 
ATOM     12  C   UNL     1       2.208   0.196  -1.338  0.00  0.00    +0.002 A 
ATOM     13  C   UNL     1       1.577  -2.579  -3.812  0.00  0.00    -0.010 C 
ATOM     14  C   UNL     1       0.343  -2.865  -4.663  0.00  0.00    +0.012 C 
ATOM     15  C   UNL     1       0.068  -1.640  -5.544  0.00  0.00    +0.012 C 
ATOM     16  C   UNL     1      -0.417  -0.502  -4.649  0.00  0.00    -0.010 C 
ATOM     17  C   UNL     1      -0.496   0.787  -5.470  0.00  0.00    +0.016 C 
ATOM     18  C   UNL     1      -1.808  -0.842  -4.110  0.00  0.00    +0.016 C 
ATOM     19  C   UNL     1       2.813  -2.539  -4.713  0.00  0.00    +0.016 C 
ATOM     20  C   UNL     1       1.745  -3.692  -2.776  0.00  0.00    +0.016 C 
BRANCH   7  22
ATOM     21  C   UNL     1       2.319   3.401  -1.484  0.00  0.00    +0.009 C 
ATOM     22  C   UNL     1       1.198   2.477  -1.006  0.00  0.00    +0.032 C 
ENDBRANCH   7  22
ENDBRANCH   1  12
BRANCH   3  23
ATOM     23  C   UNL     1       3.966   1.374   3.248  0.00  0.00    +0.243 C 
ATOM     24  O   UNL     1       5.044   1.446   3.806  0.00  0.00    -0.270 OA
ATOM     25  N   UNL     1       2.836   1.661   3.925  0.00  0.00    -0.325 N 
ATOM     26  H   UNL     1       1.976   1.603   3.480  0.00  0.00    +0.145 HD
ATOM     27  H   UNL     1       2.883   1.926   4.857  0.00  0.00    +0.145 HD
ENDBRANCH   3  23
BRANCH   5  28
ATOM     28  C   UNL     1       5.282  -0.072  -1.355  0.00  0.00    +0.157 C 
BRANCH  28  29
ATOM     29  C   UNL     1       5.565   1.131  -2.217  0.00  0.00    -0.021 A 
ATOM     30  C   UNL     1       4.741   1.421  -3.288  0.00  0.00    +0.055 A 
ATOM     31  C   UNL     1       4.999   2.526  -4.084  0.00  0.00    +0.165 A 
ATOM     32  C   UNL     1       6.087   3.344  -3.803  0.00  0.00    +0.204 A 
ATOM     33  C   UNL     1       6.913   3.049  -2.725  0.00  0.00    +0.165 A 
ATOM     34  C   UNL     1       6.646   1.944  -1.931  0.00  0.00    +0.055 A 
BRANCH  33  35
ATOM     35  O   UNL     1       7.979   3.846  -2.446  0.00  0.00    -0.491 OA
ATOM     36  C   UNL     1       8.785   3.483  -1.323  0.00  0.00    +0.277 C 
ENDBRANCH  33  35
BRANCH  32  37
ATOM     37  O   UNL     1       6.343   4.430  -4.582  0.00  0.00    -0.488 OA
ATOM     38  C   UNL     1       5.733   5.663  -4.198  0.00  0.00    +0.277 C 
ENDBRANCH  32  37
BRANCH  31  39
ATOM     39  O   UNL     1       4.188   2.810  -5.138  0.00  0.00    -0.491 OA
ATOM     40  C   UNL     1       3.048   1.969  -5.325  0.00  0.00    +0.277 C 
ENDBRANCH  31  39
ENDBRANCH  28  29
ENDBRANCH   5  28
TORSDOF 8
