REMARK  Name = ZINC35682763
REMARK  9 active torsions:
REMARK  status: ('A' for Active; 'I' for Inactive)
REMARK    1  A    between atoms: C_1  and  C_2
REMARK    2  A    between atoms: C_2  and  N_3
REMARK    3  A    between atoms: N_10  and  N_11
REMARK    4  A    between atoms: N_11  and  C_12
REMARK    5  A    between atoms: C_12  and  N_14
REMARK    6  A    between atoms: N_14  and  C_15
REMARK    7  A    between atoms: C_18  and  N_21
REMARK    8  A    between atoms: N_24  and  C_25
REMARK    9  A    between atoms: C_25  and  C_26
REMARK                            x       y       z     vdW  Elec       q    Type
REMARK                         _______ _______ _______ _____ _____    ______ ____
ROOT
ATOM      1  N   UNL     1      -1.440  -0.509  -0.835  0.00  0.00    -0.315 N 
ATOM      2  C   UNL     1      -1.661  -1.813  -0.439  0.00  0.00    +0.198 A 
ATOM      3  N   UNL     1      -0.637  -2.581  -0.079  0.00  0.00    -0.300 N 
ATOM      4  C   UNL     1      -0.850  -3.836   0.303  0.00  0.00    +0.198 A 
ATOM      5  N   UNL     1      -2.087  -4.323   0.325  0.00  0.00    -0.182 NA
ATOM      6  C   UNL     1      -3.111  -3.555  -0.033  0.00  0.00    +0.238 A 
ATOM      7  N   UNL     1      -2.898  -2.298  -0.411  0.00  0.00    -0.182 NA
ATOM      8  N   UNL     1      -4.394  -4.061  -0.010  0.00  0.00    -0.233 N 
ATOM      9  N   UNL     1       0.213  -4.634   0.675  0.00  0.00    -0.315 N 
ATOM     10  H   UNL     1      -2.188   0.052  -1.094  0.00  0.00    +0.149 HD
ATOM     11  H   UNL     1      -4.550  -4.977   0.268  0.00  0.00    +0.173 HD
ATOM     12  H   UNL     1       0.057  -5.550   0.954  0.00  0.00    +0.149 HD
ATOM     13  H   UNL     1       0.265  -2.225  -0.096  0.00  0.00    +0.171 HD
ENDROOT
BRANCH   1  15
ATOM     14  C   UNL     1      -0.110   1.481  -1.337  0.00  0.00    +0.024 C 
ATOM     15  C   UNL     1      -0.077   0.026  -0.865  0.00  0.00    +0.101 C 
ENDBRANCH   1  15
BRANCH   8  16
ATOM     16  N   UNL     1      -5.473  -3.251  -0.388  0.00  0.00    -0.245 N 
ATOM     17  H   UNL     1      -5.318  -2.335  -0.666  0.00  0.00    +0.172 HD
BRANCH  16  18
ATOM     18  C   UNL     1      -6.727  -3.745  -0.365  0.00  0.00    +0.151 C 
ATOM     19  S   UNL     1      -8.046  -2.756  -0.827  0.00  0.00    -0.017 S 
BRANCH  18  20
ATOM     20  N   UNL     1      -6.943  -5.018   0.022  0.00  0.00    -0.296 N 
ATOM     21  H   UNL     1      -6.192  -5.598   0.224  0.00  0.00    +0.154 HD
BRANCH  20  22
ATOM     22  C   UNL     1      -8.250  -5.504   0.132  0.00  0.00    +0.033 A 
ATOM     23  C   UNL     1      -9.173  -5.252  -0.875  0.00  0.00    +0.025 A 
ATOM     24  C   UNL     1     -10.463  -5.734  -0.763  0.00  0.00    +0.034 A 
ATOM     25  C   UNL     1     -10.836  -6.465   0.349  0.00  0.00    +0.126 A 
ATOM     26  C   UNL     1      -9.919  -6.716   1.354  0.00  0.00    +0.034 A 
ATOM     27  C   UNL     1      -8.627  -6.243   1.246  0.00  0.00    +0.025 A 
BRANCH  25  28
ATOM     28  N   UNL     1     -12.219  -6.979   0.466  0.00  0.00    +0.056 N 
ATOM     29  O   UNL     1     -13.021  -6.759  -0.412  0.00  0.00    -0.126 OA
ATOM     30  O   UNL     1     -12.546  -7.618   1.438  0.00  0.00    -0.126 OA
ENDBRANCH  25  28
ENDBRANCH  20  22
ENDBRANCH  18  20
ENDBRANCH  16  18
ENDBRANCH   8  16
BRANCH   9  31
ATOM     31  C   UNL     1       1.575  -4.097   0.650  0.00  0.00    +0.101 C 
ATOM     32  C   UNL     1       2.558  -5.178   1.105  0.00  0.00    +0.024 C 
ENDBRANCH   9  31
TORSDOF 7
