REMARK  Name = ZINC20080879
REMARK  16 active torsions:
REMARK  status: ('A' for Active; 'I' for Inactive)
REMARK    1  A    between atoms: C_1  and  C_2
REMARK    2  A    between atoms: C_5  and  C_38
REMARK    3  A    between atoms: C_6  and  N_8
REMARK    4  A    between atoms: C_9  and  C_11
REMARK    5  A    between atoms: C_11  and  S_12
REMARK    6  A    between atoms: S_12  and  C_13
REMARK    7  A    between atoms: C_14  and  C_36
REMARK    8  A    between atoms: C_15  and  C_27
REMARK    9  A    between atoms: C_17  and  C_21
REMARK   10  A    between atoms: C_18  and  C_20
REMARK   11  A    between atoms: C_21  and  O_23
REMARK   12  A    between atoms: O_23  and  C_24
REMARK   13  A    between atoms: C_24  and  C_25
REMARK   14  A    between atoms: C_30  and  O_35
REMARK   15  A    between atoms: C_31  and  O_33
REMARK   16  A    between atoms: O_33  and  C_34
REMARK                            x       y       z     vdW  Elec       q    Type
REMARK                         _______ _______ _______ _____ _____    ______ ____
ROOT
ATOM      1  C   UNL     1       1.789   2.608   0.824  0.00  0.00    +0.080 C 
ATOM      2  C   UNL     1       1.407   1.576   0.024  0.00  0.00    +0.069 C 
ATOM      3  C   UNL     1      -0.002   1.055   0.043  0.00  0.00    +0.100 C 
ATOM      4  C   UNL     1      -0.730   1.530   1.268  0.00  0.00    +0.066 C 
ATOM      5  C   UNL     1      -0.272   2.552   2.011  0.00  0.00    +0.016 C 
ATOM      6  N   UNL     1       0.888   3.197   1.682  0.00  0.00    -0.312 N 
ATOM      7  C   UNL     1      -1.048   2.993   3.224  0.00  0.00    +0.061 C 
ATOM      8  H   UNL     1       1.100   4.190   2.106  0.00  0.00    +0.152 HD
ENDROOT
BRANCH   3   9
ATOM      9  C   UNL     1      -0.728   1.542  -1.184  0.00  0.00    -0.031 A 
ATOM     10  C   UNL     1      -0.883   2.899  -1.401  0.00  0.00    +0.008 A 
ATOM     11  C   UNL     1      -1.548   3.351  -2.525  0.00  0.00    +0.049 A 
ATOM     12  C   UNL     1      -2.060   2.443  -3.439  0.00  0.00    +0.158 A 
ATOM     13  C   UNL     1      -1.904   1.078  -3.221  0.00  0.00    +0.162 A 
ATOM     14  C   UNL     1      -1.232   0.632  -2.094  0.00  0.00    +0.054 A 
BRANCH  13  15
ATOM     15  O   UNL     1      -2.405   0.183  -4.114  0.00  0.00    -0.491 OA
ATOM     16  C   UNL     1      -2.206  -1.202  -3.826  0.00  0.00    +0.277 C 
ENDBRANCH  13  15
BRANCH  12  17
ATOM     17  O   UNL     1      -2.715   2.886  -4.546  0.00  0.00    -0.503 OA
ATOM     18  H   UNL     1      -3.121   2.165  -5.270  0.00  0.00    +0.292 HD
ENDBRANCH  12  17
ENDBRANCH   3   9
BRANCH   4  19
ATOM     19  C   UNL     1      -1.929   0.886   1.649  0.00  0.00    +0.338 C 
ATOM     20  O   UNL     1      -2.532   1.258   2.639  0.00  0.00    -0.245 OA
BRANCH  19  21
ATOM     21  O   UNL     1      -2.405  -0.142   0.916  0.00  0.00    -0.457 OA
BRANCH  21  22
ATOM     22  C   UNL     1      -3.622  -0.747   1.359  0.00  0.00    +0.259 C 
BRANCH  22  23
ATOM     23  C   UNL     1      -3.996  -1.868   0.424  0.00  0.00    +0.006 C 
ATOM     24  C   UNL     1      -4.392  -3.019   0.907  0.00  0.00    +0.007 C 
ENDBRANCH  22  23
ENDBRANCH  21  22
ENDBRANCH  19  21
ENDBRANCH   4  19
BRANCH   2  25
ATOM     25  C   UNL     1       2.366   0.975  -0.853  0.00  0.00    +0.098 C 
ATOM     26  N   UNL     1       3.127   0.498  -1.549  0.00  0.00    -0.191 NA
ENDBRANCH   2  25
BRANCH   1  27
ATOM     27  S   UNL     1       3.450   3.194   0.761  0.00  0.00    -0.100 S 
BRANCH  27  28
ATOM     28  C   UNL     1       3.362   4.517   1.993  0.00  0.00    +0.171 C 
BRANCH  28  30
ATOM     29  N   UNL     1       4.883   6.201   2.978  0.00  0.00    -0.285 N 
ATOM     30  C   UNL     1       4.710   5.181   2.114  0.00  0.00    +0.227 C 
ATOM     31  O   UNL     1       5.638   4.798   1.433  0.00  0.00    -0.275 OA
ATOM     32  H   UNL     1       4.022   6.608   3.528  0.00  0.00    +0.155 HD
BRANCH  29  38
ATOM     33  C   UNL     1       9.770   5.676   2.839  0.00  0.00    +0.044 C 
ATOM     34  C   UNL     1       8.545   6.509   3.115  0.00  0.00    -0.049 A 
ATOM     35  C   UNL     1       8.681   7.811   3.563  0.00  0.00    +0.004 A 
ATOM     36  C   UNL     1       7.560   8.579   3.816  0.00  0.00    +0.005 A 
ATOM     37  C   UNL     1       6.299   8.048   3.623  0.00  0.00    -0.029 A 
ATOM     38  C   UNL     1       6.159   6.742   3.174  0.00  0.00    +0.037 A 
ATOM     39  C   UNL     1       7.287   5.971   2.926  0.00  0.00    +0.027 A 
ATOM     40  C   UNL     1       5.078   8.886   3.898  0.00  0.00    +0.045 C 
ENDBRANCH  29  38
ENDBRANCH  28  30
ENDBRANCH  27  28
ENDBRANCH   1  27
TORSDOF 12
