REMARK  Name = ZINC12995676
REMARK  11 active torsions:
REMARK  status: ('A' for Active; 'I' for Inactive)
REMARK    1  A    between atoms: C_1  and  C_2
REMARK    2  A    between atoms: C_2  and  N_58
REMARK    3  A    between atoms: C_3  and  C_4
REMARK    4  A    between atoms: C_3  and  N_58
REMARK    5  A    between atoms: C_5  and  C_7
REMARK    6  A    between atoms: C_5  and  C_25
REMARK    7  A    between atoms: C_5  and  N_58
REMARK    8  A    between atoms: C_7  and  N_8
REMARK    9  A    between atoms: C_9  and  C_11
REMARK   10  A    between atoms: C_11  and  C_12
REMARK   11  A    between atoms: C_12  and  N_13
REMARK                            x       y       z     vdW  Elec       q    Type
REMARK                         _______ _______ _______ _____ _____    ______ ____
ROOT
ATOM      1  N   UNL     1       0.691   3.967   2.281  0.00  0.00    -0.316 N 
ATOM      2  C   UNL     1       1.690   4.859   2.434  0.00  0.00    +0.214 C 
ATOM      3  O   UNL     1       2.804   4.596   2.032  0.00  0.00    -0.276 OA
ATOM      4  H   UNL     1      -0.200   4.177   2.603  0.00  0.00    +0.149 HD
ENDROOT
BRANCH   1   5
ATOM      5  C   UNL     1       0.950   2.681   1.630  0.00  0.00    +0.093 C 
BRANCH   5   6
ATOM      6  C   UNL     1      -0.368   1.925   1.450  0.00  0.00    -0.019 C 
BRANCH   6   7
ATOM      7  C   UNL     1      -0.109   0.442   1.508  0.00  0.00    -0.041 A 
ATOM      8  C   UNL     1       0.148  -0.261   0.345  0.00  0.00    +0.003 A 
ATOM      9  C   UNL     1       0.390  -1.621   0.399  0.00  0.00    +0.000 A 
ATOM     10  C   UNL     1       0.365  -2.281   1.613  0.00  0.00    +0.001 A 
ATOM     11  C   UNL     1       0.103  -1.581   2.775  0.00  0.00    +0.020 A 
ATOM     12  C   UNL     1      -0.135  -0.218   2.723  0.00  0.00    +0.043 A 
ATOM     13 CL   UNL     1      -0.465   0.662   4.183  0.00  0.00    -0.083 Cl
ENDBRANCH   6   7
BRANCH   6  14
ATOM     14  N   UNL     1      -0.944   2.253   0.129  0.00  0.00    +0.385 N 
ATOM     15  H   UNL     1      -0.485   1.678  -0.587  0.00  0.00    -0.081 HD
BRANCH  14  17
ATOM     16  C   UNL     1      -2.589   0.453  -0.038  0.00  0.00    -0.017 C 
ATOM     17  C   UNL     1      -2.393   1.962   0.123  0.00  0.00    -0.081 C 
ENDBRANCH  14  17
BRANCH  14  18
ATOM     18  C   UNL     1      -0.714   3.680  -0.182  0.00  0.00    -0.081 C 
ATOM     19  C   UNL     1      -0.465   3.815  -1.686  0.00  0.00    -0.017 C 
ENDBRANCH  14  18
ENDBRANCH   6  14
ENDBRANCH   5   6
ENDBRANCH   1   5
BRANCH   2  20
ATOM     20  C   UNL     1       1.424   6.182   3.104  0.00  0.00    +0.114 C 
BRANCH  20  21
ATOM     21  C   UNL     1       2.716   7.000   3.148  0.00  0.00    +0.112 C 
BRANCH  21  22
ATOM     22  N   UNL     1       2.457   8.286   3.800  0.00  0.00    -0.327 N 
ATOM     23  C   UNL     1       3.478   9.198   3.956  0.00  0.00    +0.150 C 
ATOM     24  N   UNL     1       4.670   8.925   3.529  0.00  0.00    -0.113 NA
ATOM     25  S   UNL     1       5.606  10.262   3.900  0.00  0.00    +0.101 S 
ATOM     26  O   UNL     1       6.541   9.872   4.897  0.00  0.00    -0.146 OA
ATOM     27  O   UNL     1       5.978  10.883   2.678  0.00  0.00    -0.146 OA
ATOM     28  C   UNL     1       4.383  11.283   4.676  0.00  0.00    +0.123 A 
ATOM     29  C   UNL     1       3.226  10.494   4.604  0.00  0.00    +0.043 A 
ATOM     30  C   UNL     1       2.048  11.025   5.151  0.00  0.00    +0.013 A 
ATOM     31  C   UNL     1       2.050  12.278   5.722  0.00  0.00    +0.001 A 
ATOM     32  C   UNL     1       3.207  13.035   5.773  0.00  0.00    +0.002 A 
ATOM     33  C   UNL     1       4.383  12.524   5.242  0.00  0.00    +0.030 A 
ATOM     34  H   UNL     1       1.566   8.497   4.121  0.00  0.00    +0.148 HD
ENDBRANCH  21  22
ENDBRANCH  20  21
ENDBRANCH   2  20
TORSDOF 9
