REMARK  Name = ZINC12634866
REMARK  10 active torsions:
REMARK  status: ('A' for Active; 'I' for Inactive)
REMARK    1  A    between atoms: C_1  and  C_2
REMARK    2  A    between atoms: C_5  and  C_8
REMARK    3  A    between atoms: C_11  and  S_14
REMARK    4  A    between atoms: N_12  and  N_13
REMARK    5  A    between atoms: S_14  and  C_15
REMARK    6  A    between atoms: C_15  and  C_16
REMARK    7  A    between atoms: N_18  and  C_19
REMARK    8  A    between atoms: C_20  and  C_31
REMARK    9  A    between atoms: N_22  and  C_25
REMARK   10  A    between atoms: C_23  and  C_24
REMARK                            x       y       z     vdW  Elec       q    Type
REMARK                         _______ _______ _______ _____ _____    ______ ____
ROOT
ATOM      1  C   UNL     1      -2.255   0.413   0.670  0.00  0.00    +0.173 C 
ENDROOT
BRANCH   1   2
ATOM      2  C   UNL     1      -0.989   1.208   0.481  0.00  0.00    +0.228 C 
ATOM      3  O   UNL     1      -0.981   2.400   0.710  0.00  0.00    -0.275 OA
ATOM      4  N   UNL     1       0.135   0.596   0.059  0.00  0.00    -0.282 N 
ATOM      5  H   UNL     1       0.109  -0.337  -0.205  0.00  0.00    +0.155 HD
BRANCH   4   6
ATOM      6  C   UNL     1       1.345   1.312  -0.004  0.00  0.00    +0.078 A 
ATOM      7  C   UNL     1       1.521   2.590  -0.555  0.00  0.00    +0.082 A 
ATOM      8  N   UNL     1       2.780   2.925  -0.427  0.00  0.00    -0.170 NA
ATOM      9  N   UNL     1       3.456   1.870   0.200  0.00  0.00    -0.235 N 
ATOM     10  C   UNL     1       2.551   0.886   0.452  0.00  0.00    +0.063 A 
ATOM     11  C   UNL     1       2.835  -0.437   1.117  0.00  0.00    +0.068 C 
ATOM     12  C   UNL     1       0.444   3.436  -1.182  0.00  0.00    +0.069 C 
BRANCH   9  13
ATOM     13  C   UNL     1       4.822   1.835   0.512  0.00  0.00    +0.066 A 
ATOM     14  C   UNL     1       5.454   2.973   0.998  0.00  0.00    +0.028 A 
ATOM     15  C   UNL     1       6.798   2.934   1.309  0.00  0.00    +0.002 A 
ATOM     16  C   UNL     1       7.518   1.767   1.129  0.00  0.00    +0.000 A 
ATOM     17  C   UNL     1       6.893   0.634   0.640  0.00  0.00    +0.002 A 
ATOM     18  C   UNL     1       5.547   0.665   0.332  0.00  0.00    +0.028 A 
ENDBRANCH   9  13
ENDBRANCH   4   6
ENDBRANCH   1   2
BRANCH   1  19
ATOM     19  S   UNL     1      -3.577   1.510   1.240  0.00  0.00    -0.075 S 
BRANCH  19  23
ATOM     20  C   UNL     1      -6.845  -0.578   1.718  0.00  0.00    +0.182 A 
ATOM     21  N   UNL     1      -5.984  -1.480   1.311  0.00  0.00    -0.127 NA
ATOM     22  N   UNL     1      -4.840  -0.933   1.102  0.00  0.00    -0.121 NA
ATOM     23  C   UNL     1      -4.899   0.352   1.373  0.00  0.00    +0.209 A 
ATOM     24  N   UNL     1      -6.176   0.624   1.771  0.00  0.00    -0.224 N 
BRANCH  20  29
ATOM     25  C   UNL     1     -12.374  -1.475   3.037  0.00  0.00    +0.044 C 
ATOM     26  C   UNL     1     -10.926  -1.240   2.692  0.00  0.00    -0.050 A 
ATOM     27  C   UNL     1     -10.474   0.047   2.458  0.00  0.00    +0.004 A 
ATOM     28  C   UNL     1      -9.149   0.269   2.142  0.00  0.00    +0.012 A 
ATOM     29  C   UNL     1      -8.265  -0.808   2.057  0.00  0.00    +0.021 A 
ATOM     30  C   UNL     1      -8.729  -2.104   2.288  0.00  0.00    +0.012 A 
ATOM     31  C   UNL     1     -10.055  -2.312   2.609  0.00  0.00    +0.004 A 
ENDBRANCH  20  29
BRANCH  24  32
ATOM     32  N   UNL     1      -6.685   1.836   2.143  0.00  0.00    -0.295 N 
ATOM     33  H   UNL     1      -7.144   2.289   1.367  0.00  0.00    +0.163 HD
ATOM     34  H   UNL     1      -7.312   1.739   2.928  0.00  0.00    +0.163 HD
ENDBRANCH  24  32
ENDBRANCH  19  23
ENDBRANCH   1  19
TORSDOF 7
