REMARK  Name = ZINC38704828
REMARK  17 active torsions:
REMARK  status: ('A' for Active; 'I' for Inactive)
REMARK    1  A    between atoms: C_1  and  C_2
REMARK    2  A    between atoms: C_2  and  C_3
REMARK    3  A    between atoms: C_3  and  C_4
REMARK    4  A    between atoms: C_4  and  C_5
REMARK    5  A    between atoms: C_5  and  O_6
REMARK    6  A    between atoms: O_6  and  C_7
REMARK    7  A    between atoms: C_10  and  C_15
REMARK    8  A    between atoms: C_12  and  O_13
REMARK    9  A    between atoms: O_13  and  C_14
REMARK   10  A    between atoms: C_18  and  C_30
REMARK   11  A    between atoms: N_25  and  C_26
REMARK   12  A    between atoms: C_26  and  C_27
REMARK   13  A    between atoms: C_27  and  O_28
REMARK   14  A    between atoms: O_28  and  C_29
REMARK   15  A    between atoms: C_31  and  C_38
REMARK   16  A    between atoms: C_33  and  C_37
REMARK   17  A    between atoms: C_35  and  O_36
REMARK                            x       y       z     vdW  Elec       q    Type
REMARK                         _______ _______ _______ _____ _____    ______ ____
ROOT
ATOM      1  C   UNL     1       3.805  -6.558  -6.953  0.00  0.00    +0.141 C 
ATOM      2  C   UNL     1       5.272  -6.489  -6.631  0.00  0.00    +0.035 A 
ATOM      3  C   UNL     1       6.308  -6.853  -5.764  0.00  0.00    +0.102 A 
ATOM      4  N   UNL     1       7.423  -6.335  -6.240  0.00  0.00    -0.173 NA
ATOM      5  N   UNL     1       7.194  -5.679  -7.322  0.00  0.00    -0.272 N 
ATOM      6  H   UNL     1       7.866  -5.215  -7.845  0.00  0.00    +0.189 HD
ATOM      7  C   UNL     1       5.863  -5.734  -7.627  0.00  0.00    +0.126 A 
ATOM      8  C   UNL     1       4.824  -5.318  -8.575  0.00  0.00    +0.266 C 
ATOM      9  O   UNL     1       5.020  -4.641  -9.566  0.00  0.00    -0.268 OA
ATOM     10  N   UNL     1       3.623  -5.792  -8.193  0.00  0.00    -0.283 N 
ENDROOT
BRANCH   3  11
ATOM     11  C   UNL     1       6.176  -7.672  -4.533  0.00  0.00    +0.047 A 
ATOM     12  C   UNL     1       6.742  -7.235  -3.338  0.00  0.00    -0.037 A 
ATOM     13  C   UNL     1       6.617  -8.000  -2.196  0.00  0.00    +0.007 A 
ATOM     14  C   UNL     1       5.930  -9.201  -2.234  0.00  0.00    -0.047 A 
ATOM     15  C   UNL     1       5.364  -9.644  -3.415  0.00  0.00    +0.049 A 
ATOM     16  C   UNL     1       5.477  -8.882  -4.567  0.00  0.00    +0.127 A 
ATOM     17  C   UNL     1       5.798 -10.030  -0.982  0.00  0.00    +0.044 C 
ATOM     18  C   UNL     1       7.492  -5.929  -3.292  0.00  0.00    +0.044 C 
BRANCH  16  19
ATOM     19  O   UNL     1       4.916  -9.313  -5.727  0.00  0.00    -0.506 OA
ATOM     20  H   UNL     1       5.472  -9.925  -6.229  0.00  0.00    +0.292 HD
ENDBRANCH  16  19
ENDBRANCH   3  11
BRANCH   1  24
ATOM     21  C   UNL     1       1.521  -4.798  -3.794  0.00  0.00    +0.162 A 
ATOM     22  C   UNL     1       2.329  -4.005  -4.594  0.00  0.00    +0.050 A 
ATOM     23  C   UNL     1       3.066  -4.577  -5.614  0.00  0.00    +0.009 A 
ATOM     24  C   UNL     1       2.999  -5.939  -5.840  0.00  0.00    -0.019 A 
ATOM     25  C   UNL     1       2.196  -6.736  -5.045  0.00  0.00    +0.055 A 
ATOM     26  C   UNL     1       1.459  -6.170  -4.017  0.00  0.00    +0.162 A 
BRANCH  26  27
ATOM     27  O   UNL     1       0.673  -6.953  -3.231  0.00  0.00    -0.491 OA
ATOM     28  C   UNL     1       0.658  -8.353  -3.518  0.00  0.00    +0.277 C 
ENDBRANCH  26  27
BRANCH  21  29
ATOM     29  O   UNL     1       0.796  -4.237  -2.790  0.00  0.00    -0.488 OA
BRANCH  29  30
ATOM     30  C   UNL     1       0.909  -2.823  -2.620  0.00  0.00    +0.229 C 
BRANCH  30  31
ATOM     31  C   UNL     1       0.028  -2.378  -1.451  0.00  0.00    +0.041 C 
BRANCH  31  32
ATOM     32  C   UNL     1       0.149  -0.864  -1.268  0.00  0.00    +0.003 C 
BRANCH  32  34
ATOM     33  C   UNL     1      -0.612   1.096   0.083  0.00  0.00    +0.004 C 
ATOM     34  C   UNL     1      -0.733  -0.419  -0.100  0.00  0.00    -0.003 C 
ENDBRANCH  32  34
ENDBRANCH  31  32
ENDBRANCH  30  31
ENDBRANCH  29  30
ENDBRANCH  21  29
ENDBRANCH   1  24
BRANCH  10  35
ATOM     35  C   UNL     1       2.353  -5.581  -8.893  0.00  0.00    +0.137 C 
BRANCH  35  36
ATOM     36  C   UNL     1       1.752  -4.240  -8.467  0.00  0.00    +0.178 C 
BRANCH  36  37
ATOM     37  O   UNL     1       2.597  -3.177  -8.912  0.00  0.00    -0.381 OA
ATOM     38  C   UNL     1       2.125  -1.874  -8.563  0.00  0.00    +0.194 C 
ENDBRANCH  36  37
ENDBRANCH  35  36
ENDBRANCH  10  35
TORSDOF 12
