REMARK  Name = ZINC08666540
REMARK  14 active torsions:
REMARK  status: ('A' for Active; 'I' for Inactive)
REMARK    1  A    between atoms: C_1  and  C_2
REMARK    2  A    between atoms: C_2  and  C_3
REMARK    3  A    between atoms: C_3  and  C_4
REMARK    4  A    between atoms: C_4  and  S_5
REMARK    5  A    between atoms: S_5  and  C_6
REMARK    6  A    between atoms: C_6  and  S_26
REMARK    7  A    between atoms: C_7  and  C_24
REMARK    8  A    between atoms: C_9  and  C_23
REMARK    9  A    between atoms: C_10  and  C_17
REMARK   10  A    between atoms: C_12  and  C_15
REMARK   11  A    between atoms: S_26  and  C_27
REMARK   12  A    between atoms: C_27  and  C_28
REMARK   13  A    between atoms: C_28  and  C_29
REMARK   14  A    between atoms: C_29  and  C_30
REMARK                            x       y       z     vdW  Elec       q    Type
REMARK                         _______ _______ _______ _____ _____    ______ ____
ROOT
ATOM      1  C   UNL     1      -1.330   4.608   3.455  0.00  0.00    +0.157 C 
ATOM      2  C   UNL     1      -1.759   3.171   3.149  0.00  0.00    +0.146 C 
ATOM      3  C   UNL     1      -1.122   2.511   1.961  0.00  0.00    +0.017 C 
ATOM      4  C   UNL     1      -1.109   1.172   2.037  0.00  0.00    -0.017 C 
ATOM      5  C   UNL     1      -1.694   1.103   4.480  0.00  0.00    +0.113 C 
ATOM      6  C   UNL     1      -1.071   2.475   4.369  0.00  0.00    +0.156 C 
ATOM      7  C   UNL     1      -1.261   3.469   5.461  0.00  0.00    +0.092 C 
ATOM      8  N   UNL     1      -1.305   3.183   6.800  0.00  0.00    -0.347 N 
ATOM      9  C   UNL     1      -0.484   0.373   0.922  0.00  0.00    +0.058 C 
ATOM     10  H   UNL     1      -1.208   2.266   7.103  0.00  0.00    +0.143 HD
ATOM     11  H   UNL     1      -1.432   3.896   7.444  0.00  0.00    +0.143 HD
ATOM     12  N   UNL     1      -1.691   0.425   3.114  0.00  0.00    -0.401 NA
ATOM     13  H   UNL     1      -1.169  -0.455   3.200  0.00  0.00    +0.124 HD
ATOM     14  H   UNL     1      -2.665   0.222   2.861  0.00  0.00    +0.124 HD
ATOM     15  N   UNL     1      -1.380   4.671   4.943  0.00  0.00    -0.351 N 
ATOM     16  H   UNL     1      -1.493   5.533   5.488  0.00  0.00    +0.163 HD
ENDROOT
BRANCH   5  17
ATOM     17  C   UNL     1      -0.900   0.253   5.439  0.00  0.00    -0.027 A 
ATOM     18  C   UNL     1       0.294  -0.314   5.034  0.00  0.00    +0.005 A 
ATOM     19  C   UNL     1       1.024  -1.090   5.915  0.00  0.00    +0.000 A 
ATOM     20  C   UNL     1       0.555  -1.306   7.197  0.00  0.00    +0.000 A 
ATOM     21  C   UNL     1      -0.642  -0.743   7.600  0.00  0.00    +0.000 A 
ATOM     22  C   UNL     1      -1.369   0.036   6.721  0.00  0.00    +0.005 A 
ENDBRANCH   5  17
BRANCH   6  23
ATOM     23  C   UNL     1       0.369   2.336   4.098  0.00  0.00    +0.081 C 
ATOM     24  N   UNL     1       1.480   2.228   3.889  0.00  0.00    -0.195 NA
ENDBRANCH   6  23
BRANCH   2  25
ATOM     25  C   UNL     1      -3.222   3.006   3.156  0.00  0.00    +0.080 C 
ATOM     26  N   UNL     1      -4.351   2.879   3.162  0.00  0.00    -0.195 NA
ENDBRANCH   2  25
BRANCH   1  27
ATOM     27  S   UNL     1       0.354   4.917   2.856  0.00  0.00    -0.120 S 
BRANCH  27  28
ATOM     28  C   UNL     1       1.151   5.800   4.226  0.00  0.00    +0.072 C 
BRANCH  28  29
ATOM     29  C   UNL     1       2.547   6.255   3.795  0.00  0.00    +0.010 C 
BRANCH  29  31
ATOM     30  C   UNL     1       4.615   7.455   4.520  0.00  0.00    +0.004 C 
ATOM     31  C   UNL     1       3.220   7.000   4.950  0.00  0.00    -0.003 C 
ENDBRANCH  29  31
ENDBRANCH  28  29
ENDBRANCH  27  28
ENDBRANCH   1  27
BRANCH   1  32
ATOM     32  S   UNL     1      -2.498   5.794   2.733  0.00  0.00    -0.120 S 
BRANCH  32  33
ATOM     33  C   UNL     1      -1.916   7.404   3.332  0.00  0.00    +0.072 C 
BRANCH  33  34
ATOM     34  C   UNL     1      -2.808   8.511   2.769  0.00  0.00    +0.010 C 
BRANCH  34  35
ATOM     35  C   UNL     1      -2.317   9.869   3.275  0.00  0.00    -0.003 C 
ATOM     36  C   UNL     1      -3.210  10.976   2.711  0.00  0.00    +0.004 C 
ENDBRANCH  34  35
ENDBRANCH  33  34
ENDBRANCH  32  33
ENDBRANCH   1  32
TORSDOF 11
