REMARK  Name = ZINC04200819
REMARK  15 active torsions:
REMARK  status: ('A' for Active; 'I' for Inactive)
REMARK    1  A    between atoms: C_1  and  C_2
REMARK    2  A    between atoms: C_2  and  C_3
REMARK    3  A    between atoms: C_2  and  C_4
REMARK    4  A    between atoms: C_4  and  C_6
REMARK    5  A    between atoms: C_4  and  N_59
REMARK    6  A    between atoms: N_8  and  C_9
REMARK    7  A    between atoms: C_12  and  C_20
REMARK    8  A    between atoms: C_14  and  O_19
REMARK    9  A    between atoms: C_16  and  O_18
REMARK   10  A    between atoms: N_22  and  C_23
REMARK   11  A    between atoms: C_23  and  C_25
REMARK   12  A    between atoms: C_23  and  C_31
REMARK   13  A    between atoms: C_25  and  C_26
REMARK   14  A    between atoms: C_26  and  S_27
REMARK   15  A    between atoms: S_27  and  C_30
REMARK                            x       y       z     vdW  Elec       q    Type
REMARK                         _______ _______ _______ _____ _____    ______ ____
ROOT
ATOM      1  C   UNL     1       0.002  -0.004   0.002  0.00  0.00    +0.127 C 
ATOM      2  C   UNL     1       0.909  -0.502  -1.085  0.00  0.00    +0.006 C 
ATOM      3  C   UNL     1       1.816   0.242  -1.680  0.00  0.00    +0.015 C 
ATOM      4  C   UNL     1       2.054   1.688  -1.354  0.00  0.00    +0.074 C 
ATOM      5  C   UNL     1       1.429   2.032  -0.001  0.00  0.00    +0.149 C 
ATOM      6  C   UNL     1      -0.019   1.526   0.010  0.00  0.00    +0.167 C 
ENDROOT
BRANCH   1   9
ATOM      7  C   UNL     1       0.135  -1.719   1.728  0.00  0.00    +0.199 C 
ATOM      8  O   UNL     1      -0.578  -2.422   1.043  0.00  0.00    -0.278 OA
ATOM      9  N   UNL     1       0.483  -0.490   1.297  0.00  0.00    -0.308 N 
ATOM     10  H   UNL     1       1.053   0.072   1.845  0.00  0.00    +0.149 HD
BRANCH   7  11
ATOM     11  C   UNL     1       0.630  -2.219   3.060  0.00  0.00    +0.015 C 
BRANCH  11  14
ATOM     12  H   UNL     1      -0.415  -3.991   2.972  0.00  0.00    -0.089 HD
ATOM     13  H   UNL     1       1.146  -4.103   2.410  0.00  0.00    -0.089 HD
ATOM     14  N   UNL     1       0.546  -3.689   3.122  0.00  0.00    +0.386 N 
ATOM     15  H   UNL     1       0.856  -4.007   4.048  0.00  0.00    -0.089 HD
ENDBRANCH  11  14
BRANCH  11  17
ATOM     16  C   UNL     1       0.274  -2.133   5.532  0.00  0.00    +0.006 C 
ATOM     17  C   UNL     1      -0.229  -1.625   4.179  0.00  0.00    -0.023 C 
ATOM     18  C   UNL     1      -0.133  -0.099   4.140  0.00  0.00    +0.006 C 
ENDBRANCH  11  17
ENDBRANCH   7  11
ENDBRANCH   1   9
BRANCH   3  19
ATOM     19  C   UNL     1       2.645  -0.378  -2.725  0.00  0.00    +0.241 C 
ATOM     20  O   UNL     1       2.482  -1.548  -3.016  0.00  0.00    -0.271 OA
ATOM     21  N   UNL     1       3.586   0.349  -3.359  0.00  0.00    -0.300 N 
ATOM     22  H   UNL     1       3.716   1.282  -3.126  0.00  0.00    +0.150 HD
BRANCH  21  23
ATOM     23  C   UNL     1       4.412  -0.269  -4.399  0.00  0.00    +0.160 C 
BRANCH  23  24
ATOM     24  C   UNL     1       5.586  -0.964  -3.761  0.00  0.00    +0.231 C 
ATOM     25  O   UNL     1       5.721  -0.946  -2.556  0.00  0.00    -0.274 OA
ATOM     26  N   UNL     1       6.488  -1.607  -4.530  0.00  0.00    -0.328 N 
ATOM     27  H   UNL     1       6.380  -1.622  -5.494  0.00  0.00    +0.145 HD
ATOM     28  H   UNL     1       7.244  -2.055  -4.119  0.00  0.00    +0.145 HD
ENDBRANCH  23  24
BRANCH  23  29
ATOM     29  C   UNL     1       4.918   0.812  -5.357  0.00  0.00    +0.054 C 
BRANCH  29  30
ATOM     30  C   UNL     1       3.732   1.433  -6.098  0.00  0.00    +0.168 C 
BRANCH  30  31
ATOM     31  S   UNL     1       4.332   2.714  -7.233  0.00  0.00    -0.034 S 
ATOM     32  O   UNL     1       4.895   3.768  -6.465  0.00  0.00    -0.175 OA
ATOM     33  O   UNL     1       5.122   2.091  -8.236  0.00  0.00    -0.175 OA
ATOM     34  C   UNL     1       2.803   3.317  -8.001  0.00  0.00    +0.194 C 
ENDBRANCH  30  31
ENDBRANCH  29  30
ENDBRANCH  23  29
ENDBRANCH  21  23
ENDBRANCH   3  19
BRANCH   6  35
ATOM     35  O   UNL     1      -0.681   1.990   1.188  0.00  0.00    -0.387 OA
ATOM     36  H   UNL     1      -0.730   2.954   1.258  0.00  0.00    +0.210 HD
ENDBRANCH   6  35
BRANCH   5  37
ATOM     37  O   UNL     1       1.443   3.449   0.188  0.00  0.00    -0.389 OA
ATOM     38  H   UNL     1       2.329   3.836   0.192  0.00  0.00    +0.210 HD
ENDBRANCH   5  37
TORSDOF 12
