REMARK  Name = ZINC39666193
REMARK  13 active torsions:
REMARK  status: ('A' for Active; 'I' for Inactive)
REMARK    1  A    between atoms: C_1  and  C_2
REMARK    2  A    between atoms: C_5  and  O_8
REMARK    3  A    between atoms: O_8  and  C_9
REMARK    4  A    between atoms: C_9  and  C_11
REMARK    5  A    between atoms: C_9  and  C_12
REMARK    6  A    between atoms: C_12  and  N_13
REMARK    7  A    between atoms: C_14  and  C_16
REMARK    8  A    between atoms: C_27  and  C_29
REMARK    9  A    between atoms: C_31  and  C_38
REMARK   10  A    between atoms: N_33  and  C_34
REMARK   11  A    between atoms: C_34  and  C_35
REMARK   12  A    between atoms: C_34  and  C_36
REMARK   13  A    between atoms: C_34  and  C_37
REMARK                            x       y       z     vdW  Elec       q    Type
REMARK                         _______ _______ _______ _____ _____    ______ ____
ROOT
ATOM      1  C   UNL     1      -6.837  -8.291  -1.752  0.00  0.00    +0.100 C 
ATOM      2  C   UNL     1      -6.550  -7.325  -0.581  0.00  0.00    +0.121 C 
ATOM      3  N   UNL     1      -7.574  -7.656   0.437  0.00  0.00    -0.295 N 
ATOM      4  C   UNL     1      -7.681  -9.134   0.386  0.00  0.00    +0.115 C 
ATOM      5  C   UNL     1      -7.579  -9.477  -1.114  0.00  0.00    -0.004 C 
ATOM      6  C   UNL     1      -6.783 -10.764  -1.307  0.00  0.00    -0.010 C 
ATOM      7  C   UNL     1      -7.567 -11.938  -0.715  0.00  0.00    -0.082 C 
ATOM      8  N   UNL     1      -8.872 -12.042  -1.379  0.00  0.00    +0.379 N 
ATOM      9  C   UNL     1      -9.668 -10.838  -1.110  0.00  0.00    -0.082 C 
ATOM     10  C   UNL     1      -8.972  -9.617  -1.719  0.00  0.00    -0.010 C 
ATOM     11  C   UNL     1      -8.255  -6.806   1.230  0.00  0.00    +0.265 C 
ATOM     12  O   UNL     1      -9.098  -7.232   1.997  0.00  0.00    -0.268 OA
ATOM     13  H   UNL     1      -8.735 -12.137  -2.374  0.00  0.00    -0.086 HD
ATOM     14  H   UNL     1      -9.362 -12.852  -1.031  0.00  0.00    -0.086 HD
ENDROOT
BRANCH  11  15
ATOM     15  C   UNL     1      -7.980  -5.362   1.169  0.00  0.00    +0.124 A 
ATOM     16  C   UNL     1      -6.974  -4.738   0.452  0.00  0.00    +0.057 A 
ATOM     17  C   UNL     1      -7.125  -3.374   0.713  0.00  0.00    +0.061 A 
ATOM     18  N   UNL     1      -8.144  -3.230   1.522  0.00  0.00    -0.175 NA
ATOM     19  N   UNL     1      -8.670  -4.368   1.804  0.00  0.00    -0.254 N 
ATOM     20  C   UNL     1      -6.266  -2.265   0.162  0.00  0.00    +0.067 C 
BRANCH  19  21
ATOM     21  C   UNL     1      -9.830  -4.569   2.675  0.00  0.00    +0.056 C 
ATOM     22  C   UNL     1      -9.487  -5.603   3.750  0.00  0.00    +0.036 C 
ATOM     23  C   UNL     1     -10.202  -3.244   3.343  0.00  0.00    +0.036 C 
ATOM     24  C   UNL     1     -11.012  -5.071   1.844  0.00  0.00    +0.036 C 
ENDBRANCH  19  21
ENDBRANCH  11  15
BRANCH   1  26
ATOM     25  N   UNL     1      -5.531  -9.162  -3.664  0.00  0.00    -0.312 N 
ATOM     26  C   UNL     1      -5.548  -8.754  -2.379  0.00  0.00    +0.218 C 
ATOM     27  O   UNL     1      -4.525  -8.761  -1.728  0.00  0.00    -0.275 OA
ATOM     28  H   UNL     1      -6.329  -9.082  -4.208  0.00  0.00    +0.149 HD
BRANCH  25  29
ATOM     29  C   UNL     1      -4.306  -9.726  -4.237  0.00  0.00    +0.148 C 
BRANCH  29  30
ATOM     30  C   UNL     1      -4.556 -10.105  -5.698  0.00  0.00    +0.187 C 
ATOM     31  C   UNL     1      -3.277 -10.695  -6.297  0.00  0.00    +0.053 C 
BRANCH  30  32
ATOM     32  O   UNL     1      -5.604 -11.074  -5.767  0.00  0.00    -0.488 OA
BRANCH  32  37
ATOM     33  C   UNL     1      -8.098 -11.794 -10.765  0.00  0.00    +0.044 C 
ATOM     34  C   UNL     1      -7.431 -11.601  -9.428  0.00  0.00    -0.050 A 
ATOM     35  C   UNL     1      -6.392 -10.698  -9.299  0.00  0.00    +0.007 A 
ATOM     36  C   UNL     1      -5.778 -10.520  -8.074  0.00  0.00    +0.046 A 
ATOM     37  C   UNL     1      -6.206 -11.247  -6.973  0.00  0.00    +0.121 A 
ATOM     38  C   UNL     1      -7.249 -12.152  -7.105  0.00  0.00    +0.046 A 
ATOM     39  C   UNL     1      -7.863 -12.323  -8.331  0.00  0.00    +0.007 A 
ENDBRANCH  32  37
ENDBRANCH  30  32
ENDBRANCH  29  30
ENDBRANCH  25  29
ENDBRANCH   1  26
TORSDOF 7
