REMARK  Name = ZINC03551328
REMARK  6 active torsions:
REMARK  status: ('A' for Active; 'I' for Inactive)
REMARK    1  A    between atoms: N_9  and  C_26
REMARK    2  A    between atoms: C_10  and  S_12
REMARK    3  A    between atoms: S_12  and  C_13
REMARK    4  A    between atoms: C_13  and  C_14
REMARK    5  A    between atoms: N_19  and  C_20
REMARK    6  A    between atoms: C_26  and  C_27
REMARK                            x       y       z     vdW  Elec       q    Type
REMARK                         _______ _______ _______ _____ _____    ______ ____
ROOT
ATOM      1  C   UNL     1       2.381   1.422  -0.013  0.00  0.00    +0.001 A 
ATOM      2  C   UNL     1       1.161   2.086   0.002  0.00  0.00    +0.002 A 
ATOM      3  C   UNL     1      -0.017   1.394   0.010  0.00  0.00    +0.028 A 
ATOM      4  C   UNL     1       0.002  -0.004   0.002  0.00  0.00    +0.079 A 
ATOM      5  C   UNL     1       1.245  -0.677  -0.013  0.00  0.00    +0.065 A 
ATOM      6  C   UNL     1       2.432   0.055  -0.021  0.00  0.00    +0.015 A 
ATOM      7  C   UNL     1       1.240  -2.146  -0.021  0.00  0.00    +0.263 A 
ATOM      8  O   UNL     1       2.278  -2.781  -0.034  0.00  0.00    -0.267 OA
ATOM      9  N   UNL     1       0.037  -2.766  -0.012  0.00  0.00    -0.280 N 
ATOM     10  C   UNL     1      -1.118  -2.037   0.003  0.00  0.00    +0.173 A 
ATOM     11  N   UNL     1      -1.136  -0.727   0.009  0.00  0.00    -0.223 NA
ENDROOT
BRANCH  10  12
ATOM     12  S   UNL     1      -2.655  -2.898   0.014  0.00  0.00    -0.078 S 
BRANCH  12  13
ATOM     13  C   UNL     1      -3.800  -1.496   0.033  0.00  0.00    +0.173 C 
BRANCH  13  14
ATOM     14  C   UNL     1      -5.218  -2.007   0.044  0.00  0.00    +0.231 C 
ATOM     15  O   UNL     1      -5.433  -3.200   0.041  0.00  0.00    -0.274 OA
ATOM     16  N   UNL     1      -6.248  -1.137   0.059  0.00  0.00    -0.239 N 
ATOM     17  C   UNL     1      -7.516  -1.593   0.070  0.00  0.00    +0.306 C 
ATOM     18  O   UNL     1      -7.731  -2.789   0.066  0.00  0.00    -0.252 OA
ATOM     19  N   UNL     1      -8.545  -0.723   0.084  0.00  0.00    -0.296 N 
ATOM     20  H   UNL     1      -6.075  -0.182   0.062  0.00  0.00    +0.159 HD
ATOM     21  H   UNL     1      -8.373   0.232   0.087  0.00  0.00    +0.151 HD
BRANCH  19  22
ATOM     22  C   UNL     1      -9.923  -1.219   0.096  0.00  0.00    +0.074 C 
ATOM     23  C   UNL     1     -10.375  -1.502  -1.338  0.00  0.00    +0.022 C 
ATOM     24  C   UNL     1     -11.815  -2.020  -1.326  0.00  0.00    +0.002 C 
ATOM     25  C   UNL     1     -12.731  -0.966  -0.702  0.00  0.00    +0.000 C 
ATOM     26  C   UNL     1     -12.279  -0.682   0.732  0.00  0.00    +0.002 C 
ATOM     27  C   UNL     1     -10.839  -0.164   0.720  0.00  0.00    +0.022 C 
ENDBRANCH  19  22
ENDBRANCH  13  14
ENDBRANCH  12  13
ENDBRANCH  10  12
BRANCH   9  28
ATOM     28  C   UNL     1      -0.027  -4.229  -0.019  0.00  0.00    +0.201 C 
BRANCH  28  29
ATOM     29  C   UNL     1      -0.063  -4.724  -1.443  0.00  0.00    +0.125 A 
ATOM     30  C   UNL     1       1.009  -5.024  -2.198  0.00  0.00    +0.046 A 
ATOM     31  C   UNL     1       0.519  -5.447  -3.455  0.00  0.00    +0.041 A 
ATOM     32  C   UNL     1      -0.823  -5.372  -3.395  0.00  0.00    +0.195 A 
ATOM     33  O   UNL     1      -1.170  -4.933  -2.174  0.00  0.00    -0.466 OA
ENDBRANCH  28  29
ENDBRANCH   9  28
TORSDOF 6
