REMARK  Name = ZINC23269121
REMARK  6 active torsions:
REMARK  status: ('A' for Active; 'I' for Inactive)
REMARK    1  A    between atoms: C_1  and  N_2
REMARK    2  A    between atoms: N_5  and  C_14
REMARK    3  A    between atoms: C_14  and  C_15
REMARK    4  A    between atoms: N_17  and  N_18
REMARK    5  A    between atoms: C_19  and  C_20
REMARK    6  A    between atoms: C_19  and  C_26
REMARK                            x       y       z     vdW  Elec       q    Type
REMARK                         _______ _______ _______ _____ _____    ______ ____
ROOT
ATOM      1  C   UNL     1      -0.569   1.418   2.253  0.00  0.00    +0.250 C 
ATOM      2  O   UNL     1      -0.976   0.424   2.818  0.00  0.00    -0.272 OA
ATOM      3  N   UNL     1      -1.329   2.018   1.316  0.00  0.00    -0.205 N 
ATOM      4  H   UNL     1      -0.960   2.919   0.803  0.00  0.00    +0.177 HD
ENDROOT
BRANCH   3   5
ATOM      5  N   UNL     1      -2.588   1.495   0.994  0.00  0.00    -0.179 NA
ATOM      6  C   UNL     1      -3.368   2.135   0.164  0.00  0.00    +0.096 C 
BRANCH   6   7
ATOM      7  C   UNL     1      -2.994   3.486  -0.311  0.00  0.00    +0.002 A 
ATOM      8  C   UNL     1      -2.385   4.391   0.559  0.00  0.00    +0.010 A 
ATOM      9  C   UNL     1      -2.034   5.647   0.109  0.00  0.00    +0.001 A 
ATOM     10  C   UNL     1      -2.296   6.014  -1.199  0.00  0.00    +0.000 A 
ATOM     11  C   UNL     1      -2.906   5.124  -2.065  0.00  0.00    +0.001 A 
ATOM     12  C   UNL     1      -3.256   3.863  -1.628  0.00  0.00    +0.010 A 
ENDBRANCH   6   7
BRANCH   6  13
ATOM     13  C   UNL     1      -4.625   1.508  -0.302  0.00  0.00    +0.002 A 
ATOM     14  C   UNL     1      -5.551   2.253  -1.033  0.00  0.00    +0.010 A 
ATOM     15  C   UNL     1      -6.718   1.661  -1.470  0.00  0.00    +0.001 A 
ATOM     16  C   UNL     1      -6.977   0.335  -1.174  0.00  0.00    +0.000 A 
ATOM     17  C   UNL     1      -6.066  -0.408  -0.445  0.00  0.00    +0.001 A 
ATOM     18  C   UNL     1      -4.893   0.170  -0.008  0.00  0.00    +0.010 A 
ENDBRANCH   6  13
ENDBRANCH   3   5
BRANCH   1  19
ATOM     19  C   UNL     1       0.788   1.977   2.595  0.00  0.00    +0.215 C 
BRANCH  19  24
ATOM     20  C   UNL     1       2.014   0.385   7.143  0.00  0.00    +0.134 C 
ATOM     21  N   UNL     1       1.948   0.452   5.681  0.00  0.00    -0.274 N 
ATOM     22  C   UNL     1       1.278   1.359   4.944  0.00  0.00    +0.312 C 
ATOM     23  O   UNL     1       0.623   2.265   5.420  0.00  0.00    -0.252 OA
ATOM     24  N   UNL     1       1.411   1.148   3.629  0.00  0.00    -0.215 N 
ATOM     25  C   UNL     1       2.196   0.080   3.374  0.00  0.00    +0.247 C 
ATOM     26  O   UNL     1       2.507  -0.359   2.288  0.00  0.00    -0.273 OA
ATOM     27  C   UNL     1       2.605  -0.453   4.729  0.00  0.00    +0.115 C 
ATOM     28  C   UNL     1       4.120  -0.391   4.889  0.00  0.00    +0.035 C 
ATOM     29  C   UNL     1       4.511  -0.908   6.276  0.00  0.00    +0.003 C 
ATOM     30  C   UNL     1       4.023  -2.349   6.437  0.00  0.00    +0.000 C 
ATOM     31  C   UNL     1       2.500  -2.391   6.298  0.00  0.00    +0.003 C 
ATOM     32  C   UNL     1       2.100  -1.880   4.912  0.00  0.00    +0.035 C 
ENDBRANCH  19  24
ENDBRANCH   1  19
TORSDOF 5
