REMARK  Name = ZINC41584462
REMARK  11 active torsions:
REMARK  status: ('A' for Active; 'I' for Inactive)
REMARK    1  A    between atoms: C_1  and  C_2
REMARK    2  A    between atoms: C_2  and  C_3
REMARK    3  A    between atoms: C_3  and  N_4
REMARK    4  A    between atoms: N_4  and  C_5
REMARK    5  A    between atoms: N_4  and  C_8
REMARK    6  A    between atoms: C_5  and  C_6
REMARK    7  A    between atoms: C_6  and  C_7
REMARK    8  A    between atoms: C_8  and  C_9
REMARK    9  A    between atoms: C_10  and  O_32
REMARK   10  A    between atoms: C_12  and  C_31
REMARK   11  A    between atoms: C_17  and  C_18
REMARK                            x       y       z     vdW  Elec       q    Type
REMARK                         _______ _______ _______ _____ _____    ______ ____
ROOT
ATOM      1  C   UNL     1      -2.950  -4.179  -0.817  0.00  0.00    +0.020 A 
ATOM      2  C   UNL     1      -2.993  -4.933  -1.978  0.00  0.00    +0.122 A 
ATOM      3  C   UNL     1      -3.198  -6.309  -1.923  0.00  0.00    +0.050 A 
ATOM      4  C   UNL     1      -3.360  -6.931  -0.717  0.00  0.00    -0.033 A 
ATOM      5  C   UNL     1      -3.318  -6.184   0.461  0.00  0.00    +0.071 A 
ATOM      6  C   UNL     1      -3.107  -4.797   0.418  0.00  0.00    +0.145 A 
ATOM      7  O   UNL     1      -3.102  -4.298   1.673  0.00  0.00    -0.451 OA
ATOM      8  C   UNL     1      -3.293  -5.266   2.600  0.00  0.00    +0.176 C 
ATOM      9  C   UNL     1      -3.341  -5.090   3.946  0.00  0.00    +0.061 C 
ATOM     10  C   UNL     1      -3.454  -6.540   1.885  0.00  0.00    +0.232 C 
ATOM     11  O   UNL     1      -3.644  -7.645   2.363  0.00  0.00    -0.283 OA
ATOM     12  C   UNL     1      -3.582  -8.420  -0.660  0.00  0.00    +0.045 C 
ENDROOT
BRANCH   9  13
ATOM     13  C   UNL     1      -3.395  -6.255   4.837  0.00  0.00    +0.022 A 
ATOM     14  C   UNL     1      -2.601  -7.378   4.576  0.00  0.00    +0.031 A 
ATOM     15  C   UNL     1      -2.660  -8.469   5.417  0.00  0.00    +0.042 A 
ATOM     16  C   UNL     1      -3.503  -8.459   6.518  0.00  0.00    +0.029 A 
ATOM     17  C   UNL     1      -4.293  -7.356   6.787  0.00  0.00    +0.022 A 
ATOM     18  C   UNL     1      -4.240  -6.247   5.960  0.00  0.00    +0.136 A 
ATOM     19  O   UNL     1      -4.998  -5.152   6.221  0.00  0.00    -0.465 OA
ATOM     20  C   UNL     1      -6.085  -5.321   7.136  0.00  0.00    +0.395 C 
ATOM     21  O   UNL     1      -5.607  -6.025   8.289  0.00  0.00    -0.339 OA
ATOM     22  C   UNL     1      -5.206  -7.369   7.988  0.00  0.00    +0.202 C 
ATOM     23 CL   UNL     1      -1.675  -9.862   5.096  0.00  0.00    -0.084 Cl
ENDBRANCH   9  13
BRANCH   2  24
ATOM     24  O   UNL     1      -2.834  -4.324  -3.181  0.00  0.00    -0.506 OA
ATOM     25  H   UNL     1      -1.915  -4.276  -3.479  0.00  0.00    +0.292 HD
ENDBRANCH   2  24
BRANCH   1  26
ATOM     26  C   UNL     1      -2.727  -2.691  -0.891  0.00  0.00    -0.036 C 
BRANCH  26  27
ATOM     27  N   UNL     1      -1.306  -2.397  -0.664  0.00  0.00    +0.383 N 
ATOM     28  H   UNL     1      -1.013  -2.809   0.209  0.00  0.00    -0.081 HD
BRANCH  27  29
ATOM     29  C   UNL     1      -0.508  -2.956  -1.763  0.00  0.00    -0.079 C 
BRANCH  29  31
ATOM     30  C   UNL     1       1.811  -3.342  -2.609  0.00  0.00    +0.002 C 
ATOM     31  C   UNL     1       0.980  -2.760  -1.464  0.00  0.00    -0.022 C 
ENDBRANCH  29  31
ENDBRANCH  27  29
BRANCH  27  32
ATOM     32  C   UNL     1      -1.110  -0.942  -0.608  0.00  0.00    -0.079 C 
BRANCH  32  33
ATOM     33  C   UNL     1      -1.813  -0.380   0.629  0.00  0.00    -0.022 C 
ATOM     34  C   UNL     1      -1.681   1.145   0.643  0.00  0.00    +0.002 C 
ENDBRANCH  32  33
ENDBRANCH  27  32
ENDBRANCH  26  27
ENDBRANCH   1  26
TORSDOF 8
