REMARK  Name = ZINC10550923
REMARK  10 active torsions:
REMARK  status: ('A' for Active; 'I' for Inactive)
REMARK    1  A    between atoms: C_1  and  O_2
REMARK    2  A    between atoms: O_2  and  C_3
REMARK    3  A    between atoms: C_5  and  N_34
REMARK    4  A    between atoms: C_8  and  C_9
REMARK    5  A    between atoms: C_9  and  O_11
REMARK    6  A    between atoms: O_11  and  C_12
REMARK    7  A    between atoms: C_12  and  C_14
REMARK    8  A    between atoms: C_12  and  C_20
REMARK    9  A    between atoms: N_22  and  C_23
REMARK   10  A    between atoms: C_26  and  N_30
REMARK                            x       y       z     vdW  Elec       q    Type
REMARK                         _______ _______ _______ _____ _____    ______ ____
ROOT
ATOM      1  C   UNL     1      -3.712  -1.063  -0.202  0.00  0.00    +0.292 C 
ENDROOT
BRANCH   1   2
ATOM      2  C   UNL     1      -4.498  -0.904   1.074  0.00  0.00    +0.002 A 
ATOM      3  C   UNL     1      -4.187  -1.676   2.178  0.00  0.00    +0.008 A 
ATOM      4  C   UNL     1      -4.905  -1.528   3.350  0.00  0.00    +0.000 A 
ATOM      5  C   UNL     1      -5.941  -0.614   3.415  0.00  0.00    +0.000 A 
ATOM      6  C   UNL     1      -6.255   0.154   2.309  0.00  0.00    +0.000 A 
ATOM      7  C   UNL     1      -5.534   0.009   1.139  0.00  0.00    +0.008 A 
ENDBRANCH   1   2
BRANCH   1   8
ATOM      8  C   UNL     1      -2.415  -0.303  -0.090  0.00  0.00    +0.263 C 
ATOM      9  O   UNL     1      -1.359  -0.901  -0.098  0.00  0.00    -0.271 OA
ATOM     10  N   UNL     1      -2.428   1.040   0.019  0.00  0.00    -0.281 N 
ATOM     11  H   UNL     1      -3.271   1.511   0.107  0.00  0.00    +0.155 HD
BRANCH  10  12
ATOM     12  C   UNL     1      -1.225   1.755   0.006  0.00  0.00    +0.052 A 
ATOM     13  C   UNL     1      -0.102   1.218  -0.610  0.00  0.00    +0.027 A 
ATOM     14  C   UNL     1       1.082   1.928  -0.626  0.00  0.00    +0.034 A 
ATOM     15  C   UNL     1       1.153   3.171  -0.025  0.00  0.00    +0.128 A 
ATOM     16  C   UNL     1       0.039   3.708   0.595  0.00  0.00    +0.054 A 
ATOM     17  C   UNL     1      -1.149   3.002   0.615  0.00  0.00    +0.064 A 
ATOM     18 CL   UNL     1      -2.547   3.676   1.392  0.00  0.00    -0.082 Cl
BRANCH  15  19
ATOM     19  N   UNL     1       2.424   3.930  -0.045  0.00  0.00    +0.056 N 
ATOM     20  O   UNL     1       3.406   3.459  -0.591  0.00  0.00    -0.126 OA
ATOM     21  O   UNL     1       2.488   5.025   0.484  0.00  0.00    -0.126 OA
ENDBRANCH  15  19
ENDBRANCH  10  12
ENDBRANCH   1   8
BRANCH   1  22
ATOM     22  O   UNL     1      -3.431  -2.470  -0.425  0.00  0.00    -0.443 OA
BRANCH  22  23
ATOM     23  C   UNL     1      -4.337  -3.169  -1.138  0.00  0.00    +0.344 C 
ATOM     24  O   UNL     1      -5.334  -2.617  -1.561  0.00  0.00    -0.245 OA
BRANCH  23  30
ATOM     25  C   UNL     1      -5.060  -5.329  -2.146  0.00  0.00    +0.136 A 
ATOM     26  C   UNL     1      -4.845  -6.674  -2.391  0.00  0.00    +0.070 A 
ATOM     27  C   UNL     1      -3.701  -7.293  -1.903  0.00  0.00    +0.047 A 
ATOM     28  C   UNL     1      -2.768  -6.563  -1.167  0.00  0.00    +0.063 A 
ATOM     29  C   UNL     1      -2.967  -5.235  -0.924  0.00  0.00    +0.040 A 
ATOM     30  C   UNL     1      -4.118  -4.598  -1.404  0.00  0.00    +0.102 A 
ATOM     31 CL   UNL     1      -1.341  -7.347  -0.562  0.00  0.00    -0.082 Cl
BRANCH  27  32
ATOM     32  N   UNL     1      -3.485  -8.644  -2.151  0.00  0.00    -0.357 N 
ATOM     33  H   UNL     1      -4.133  -9.153  -2.663  0.00  0.00    +0.142 HD
ATOM     34  H   UNL     1      -2.687  -9.078  -1.811  0.00  0.00    +0.142 HD
ENDBRANCH  27  32
BRANCH  25  36
ATOM     35  C   UNL     1      -7.089  -5.527  -3.366  0.00  0.00    +0.277 C 
ATOM     36  O   UNL     1      -6.176  -4.720  -2.620  0.00  0.00    -0.494 OA
ENDBRANCH  25  36
ENDBRANCH  23  30
ENDBRANCH  22  23
ENDBRANCH   1  22
TORSDOF 9
