REMARK  Name = ZINC09556392
REMARK  4 active torsions:
REMARK  status: ('A' for Active; 'I' for Inactive)
REMARK    1  A    between atoms: C_1  and  C_2
REMARK    2  A    between atoms: C_2  and  C_35
REMARK    3  A    between atoms: C_6  and  C_27
REMARK    4  A    between atoms: N_8  and  C_16
REMARK                            x       y       z     vdW  Elec       q    Type
REMARK                         _______ _______ _______ _____ _____    ______ ____
ROOT
ATOM      1  C   UNL     1       0.275   3.052   3.976  0.00  0.00    +0.011 C 
ATOM      2  C   UNL     1      -1.232   3.190   4.204  0.00  0.00    -0.023 C 
ATOM      3  C   UNL     1      -1.791   4.300   3.313  0.00  0.00    +0.058 C 
ATOM      4  C   UNL     1      -1.583   3.953   1.859  0.00  0.00    +0.017 C 
ATOM      5  C   UNL     1      -1.526   2.671   1.429  0.00  0.00    +0.040 C 
ATOM      6  C   UNL     1      -1.279   2.203   0.011  0.00  0.00    +0.178 C 
ATOM      7  N   UNL     1      -1.070   3.283  -0.940  0.00  0.00    -0.275 N 
ATOM      8  C   UNL     1      -2.182   4.117  -1.090  0.00  0.00    +0.055 A 
ATOM      9  C   UNL     1      -3.042   4.055  -2.168  0.00  0.00    +0.025 A 
ATOM     10  C   UNL     1      -4.082   4.970  -2.245  0.00  0.00    +0.002 A 
ATOM     11  C   UNL     1      -4.251   5.923  -1.258  0.00  0.00    +0.002 A 
ATOM     12  C   UNL     1      -3.394   5.971  -0.169  0.00  0.00    +0.025 A 
ATOM     13  C   UNL     1      -2.366   5.051  -0.090  0.00  0.00    +0.053 A 
ATOM     14  N   UNL     1      -1.470   4.997   0.983  0.00  0.00    -0.316 N 
ATOM     15  C   UNL     1      -1.707   1.622   2.361  0.00  0.00    +0.163 C 
ATOM     16  O   UNL     1      -1.676   0.473   1.966  0.00  0.00    -0.292 OA
ATOM     17  C   UNL     1      -1.936   1.883   3.820  0.00  0.00    +0.086 C 
ATOM     18  C   UNL     1      -1.507   3.516   5.673  0.00  0.00    +0.011 C 
ATOM     19  H   UNL     1      -0.789   5.678   1.101  0.00  0.00    +0.152 HD
ENDROOT
BRANCH   7  20
ATOM     20  C   UNL     1      -0.624   2.761  -2.239  0.00  0.00    +0.300 C 
ATOM     21  C   UNL     1      -0.678   3.851  -3.280  0.00  0.00    +0.025 A 
ATOM     22  C   UNL     1      -0.058   5.071  -3.405  0.00  0.00    +0.010 A 
ATOM     23  C   UNL     1      -0.320   5.871  -4.505  0.00  0.00    +0.000 A 
ATOM     24  C   UNL     1      -1.204   5.446  -5.481  0.00  0.00    +0.001 A 
ATOM     25  C   UNL     1      -1.832   4.223  -5.366  0.00  0.00    +0.015 A 
ATOM     26  C   UNL     1      -1.574   3.411  -4.260  0.00  0.00    +0.067 A 
ATOM     27  C   UNL     1      -2.075   2.084  -3.859  0.00  0.00    +0.342 C 
ATOM     28  O   UNL     1      -2.872   1.421  -4.493  0.00  0.00    -0.245 OA
ATOM     29  O   UNL     1      -1.524   1.713  -2.692  0.00  0.00    -0.435 OA
ENDBRANCH   7  20
BRANCH   6  30
ATOM     30  C   UNL     1      -0.062   1.314   0.004  0.00  0.00    +0.130 A 
ATOM     31  C   UNL     1      -0.070  -0.031  -0.012  0.00  0.00    +0.047 A 
ATOM     32  C   UNL     1       1.281  -0.448  -0.019  0.00  0.00    +0.041 A 
ATOM     33  C   UNL     1       2.033   0.666  -0.007  0.00  0.00    +0.195 A 
ATOM     34  O   UNL     1       1.215   1.731   0.007  0.00  0.00    -0.466 OA
ENDBRANCH   6  30
TORSDOF 2
