REMARK  Name = ZINC02769769
REMARK  8 active torsions:
REMARK  status: ('A' for Active; 'I' for Inactive)
REMARK    1  A    between atoms: C_3  and  O_9
REMARK    2  A    between atoms: O_9  and  C_10
REMARK    3  A    between atoms: C_10  and  C_11
REMARK    4  A    between atoms: C_14  and  C_16
REMARK    5  A    between atoms: C_25  and  C_33
REMARK    6  A    between atoms: C_26  and  N_32
REMARK    7  A    between atoms: C_27  and  C_28
REMARK    8  A    between atoms: C_27  and  C_30
REMARK                            x       y       z     vdW  Elec       q    Type
REMARK                         _______ _______ _______ _____ _____    ______ ____
ROOT
ATOM      1  C   UNL     1       6.729  -2.058  -1.709  0.00  0.00    +0.102 C 
ATOM      2  C   UNL     1       6.220  -3.188  -2.605  0.00  0.00    +0.033 C 
ATOM      3  C   UNL     1       5.546  -4.282  -1.813  0.00  0.00    +0.009 C 
ATOM      4  C   UNL     1       6.465  -5.484  -1.602  0.00  0.00    +0.005 C 
ATOM      5  C   UNL     1       6.892  -6.013  -2.979  0.00  0.00    +0.027 C 
ATOM      6  C   UNL     1       7.656  -4.915  -3.674  0.00  0.00    -0.022 C 
ATOM      7  C   UNL     1       7.353  -3.648  -3.473  0.00  0.00    -0.029 C 
ATOM      8  C   UNL     1       8.165  -2.591  -4.130  0.00  0.00    +0.074 C 
ATOM      9  C   UNL     1       8.063  -1.310  -3.695  0.00  0.00    +0.054 C 
ATOM     10  C   UNL     1       7.147  -0.879  -2.590  0.00  0.00    +0.191 C 
ENDROOT
BRANCH   1  14
ATOM     11  C   UNL     1       3.712  -0.862  -0.037  0.00  0.00    +0.142 A 
ATOM     12  C   UNL     1       4.453  -1.158   1.046  0.00  0.00    +0.048 A 
ATOM     13  C   UNL     1       5.691  -1.649   0.573  0.00  0.00    +0.045 A 
ATOM     14  C   UNL     1       5.633  -1.623  -0.771  0.00  0.00    +0.112 A 
ATOM     15  O   UNL     1       4.429  -1.151  -1.135  0.00  0.00    -0.461 OA
BRANCH  11  16
ATOM     16  C   UNL     1       2.311  -0.306  -0.021  0.00  0.00    +0.303 C 
BRANCH  16  17
ATOM     17  O   UNL     1       2.365   1.122  -0.014  0.00  0.00    -0.481 OA
BRANCH  17  20
ATOM     18  C   UNL     1      -1.219   1.751   0.017  0.00  0.00    +0.042 A 
ATOM     19  C   UNL     1      -0.013   1.076   0.008  0.00  0.00    +0.051 A 
ATOM     20  C   UNL     1       1.178   1.785   0.000  0.00  0.00    +0.156 A 
ATOM     21  C   UNL     1       1.157   3.174   0.008  0.00  0.00    +0.168 A 
ATOM     22  C   UNL     1      -0.051   3.846   0.023  0.00  0.00    +0.080 A 
ATOM     23  C   UNL     1      -1.239   3.135   0.031  0.00  0.00    +0.126 A 
ATOM     24  F   UNL     1      -2.419   3.792   0.046  0.00  0.00    -0.205 F 
ATOM     25  F   UNL     1       2.317   3.868   0.000  0.00  0.00    -0.202 F 
ENDBRANCH  17  20
ENDBRANCH  16  17
ENDBRANCH  11  16
ENDBRANCH   1  14
BRANCH   9  26
ATOM     26  N   UNL     1       8.837  -0.359  -4.299  0.00  0.00    -0.358 N 
ATOM     27  H   UNL     1       8.778   0.689  -3.970  0.00  0.00    +0.142 HD
ATOM     28  H   UNL     1       9.520  -0.642  -5.113  0.00  0.00    +0.142 HD
ENDBRANCH   9  26
BRANCH  10  29
ATOM     29  C   UNL     1       5.943  -0.267  -3.175  0.00  0.00    +0.091 C 
ATOM     30  N   UNL     1       5.013   0.205  -3.626  0.00  0.00    -0.194 NA
ENDBRANCH  10  29
BRANCH  10  31
ATOM     31  C   UNL     1       7.836   0.121  -1.758  0.00  0.00    +0.091 C 
ATOM     32  N   UNL     1       8.367   0.893  -1.116  0.00  0.00    -0.194 NA
ENDBRANCH  10  31
BRANCH   8  33
ATOM     33  C   UNL     1       9.047  -2.921  -5.210  0.00  0.00    +0.101 C 
ATOM     34  N   UNL     1       9.746  -3.183  -6.066  0.00  0.00    -0.191 NA
ENDBRANCH   8  33
TORSDOF 8
