REMARK  Name = ZINC09155190
REMARK  7 active torsions:
REMARK  status: ('A' for Active; 'I' for Inactive)
REMARK    1  A    between atoms: C_1  and  C_2
REMARK    2  A    between atoms: C_2  and  C_3
REMARK    3  A    between atoms: C_3  and  C_28
REMARK    4  A    between atoms: N_6  and  N_10
REMARK    5  A    between atoms: C_11  and  C_13
REMARK    6  A    between atoms: C_13  and  N_57
REMARK    7  A    between atoms: C_21  and  C_23
REMARK                            x       y       z     vdW  Elec       q    Type
REMARK                         _______ _______ _______ _____ _____    ______ ____
ROOT
ATOM      1  N   UNL     1       4.568  -5.657   1.182  0.00  0.00    -0.225 N 
ATOM      2  C   UNL     1       4.187  -4.369   1.072  0.00  0.00    +0.213 C 
ATOM      3  O   UNL     1       4.894  -3.488   1.514  0.00  0.00    -0.276 OA
ATOM      4  H   UNL     1       4.003  -6.362   0.828  0.00  0.00    +0.173 HD
ENDROOT
BRANCH   1   8
ATOM      5  C   UNL     1       7.939  -6.603   2.218  0.00  0.00    +0.139 C 
ATOM      6  C   UNL     1       6.891  -6.368   1.149  0.00  0.00    +0.268 C 
ATOM      7  O   UNL     1       7.024  -6.502  -0.049  0.00  0.00    -0.271 OA
ATOM      8  N   UNL     1       5.780  -5.979   1.806  0.00  0.00    -0.137 N 
ATOM      9  C   UNL     1       5.978  -5.942   3.129  0.00  0.00    +0.327 C 
ATOM     10  O   UNL     1       5.121  -5.624   3.931  0.00  0.00    -0.251 OA
ATOM     11  N   UNL     1       7.229  -6.296   3.472  0.00  0.00    -0.280 N 
ATOM     12  H   UNL     1       7.593  -6.342   4.370  0.00  0.00    +0.152 HD
BRANCH   5  13
ATOM     13  C   UNL     1       8.393  -8.040   2.203  0.00  0.00    -0.015 A 
ATOM     14  C   UNL     1       9.524  -8.400   1.495  0.00  0.00    +0.006 A 
ATOM     15  C   UNL     1       9.943  -9.717   1.485  0.00  0.00    +0.000 A 
ATOM     16  C   UNL     1       9.226 -10.676   2.176  0.00  0.00    +0.000 A 
ATOM     17  C   UNL     1       8.092 -10.316   2.880  0.00  0.00    +0.000 A 
ATOM     18  C   UNL     1       7.676  -8.998   2.894  0.00  0.00    +0.006 A 
ENDBRANCH   5  13
BRANCH   5  20
ATOM     19  C   UNL     1       8.653  -4.210   2.120  0.00  0.00    +0.007 C 
ATOM     20  C   UNL     1       9.130  -5.661   2.030  0.00  0.00    +0.037 C 
ENDBRANCH   5  20
ENDBRANCH   1   8
BRANCH   2  21
ATOM     21  C   UNL     1       2.883  -4.024   0.401  0.00  0.00    +0.021 C 
BRANCH  21  30
ATOM     22  C   UNL     1       3.729  -1.901  -0.401  0.00  0.00    -0.072 C 
ATOM     23  C   UNL     1       3.756  -0.406  -0.038  0.00  0.00    +0.024 C 
ATOM     24  C   UNL     1       2.344   0.083  -0.020  0.00  0.00    -0.010 A 
ATOM     25  C   UNL     1       1.218  -0.684  -0.013  0.00  0.00    -0.046 A 
ATOM     26  C   UNL     1       0.002  -0.004   0.002  0.00  0.00    +0.010 A 
ATOM     27  C   UNL     1      -0.016   1.349   0.009  0.00  0.00    +0.045 A 
ATOM     28  S   UNL     1       1.727   1.742  -0.005  0.00  0.00    -0.101 S 
ATOM     29  C   UNL     1       1.342  -2.205  -0.019  0.00  0.00    +0.002 C 
ATOM     30  N   UNL     1       2.704  -2.559   0.444  0.00  0.00    +0.393 N 
ATOM     31  H   UNL     1       2.818  -2.239   1.413  0.00  0.00    -0.080 HD
BRANCH  29  32
ATOM     32  C   UNL     1       0.336  -2.798   0.933  0.00  0.00    -0.019 A 
ATOM     33  C   UNL     1      -0.872  -3.351   0.663  0.00  0.00    +0.010 A 
ATOM     34  C   UNL     1      -1.633  -3.841   1.708  0.00  0.00    +0.008 A 
ATOM     35  C   UNL     1      -1.154  -3.745   2.972  0.00  0.00    +0.045 A 
ATOM     36  S   UNL     1       0.422  -2.949   2.710  0.00  0.00    -0.103 S 
ENDBRANCH  29  32
ENDBRANCH  21  30
ENDBRANCH   2  21
TORSDOF 6
