REMARK  Name = ZINC00947563
REMARK  9 active torsions:
REMARK  status: ('A' for Active; 'I' for Inactive)
REMARK    1  A    between atoms: C_1  and  C_2
REMARK    2  A    between atoms: C_5  and  S_8
REMARK    3  A    between atoms: S_8  and  N_11
REMARK    4  A    between atoms: N_11  and  C_12
REMARK    5  A    between atoms: C_14  and  C_23
REMARK    6  A    between atoms: C_15  and  O_22
REMARK    7  A    between atoms: C_17  and  C_18
REMARK    8  A    between atoms: C_18  and  C_19
REMARK    9  A    between atoms: C_18  and  C_20
REMARK                            x       y       z     vdW  Elec       q    Type
REMARK                         _______ _______ _______ _____ _____    ______ ____
ROOT
ATOM      1  C   UNL     1       3.682   2.853   0.089  0.00  0.00    +0.053 A 
ATOM      2  C   UNL     1       2.930   2.598  -1.050  0.00  0.00    +0.031 A 
ATOM      3  C   UNL     1       1.620   2.176  -0.932  0.00  0.00    -0.006 A 
ATOM      4  C   UNL     1       1.055   2.007   0.323  0.00  0.00    +0.138 A 
ATOM      5  C   UNL     1       1.803   2.268   1.462  0.00  0.00    +0.088 A 
ATOM      6  C   UNL     1       3.116   2.684   1.346  0.00  0.00    -0.001 A 
ATOM      7 CL   UNL     1       1.093   2.064   3.033  0.00  0.00    -0.079 Cl
ATOM      8  C   UNL     1       0.804   1.899  -2.169  0.00  0.00    +0.047 C 
ENDROOT
BRANCH   6   9
ATOM      9  C   UNL     1       3.931   2.961   2.583  0.00  0.00    +0.016 C 
ATOM     10  C   UNL     1       3.258   4.066   3.401  0.00  0.00    +0.012 C 
ATOM     11  C   UNL     1       4.026   1.688   3.427  0.00  0.00    +0.012 C 
ENDBRANCH   6   9
BRANCH   1  12
ATOM     12  N   UNL     1       5.009   3.281  -0.029  0.00  0.00    -0.216 N 
ATOM     13  H   UNL     1       5.672   2.989   0.616  0.00  0.00    +0.174 HD
BRANCH  12  14
ATOM     14  S   UNL     1       5.447   4.285  -1.270  0.00  0.00    +0.072 S 
ATOM     15  O   UNL     1       6.804   4.642  -1.044  0.00  0.00    -0.150 OA
ATOM     16  O   UNL     1       5.013   3.661  -2.471  0.00  0.00    -0.150 OA
BRANCH  14  21
ATOM     17  C   UNL     1       2.215   9.348  -0.695  0.00  0.00    +0.044 C 
ATOM     18  C   UNL     1       3.022   8.084  -0.839  0.00  0.00    -0.050 A 
ATOM     19  C   UNL     1       4.253   7.975  -0.218  0.00  0.00    +0.005 A 
ATOM     20  C   UNL     1       4.993   6.815  -0.350  0.00  0.00    +0.029 A 
ATOM     21  C   UNL     1       4.503   5.764  -1.102  0.00  0.00    +0.109 A 
ATOM     22  C   UNL     1       3.275   5.874  -1.726  0.00  0.00    +0.029 A 
ATOM     23  C   UNL     1       2.532   7.032  -1.591  0.00  0.00    +0.005 A 
ENDBRANCH  14  21
ENDBRANCH  12  14
ENDBRANCH   1  12
BRANCH   4  24
ATOM     24  O   UNL     1      -0.235   1.592   0.437  0.00  0.00    -0.505 OA
ATOM     25  H   UNL     1      -0.337   0.631   0.480  0.00  0.00    +0.292 HD
ENDBRANCH   4  24
TORSDOF 5
