REMARK  Name = ZINC18084475
REMARK  4 active torsions:
REMARK  status: ('A' for Active; 'I' for Inactive)
REMARK    1  A    between atoms: C_4  and  N_7
REMARK    2  A    between atoms: N_8  and  C_9
REMARK    3  A    between atoms: C_17  and  C_24
REMARK    4  A    between atoms: C_19  and  C_20
REMARK                            x       y       z     vdW  Elec       q    Type
REMARK                         _______ _______ _______ _____ _____    ______ ____
ROOT
ATOM      1  C   UNL     1       4.796  -2.573  -0.060  0.00  0.00    +0.195 A 
ATOM      2  C   UNL     1       4.980  -3.978  -0.075  0.00  0.00    +0.294 A 
ATOM      3  O   UNL     1       4.096  -4.816  -0.077  0.00  0.00    -0.264 OA
ATOM      4  N   UNL     1       6.304  -4.223  -0.089  0.00  0.00    -0.255 N 
ATOM      5  H   UNL     1       6.713  -5.102  -0.101  0.00  0.00    +0.191 HD
ATOM      6  N   UNL     1       6.995  -3.006  -0.082  0.00  0.00    -0.228 N 
ATOM      7  C   UNL     1       6.085  -1.988  -0.070  0.00  0.00    +0.186 A 
ATOM      8  N   UNL     1       6.484  -0.717  -0.066  0.00  0.00    -0.230 NA
ATOM      9  C   UNL     1       7.766  -0.411  -0.077  0.00  0.00    +0.049 A 
ATOM     10  C   UNL     1       8.725  -1.426  -0.093  0.00  0.00    +0.056 A 
ATOM     11  C   UNL     1       8.319  -2.725  -0.090  0.00  0.00    +0.147 A 
ENDROOT
BRANCH  11  12
ATOM     12  C   UNL     1       9.333  -3.840  -0.110  0.00  0.00    +0.434 C 
ATOM     13  F   UNL     1      10.623  -3.297  -0.115  0.00  0.00    -0.164 F 
ATOM     14  F   UNL     1       9.169  -4.640   1.026  0.00  0.00    -0.164 F 
ATOM     15  F   UNL     1       9.150  -4.617  -1.258  0.00  0.00    -0.164 F 
ENDBRANCH  11  12
BRANCH   9  16
ATOM     16  C   UNL     1       8.197   1.033  -0.073  0.00  0.00    +0.038 C 
ATOM     17  C   UNL     1       7.833   1.876   1.151  0.00  0.00    +0.010 C 
ATOM     18  C   UNL     1       7.102   2.097  -0.174  0.00  0.00    +0.010 C 
ENDBRANCH   9  16
BRANCH   1  20
ATOM     19  N   UNL     1       3.599  -0.630  -0.037  0.00  0.00    -0.149 NA
ATOM     20  N   UNL     1       3.621  -1.920  -0.044  0.00  0.00    -0.140 NA
BRANCH  19  24
ATOM     21  C   UNL     1      -0.017   1.380   0.010  0.00  0.00    +0.000 A 
ATOM     22  C   UNL     1       1.168   2.095   0.002  0.00  0.00    +0.002 A 
ATOM     23  C   UNL     1       2.377   1.431  -0.013  0.00  0.00    +0.029 A 
ATOM     24  C   UNL     1       2.404   0.034  -0.021  0.00  0.00    +0.086 A 
ATOM     25  C   UNL     1       1.204  -0.681  -0.013  0.00  0.00    +0.029 A 
ATOM     26  C   UNL     1       0.002  -0.004   0.002  0.00  0.00    +0.002 A 
ENDBRANCH  19  24
ENDBRANCH   1  20
TORSDOF 4
