REMARK  Name = ZINC28261218
REMARK  10 active torsions:
REMARK  status: ('A' for Active; 'I' for Inactive)
REMARK    1  A    between atoms: C_6  and  S_7
REMARK    2  A    between atoms: S_7  and  N_10
REMARK    3  A    between atoms: N_10  and  C_11
REMARK    4  A    between atoms: C_11  and  C_12
REMARK    5  A    between atoms: N_14  and  C_15
REMARK    6  A    between atoms: C_15  and  C_17
REMARK    7  A    between atoms: C_15  and  C_26
REMARK    8  A    between atoms: C_17  and  C_18
REMARK    9  A    between atoms: C_18  and  N_19
REMARK   10  A    between atoms: N_19  and  C_20
REMARK                            x       y       z     vdW  Elec       q    Type
REMARK                         _______ _______ _______ _____ _____    ______ ____
ROOT
ATOM      1  C   UNL     1       2.458   1.124  -0.009  0.00  0.00    +0.160 C 
ENDROOT
BRANCH   1   2
ATOM      2  C   UNL     1       2.958   0.799  -1.393  0.00  0.00    +0.236 C 
ATOM      3  O   UNL     1       2.715   1.546  -2.317  0.00  0.00    -0.274 OA
ATOM      4  N   UNL     1       3.676  -0.322  -1.604  0.00  0.00    -0.300 N 
ATOM      5  C   UNL     1       3.891  -1.289  -0.518  0.00  0.00    +0.108 C 
ATOM      6  C   UNL     1       3.444  -2.676  -1.004  0.00  0.00    +0.019 C 
ATOM      7  C   UNL     1       4.178  -3.017  -2.303  0.00  0.00    +0.003 C 
ATOM      8  C   UNL     1       3.816  -1.991  -3.379  0.00  0.00    +0.019 C 
ATOM      9  C   UNL     1       4.263  -0.598  -2.922  0.00  0.00    +0.108 C 
ENDBRANCH   1   2
BRANCH   1  12
ATOM     10  C   UNL     1       0.111   1.702  -0.321  0.00  0.00    +0.229 C 
ATOM     11  O   UNL     1      -0.133   0.521  -0.446  0.00  0.00    -0.274 OA
ATOM     12  N   UNL     1       1.377   2.109  -0.099  0.00  0.00    -0.303 N 
ATOM     13  H   UNL     1       1.598   3.180   0.014  0.00  0.00    +0.149 HD
BRANCH  10  14
ATOM     14  C   UNL     1      -1.000   2.716  -0.420  0.00  0.00    +0.201 C 
BRANCH  14  15
ATOM     15  N   UNL     1      -2.268   2.027  -0.669  0.00  0.00    -0.181 NA
ATOM     16  H   UNL     1      -2.272   1.038  -1.150  0.00  0.00    +0.149 HD
BRANCH  15  17
ATOM     17  S   UNL     1      -3.701   2.829  -0.457  0.00  0.00    +0.059 S 
ATOM     18  O   UNL     1      -4.734   1.914  -0.798  0.00  0.00    -0.153 OA
ATOM     19  O   UNL     1      -3.631   3.458   0.816  0.00  0.00    -0.153 OA
BRANCH  17  25
ATOM     20  C   UNL     1      -3.254   5.371  -1.346  0.00  0.00    +0.030 A 
ATOM     21  C   UNL     1      -3.293   6.383  -2.287  0.00  0.00    +0.022 A 
ATOM     22  C   UNL     1      -3.845   6.147  -3.533  0.00  0.00    +0.041 A 
ATOM     23  C   UNL     1      -4.354   4.897  -3.839  0.00  0.00    +0.022 A 
ATOM     24  C   UNL     1      -4.310   3.885  -2.899  0.00  0.00    +0.030 A 
ATOM     25  C   UNL     1      -3.757   4.121  -1.654  0.00  0.00    +0.105 A 
ATOM     26 CL   UNL     1      -3.900   7.419  -4.713  0.00  0.00    -0.084 Cl
ENDBRANCH  17  25
ENDBRANCH  15  17
ENDBRANCH  14  15
ENDBRANCH  10  14
ENDBRANCH   1  12
BRANCH   1  27
ATOM     27  C   UNL     1       3.604   1.700   0.825  0.00  0.00    +0.050 C 
BRANCH  27  28
ATOM     28  C   UNL     1       3.133   1.904   2.267  0.00  0.00    +0.104 C 
BRANCH  28  29
ATOM     29  N   UNL     1       4.230   2.455   3.066  0.00  0.00    -0.344 N 
ATOM     30  H   UNL     1       5.205   2.654   2.597  0.00  0.00    +0.146 HD
BRANCH  29  31
ATOM     31  C   UNL     1       4.039   2.728   4.417  0.00  0.00    +0.030 A 
ATOM     32  C   UNL     1       2.808   2.488   5.027  0.00  0.00    +0.040 A 
ATOM     33  C   UNL     1       2.661   2.767   6.370  0.00  0.00    +0.084 A 
ATOM     34  N   UNL     1       3.662   3.263   7.072  0.00  0.00    -0.367 N 
ATOM     35  C   UNL     1       4.840   3.508   6.529  0.00  0.00    +0.084 A 
ATOM     36  C   UNL     1       5.071   3.253   5.194  0.00  0.00    +0.040 A 
ATOM     37  H   UNL     1       3.528   3.484   8.141  0.00  0.00    +0.165 HD
ENDBRANCH  29  31
ENDBRANCH  28  29
ENDBRANCH  27  28
ENDBRANCH   1  27
TORSDOF 10
