REMARK  Name = ZINC36159581
REMARK  10 active torsions:
REMARK  status: ('A' for Active; 'I' for Inactive)
REMARK    1  A    between atoms: C_4  and  O_7
REMARK    2  A    between atoms: O_7  and  C_8
REMARK    3  A    between atoms: C_8  and  C_9
REMARK    4  A    between atoms: C_9  and  C_11
REMARK    5  A    between atoms: C_9  and  O_34
REMARK    6  A    between atoms: C_11  and  N_12
REMARK    7  A    between atoms: N_12  and  C_13
REMARK    8  A    between atoms: N_12  and  C_19
REMARK    9  A    between atoms: C_13  and  C_14
REMARK   10  A    between atoms: C_19  and  C_20
REMARK                            x       y       z     vdW  Elec       q    Type
REMARK                         _______ _______ _______ _____ _____    ______ ____
ROOT
ATOM      1  N   UNL     1       6.214  -4.566  -0.303  0.00  0.00    +0.391 N 
ATOM      2  H   UNL     1       6.490  -3.898  -1.007  0.00  0.00    -0.080 HD
ENDROOT
BRANCH   1   3
ATOM      3  C   UNL     1       4.806  -4.347   0.053  0.00  0.00    -0.043 C 
BRANCH   3   4
ATOM      4  C   UNL     1       4.597  -2.877   0.424  0.00  0.00    +0.135 C 
BRANCH   4   5
ATOM      5  O   UNL     1       5.276  -2.594   1.649  0.00  0.00    -0.390 OA
ATOM      6  H   UNL     1       4.972  -3.123   2.399  0.00  0.00    +0.210 HD
ENDBRANCH   4   5
BRANCH   4   7
ATOM      7  C   UNL     1       3.101  -2.602   0.594  0.00  0.00    +0.258 C 
BRANCH   7   8
ATOM      8  O   UNL     1       2.897  -1.206   0.826  0.00  0.00    -0.489 OA
BRANCH   8  12
ATOM      9  C   UNL     1      -0.995   0.056   1.351  0.00  0.00    +0.000 A 
ATOM     10  C   UNL     1       0.040   0.971   1.404  0.00  0.00    +0.004 A 
ATOM     11  C   UNL     1       1.345   0.551   1.228  0.00  0.00    +0.045 A 
ATOM     12  C   UNL     1       1.615  -0.791   0.999  0.00  0.00    +0.121 A 
ATOM     13  C   UNL     1       0.575  -1.707   0.948  0.00  0.00    +0.045 A 
ATOM     14  C   UNL     1      -0.728  -1.282   1.123  0.00  0.00    +0.004 A 
ENDBRANCH   8  12
ENDBRANCH   7   8
ENDBRANCH   4   7
ENDBRANCH   3   4
ENDBRANCH   1   3
BRANCH   1  15
ATOM     15  C   UNL     1       7.053  -4.397   0.890  0.00  0.00    -0.002 C 
BRANCH  15  16
ATOM     16  C   UNL     1       8.502  -4.569   0.513  0.00  0.00    +0.089 A 
ATOM     17  C   UNL     1       9.356  -3.578   0.199  0.00  0.00    +0.042 A 
ATOM     18  C   UNL     1      10.601  -4.185  -0.086  0.00  0.00    +0.041 A 
ATOM     19  C   UNL     1      10.433  -5.510   0.072  0.00  0.00    +0.195 A 
ATOM     20  O   UNL     1       9.162  -5.736   0.441  0.00  0.00    -0.470 OA
ENDBRANCH  15  16
ENDBRANCH   1  15
BRANCH   1  21
ATOM     21  C   UNL     1       6.379  -5.928  -0.829  0.00  0.00    -0.003 C 
BRANCH  21  22
ATOM     22  C   UNL     1       5.649  -6.053  -2.141  0.00  0.00    +0.094 A 
ATOM     23  N   UNL     1       5.561  -7.267  -2.743  0.00  0.00    -0.312 N 
ATOM     24  H   UNL     1       5.970  -8.038  -2.318  0.00  0.00    +0.170 HD
ATOM     25  C   UNL     1       4.918  -7.423  -3.916  0.00  0.00    +0.260 A 
ATOM     26  O   UNL     1       4.848  -8.519  -4.444  0.00  0.00    -0.267 OA
ATOM     27  C   UNL     1       4.319  -6.276  -4.530  0.00  0.00    +0.075 A 
ATOM     28  C   UNL     1       3.575  -6.211  -5.797  0.00  0.00    -0.023 A 
ATOM     29  C   UNL     1       3.106  -5.006  -6.166  0.00  0.00    -0.004 A 
ATOM     30  S   UNL     1       3.615  -3.900  -4.870  0.00  0.00    -0.073 S 
ATOM     31  C   UNL     1       4.460  -5.067  -3.837  0.00  0.00    +0.116 A 
ATOM     32  N   UNL     1       5.107  -4.991  -2.676  0.00  0.00    -0.229 NA
ATOM     33  C   UNL     1       2.368  -5.060  -7.476  0.00  0.00    +0.043 C 
ATOM     34  C   UNL     1       2.801  -6.400  -8.110  0.00  0.00    +0.010 C 
ATOM     35  C   UNL     1       3.171  -7.231  -6.866  0.00  0.00    +0.037 C 
ENDBRANCH  21  22
ENDBRANCH   1  21
TORSDOF 10
