REMARK  Name = ZINC08693921
REMARK  6 active torsions:
REMARK  status: ('A' for Active; 'I' for Inactive)
REMARK    1  A    between atoms: C_4  and  S_11
REMARK    2  A    between atoms: C_5  and  C_7
REMARK    3  A    between atoms: S_11  and  N_14
REMARK    4  A    between atoms: C_19  and  C_20
REMARK    5  A    between atoms: C_19  and  N_57
REMARK    6  A    between atoms: C_22  and  O_33
REMARK                            x       y       z     vdW  Elec       q    Type
REMARK                         _______ _______ _______ _____ _____    ______ ____
ROOT
ATOM      1  N   UNL     1     -10.571   3.814   1.383  0.00  0.00    -0.180 NA
ATOM      2  C   UNL     1     -10.900   2.706   0.474  0.00  0.00    +0.091 C 
ATOM      3  C   UNL     1     -10.104   1.469   0.906  0.00  0.00    -0.061 C 
ATOM      4  C   UNL     1      -8.426   2.835   2.002  0.00  0.00    -0.061 C 
ATOM      5  C   UNL     1      -9.153   4.127   1.614  0.00  0.00    +0.091 C 
ATOM      6  N   UNL     1      -8.668   1.821   0.952  0.00  0.00    +0.386 N 
ATOM      7  H   UNL     1      -8.392   2.210   0.043  0.00  0.00    -0.081 HD
ENDROOT
BRANCH   1   8
ATOM      8  S   UNL     1     -11.766   4.687   2.127  0.00  0.00    +0.061 S 
ATOM      9  O   UNL     1     -11.171   5.901   2.563  0.00  0.00    -0.153 OA
ATOM     10  O   UNL     1     -12.890   4.658   1.258  0.00  0.00    -0.153 OA
BRANCH   8  14
ATOM     11  C   UNL     1     -12.956   2.415   5.857  0.00  0.00    +0.001 A 
ATOM     12  C   UNL     1     -11.792   2.085   5.189  0.00  0.00    +0.002 A 
ATOM     13  C   UNL     1     -11.431   2.775   4.047  0.00  0.00    +0.029 A 
ATOM     14  C   UNL     1     -12.229   3.803   3.579  0.00  0.00    +0.117 A 
ATOM     15  C   UNL     1     -13.393   4.133   4.247  0.00  0.00    +0.081 A 
ATOM     16  C   UNL     1     -13.757   3.439   5.386  0.00  0.00    +0.014 A 
BRANCH  15  17
ATOM     17  C   UNL     1     -14.266   5.248   3.733  0.00  0.00    +0.419 C 
ATOM     18  F   UNL     1     -15.304   5.484   4.641  0.00  0.00    -0.166 F 
ATOM     19  F   UNL     1     -13.501   6.410   3.588  0.00  0.00    -0.166 F 
ATOM     20  F   UNL     1     -14.805   4.886   2.494  0.00  0.00    -0.166 F 
ENDBRANCH  15  17
ENDBRANCH   8  14
ENDBRANCH   1   8
BRANCH   6  21
ATOM     21  C   UNL     1      -7.862   0.613   1.223  0.00  0.00    -0.001 C 
BRANCH  21  22
ATOM     22  C   UNL     1      -6.404   0.954   1.048  0.00  0.00    +0.118 A 
ATOM     23  N   UNL     1      -5.868   0.819  -0.149  0.00  0.00    -0.199 NA
ATOM     24  C   UNL     1      -4.596   1.087  -0.428  0.00  0.00    +0.224 A 
ATOM     25  C   UNL     1      -3.804   1.544   0.661  0.00  0.00    +0.072 A 
ATOM     26  C   UNL     1      -2.396   1.905   0.633  0.00  0.00    -0.023 A 
ATOM     27  C   UNL     1      -1.852   2.315   1.801  0.00  0.00    -0.004 A 
ATOM     28  S   UNL     1      -3.173   2.242   2.985  0.00  0.00    -0.073 S 
ATOM     29  C   UNL     1      -4.452   1.663   1.918  0.00  0.00    +0.116 A 
ATOM     30  N   UNL     1      -5.723   1.375   2.107  0.00  0.00    -0.227 NA
ATOM     31  C   UNL     1      -0.432   2.739   2.045  0.00  0.00    +0.043 C 
ATOM     32  C   UNL     1       0.418   2.289   0.848  0.00  0.00    +0.005 C 
ATOM     33  C   UNL     1      -0.298   2.693  -0.444  0.00  0.00    +0.005 C 
ATOM     34  C   UNL     1      -1.549   1.835  -0.634  0.00  0.00    +0.037 C 
BRANCH  24  35
ATOM     35  O   UNL     1      -4.086   0.935  -1.674  0.00  0.00    -0.492 OA
ATOM     36  H   UNL     1      -4.156   1.725  -2.227  0.00  0.00    +0.294 HD
ENDBRANCH  24  35
ENDBRANCH  21  22
ENDBRANCH   6  21
TORSDOF 6
