REMARK  Name = ZINC05513923
REMARK  4 active torsions:
REMARK  status: ('A' for Active; 'I' for Inactive)
REMARK    1  A    between atoms: C_1  and  O_2
REMARK    2  A    between atoms: O_2  and  C_3
REMARK    3  A    between atoms: C_6  and  C_9
REMARK    4  A    between atoms: C_12  and  C_15
REMARK                            x       y       z     vdW  Elec       q    Type
REMARK                         _______ _______ _______ _____ _____    ______ ____
ROOT
ATOM      1  C   UNL     1       1.147   3.593   0.011  0.00  0.00    +0.125 C 
ATOM      2  C   UNL     1       1.429   4.147  -1.400  0.00  0.00    +0.086 C 
ATOM      3  C   UNL     1       2.698   4.950  -1.229  0.00  0.00    +0.075 C 
ATOM      4  N   UNL     1       3.085   4.889  -0.001  0.00  0.00    -0.190 NA
ATOM      5  N   UNL     1       2.255   4.123   0.821  0.00  0.00    -0.261 N 
ATOM      6  H   UNL     1       2.385   3.966   1.770  0.00  0.00    +0.169 HD
ENDROOT
BRANCH   3   7
ATOM      7  C   UNL     1       3.387   5.689  -2.300  0.00  0.00    +0.083 A 
ATOM      8  C   UNL     1       2.889   5.685  -3.590  0.00  0.00    +0.028 A 
ATOM      9  C   UNL     1       3.614   6.441  -4.612  0.00  0.00    +0.018 A 
ATOM     10  C   UNL     1       3.151   6.475  -5.934  0.00  0.00    +0.011 A 
ATOM     11  C   UNL     1       3.842   7.180  -6.877  0.00  0.00    +0.001 A 
ATOM     12  C   UNL     1       5.000   7.864  -6.535  0.00  0.00    +0.004 A 
ATOM     13  C   UNL     1       5.473   7.844  -5.240  0.00  0.00    +0.047 A 
ATOM     14  C   UNL     1       4.787   7.133  -4.262  0.00  0.00    +0.139 A 
ATOM     15  O   UNL     1       5.249   7.111  -2.993  0.00  0.00    -0.422 OA
ATOM     16  C   UNL     1       4.618   6.438  -2.020  0.00  0.00    +0.346 A 
ATOM     17  O   UNL     1       5.072   6.447  -0.891  0.00  0.00    -0.244 OA
ENDBRANCH   3   7
BRANCH   1  21
ATOM     18  C   UNL     1       1.213  -0.680  -0.013  0.00  0.00    +0.120 A 
ATOM     19  C   UNL     1       0.002  -0.004   0.002  0.00  0.00    +0.046 A 
ATOM     20  C   UNL     1      -0.017   1.377   0.010  0.00  0.00    +0.009 A 
ATOM     21  C   UNL     1       1.171   2.086   0.002  0.00  0.00    -0.025 A 
ATOM     22  C   UNL     1       2.379   1.415  -0.013  0.00  0.00    +0.009 A 
ATOM     23  C   UNL     1       2.403   0.033  -0.021  0.00  0.00    +0.046 A 
BRANCH  18  25
ATOM     24  C   UNL     1       2.518  -2.668  -0.036  0.00  0.00    +0.277 C 
ATOM     25  O   UNL     1       1.234  -2.039  -0.020  0.00  0.00    -0.495 OA
ENDBRANCH  18  25
ENDBRANCH   1  21
TORSDOF 3
