REMARK  Name = ZINC39942412
REMARK  10 active torsions:
REMARK  status: ('A' for Active; 'I' for Inactive)
REMARK    1  A    between atoms: C_1  and  C_2
REMARK    2  A    between atoms: C_2  and  C_4
REMARK    3  A    between atoms: C_2  and  S_17
REMARK    4  A    between atoms: C_4  and  C_6
REMARK    5  A    between atoms: C_9  and  N_12
REMARK    6  A    between atoms: N_12  and  S_13
REMARK    7  A    between atoms: S_13  and  C_16
REMARK    8  A    between atoms: S_17  and  C_18
REMARK    9  A    between atoms: C_22  and  C_27
REMARK   10  A    between atoms: N_23  and  C_24
REMARK                            x       y       z     vdW  Elec       q    Type
REMARK                         _______ _______ _______ _____ _____    ______ ____
ROOT
ATOM      1  C   UNL     1      -2.330  -0.638   0.603  0.00  0.00    +0.237 C 
ATOM      2  N   UNL     1      -2.636   0.795   0.465  0.00  0.00    -0.237 N 
ATOM      3  N   UNL     1      -2.319   1.389   1.693  0.00  0.00    -0.169 NA
ATOM      4  C   UNL     1      -1.866   0.507   2.544  0.00  0.00    +0.147 C 
ATOM      5  N   UNL     1      -1.831  -0.775   1.981  0.00  0.00    -0.282 N 
ATOM      6  H   UNL     1      -2.987   1.241  -0.322  0.00  0.00    +0.171 HD
ENDROOT
BRANCH   4   7
ATOM      7  C   UNL     1      -1.466   0.806   3.855  0.00  0.00    +0.022 C 
ATOM      8  C   UNL     1      -1.436   2.062   4.463  0.00  0.00    +0.006 A 
ATOM      9  C   UNL     1      -1.771   3.352   4.000  0.00  0.00    +0.010 A 
ATOM     10  C   UNL     1      -1.641   4.420   4.830  0.00  0.00    +0.001 A 
ATOM     11  C   UNL     1      -1.180   4.276   6.140  0.00  0.00    +0.002 A 
ATOM     12  C   UNL     1      -0.840   3.066   6.650  0.00  0.00    +0.026 A 
ATOM     13  C   UNL     1      -0.950   1.904   5.843  0.00  0.00    +0.043 A 
ATOM     14  N   UNL     1      -0.688   0.637   6.098  0.00  0.00    -0.380 N 
ATOM     15  C   UNL     1      -0.984  -0.167   4.909  0.00  0.00    +0.152 C 
ATOM     16  H   UNL     1      -0.356   0.291   6.941  0.00  0.00    +0.160 HD
ENDBRANCH   4   7
BRANCH   5  17
ATOM     17  C   UNL     1      -1.386  -2.009   2.633  0.00  0.00    +0.078 C 
ATOM     18  C   UNL     1      -1.383  -3.289   1.795  0.00  0.00    +0.024 C 
ATOM     19  C   UNL     1      -2.437  -3.092   2.888  0.00  0.00    +0.024 C 
ENDBRANCH   5  17
BRANCH   1  20
ATOM     20  S   UNL     1      -1.052  -1.131  -0.586  0.00  0.00    -0.107 S 
BRANCH  20  22
ATOM     21  C   UNL     1      -0.056   1.415  -0.528  0.00  0.00    +0.027 C 
ATOM     22  C   UNL     1       0.340  -0.029  -0.216  0.00  0.00    +0.118 C 
BRANCH  22  23
ATOM     23  C   UNL     1       1.527  -0.418  -1.061  0.00  0.00    +0.176 C 
ATOM     24  O   UNL     1       1.358  -0.996  -2.114  0.00  0.00    -0.291 OA
BRANCH  23  25
ATOM     25  C   UNL     1       2.885  -0.096  -0.610  0.00  0.00    +0.019 A 
ATOM     26  C   UNL     1       3.083   0.567   0.609  0.00  0.00    +0.013 A 
ATOM     27  C   UNL     1       4.349   0.864   1.025  0.00  0.00    +0.025 A 
ATOM     28  C   UNL     1       5.444   0.509   0.240  0.00  0.00    +0.048 A 
ATOM     29  C   UNL     1       5.252  -0.151  -0.972  0.00  0.00    +0.025 A 
ATOM     30  C   UNL     1       3.990  -0.456  -1.393  0.00  0.00    +0.013 A 
BRANCH  28  31
ATOM     31  N   UNL     1       6.729   0.813   0.667  0.00  0.00    -0.221 N 
ATOM     32  H   UNL     1       7.223   1.534   0.245  0.00  0.00    +0.173 HD
BRANCH  31  33
ATOM     33  S   UNL     1       7.421  -0.054   1.897  0.00  0.00    +0.040 S 
ATOM     34  O   UNL     1       8.720   0.501   2.046  0.00  0.00    -0.155 OA
ATOM     35  O   UNL     1       6.479   0.010   2.960  0.00  0.00    -0.155 OA
ATOM     36  C   UNL     1       7.534  -1.750   1.264  0.00  0.00    +0.218 C 
ENDBRANCH  31  33
ENDBRANCH  28  31
ENDBRANCH  23  25
ENDBRANCH  22  23
ENDBRANCH  20  22
ENDBRANCH   1  20
TORSDOF 8
