REMARK  Name = ZINC21078335
REMARK  9 active torsions:
REMARK  status: ('A' for Active; 'I' for Inactive)
REMARK    1  A    between atoms: C_1  and  O_2
REMARK    2  A    between atoms: O_2  and  C_3
REMARK    3  A    between atoms: C_8  and  N_9
REMARK    4  A    between atoms: C_10  and  C_12
REMARK    5  A    between atoms: C_12  and  C_13
REMARK    6  A    between atoms: C_13  and  S_14
REMARK    7  A    between atoms: S_14  and  C_15
REMARK    8  A    between atoms: N_20  and  N_21
REMARK    9  A    between atoms: C_22  and  C_23
REMARK                            x       y       z     vdW  Elec       q    Type
REMARK                         _______ _______ _______ _____ _____    ______ ____
ROOT
ATOM      1  C   UNL     1       0.000  -0.003  -0.032  0.00  0.00    +0.210 A 
ATOM      2  N   UNL     1      -0.019   1.362  -0.034  0.00  0.00    -0.186 NA
ATOM      3  C   UNL     1       1.276   1.803  -0.042  0.00  0.00    +0.232 A 
ATOM      4  N   UNL     1       2.061   0.753  -0.044  0.00  0.00    -0.245 N 
ATOM      5  N   UNL     1       1.253  -0.392  -0.038  0.00  0.00    -0.144 NA
ATOM      6  N   UNL     1       1.686   3.128  -0.046  0.00  0.00    -0.205 N 
ATOM      7  H   UNL     1       0.938   3.936  -0.043  0.00  0.00    +0.177 HD
ATOM      8  H   UNL     1       3.153   0.883  -0.050  0.00  0.00    +0.192 HD
ENDROOT
BRANCH   6   9
ATOM      9  N   UNL     1       3.052   3.439  -0.054  0.00  0.00    -0.188 NA
ATOM     10  C   UNL     1       3.436   4.679  -0.058  0.00  0.00    +0.138 C 
BRANCH  10  11
ATOM     11  C   UNL     1       4.873   5.006  -0.066  0.00  0.00    -0.005 A 
ATOM     12  C   UNL     1       5.825   3.983  -0.063  0.00  0.00    +0.010 A 
ATOM     13  C   UNL     1       7.169   4.296  -0.076  0.00  0.00    +0.016 A 
ATOM     14  C   UNL     1       7.574   5.620  -0.080  0.00  0.00    +0.018 A 
ATOM     15  C   UNL     1       6.636   6.638  -0.077  0.00  0.00    +0.016 A 
ATOM     16  C   UNL     1       5.290   6.340  -0.070  0.00  0.00    +0.010 A 
ATOM     17 BR   UNL     1       9.418   6.039  -0.090  0.00  0.00    -0.050 Br
ENDBRANCH  10  11
ENDBRANCH   6   9
BRANCH   1  18
ATOM     18  S   UNL     1      -1.411  -1.059  -0.024  0.00  0.00    -0.084 S 
BRANCH  18  19
ATOM     19  C   UNL     1      -0.708  -2.731  -0.025  0.00  0.00    +0.086 C 
BRANCH  19  20
ATOM     20  C   UNL     1      -1.840  -3.760  -0.017  0.00  0.00    +0.107 C 
BRANCH  20  22
ATOM     21  N   UNL     1      -2.071  -6.223  -0.012  0.00  0.00    -0.283 N 
ATOM     22  C   UNL     1      -1.256  -5.149  -0.018  0.00  0.00    +0.218 C 
ATOM     23  O   UNL     1      -0.053  -5.302  -0.024  0.00  0.00    -0.275 OA
ATOM     24  H   UNL     1      -3.159  -6.087   0.085  0.00  0.00    +0.155 HD
BRANCH  21  30
ATOM     25  C   UNL     1      -2.233  -8.608   0.368  0.00  0.00    +0.141 A 
ATOM     26  C   UNL     1      -1.697  -9.880   0.249  0.00  0.00    +0.047 A 
ATOM     27  C   UNL     1      -0.470 -10.059  -0.363  0.00  0.00    +0.004 A 
ATOM     28  C   UNL     1       0.225  -8.970  -0.858  0.00  0.00    +0.002 A 
ATOM     29  C   UNL     1      -0.306  -7.699  -0.748  0.00  0.00    +0.027 A 
ATOM     30  C   UNL     1      -1.534  -7.511  -0.130  0.00  0.00    +0.076 A 
BRANCH  25  32
ATOM     31  C   UNL     1      -4.101  -9.601   1.455  0.00  0.00    +0.277 C 
ATOM     32  O   UNL     1      -3.440  -8.431   0.969  0.00  0.00    -0.493 OA
ENDBRANCH  25  32
ENDBRANCH  21  30
ENDBRANCH  20  22
ENDBRANCH  19  20
ENDBRANCH  18  19
ENDBRANCH   1  18
TORSDOF 8
