REMARK  Name = ZINC10822698
REMARK  5 active torsions:
REMARK  status: ('A' for Active; 'I' for Inactive)
REMARK    1  A    between atoms: C_9  and  O_11
REMARK    2  A    between atoms: O_11  and  C_12
REMARK    3  A    between atoms: C_12  and  C_13
REMARK    4  A    between atoms: C_17  and  N_19
REMARK    5  A    between atoms: C_25  and  C_28
REMARK                            x       y       z     vdW  Elec       q    Type
REMARK                         _______ _______ _______ _____ _____    ______ ____
ROOT
ATOM      1  C   UNL     1      -0.132   9.398  -0.550  0.00  0.00    +0.004 A 
ATOM      2  C   UNL     1      -0.151   9.959  -1.791  0.00  0.00    +0.010 A 
ATOM      3  C   UNL     1      -0.150   9.138  -2.930  0.00  0.00    +0.002 A 
ATOM      4  C   UNL     1      -0.170   9.689  -4.227  0.00  0.00    +0.013 A 
ATOM      5  C   UNL     1      -0.168   8.838  -5.291  0.00  0.00    +0.042 A 
ATOM      6  C   UNL     1      -0.147   7.452  -5.077  0.00  0.00    +0.099 A 
ATOM      7  N   UNL     1      -0.129   6.944  -3.862  0.00  0.00    -0.340 N 
ATOM      8  C   UNL     1      -0.129   7.730  -2.780  0.00  0.00    +0.090 A 
ATOM      9  C   UNL     1      -0.110   7.179  -1.483  0.00  0.00    +0.145 A 
ATOM     10  C   UNL     1      -0.117   8.015  -0.390  0.00  0.00    +0.048 A 
ATOM     11  N   UNL     1      -0.145   6.598  -6.170  0.00  0.00    -0.317 N 
ATOM     12  C   UNL     1      -1.291   6.864  -7.049  0.00  0.00    +0.107 C 
ATOM     13  C   UNL     1      -1.178   6.007  -8.311  0.00  0.00    +0.031 C 
ATOM     14  C   UNL     1      -1.147   4.528  -7.917  0.00  0.00    +0.078 C 
ATOM     15  C   UNL     1       0.027   4.287  -6.963  0.00  0.00    +0.031 C 
ATOM     16  C   UNL     1      -0.121   5.194  -5.740  0.00  0.00    +0.107 C 
ATOM     17  H   UNL     1      -0.112   5.853  -3.723  0.00  0.00    +0.167 HD
ENDROOT
BRANCH  14  18
ATOM     18  C   UNL     1      -0.976   3.680  -9.151  0.00  0.00    +0.214 C 
ATOM     19  O   UNL     1      -0.010   2.954  -9.258  0.00  0.00    -0.276 OA
ATOM     20  N   UNL     1      -1.895   3.729 -10.135  0.00  0.00    -0.329 N 
ATOM     21  H   UNL     1      -1.770   3.110 -11.036  0.00  0.00    +0.145 HD
ATOM     22  H   UNL     1      -2.771   4.388 -10.037  0.00  0.00    +0.145 HD
ENDBRANCH  14  18
BRANCH   9  23
ATOM     23  O   UNL     1      -0.090   5.831  -1.313  0.00  0.00    -0.485 OA
BRANCH  23  24
ATOM     24  C   UNL     1      -0.070   5.347   0.032  0.00  0.00    +0.264 C 
BRANCH  24  25
ATOM     25  C   UNL     1      -0.050   3.840   0.023  0.00  0.00    -0.008 A 
ATOM     26  C   UNL     1       1.157   3.165   0.008  0.00  0.00    +0.007 A 
ATOM     27  C   UNL     1       1.175   1.783   0.000  0.00  0.00    +0.003 A 
ATOM     28  C   UNL     1      -0.013   1.076   0.008  0.00  0.00    +0.033 A 
ATOM     29  C   UNL     1      -1.219   1.750   0.017  0.00  0.00    +0.127 A 
ATOM     30  C   UNL     1      -1.238   3.133   0.030  0.00  0.00    +0.039 A 
BRANCH  29  31
ATOM     31  N   UNL     1      -2.490   0.993   0.019  0.00  0.00    +0.056 N 
ATOM     32  O   UNL     1      -2.474  -0.225   0.013  0.00  0.00    -0.126 OA
ATOM     33  O   UNL     1      -3.554   1.588   0.028  0.00  0.00    -0.126 OA
ENDBRANCH  29  31
ENDBRANCH  24  25
ENDBRANCH  23  24
ENDBRANCH   9  23
TORSDOF 5
