REMARK  Name = ZINC08575659
REMARK  10 active torsions:
REMARK  status: ('A' for Active; 'I' for Inactive)
REMARK    1  A    between atoms: C_1  and  C_2
REMARK    2  A    between atoms: C_5  and  N_8
REMARK    3  A    between atoms: C_12  and  N_13
REMARK    4  A    between atoms: N_13  and  C_14
REMARK    5  A    between atoms: C_17  and  S_20
REMARK    6  A    between atoms: S_20  and  N_23
REMARK    7  A    between atoms: N_23  and  C_24
REMARK    8  A    between atoms: C_27  and  O_30
REMARK    9  A    between atoms: O_30  and  C_31
REMARK   10  A    between atoms: C_32  and  C_34
REMARK                            x       y       z     vdW  Elec       q    Type
REMARK                         _______ _______ _______ _____ _____    ______ ____
ROOT
ATOM      1  C   UNL     1       2.790  -7.751   5.236  0.00  0.00    +0.031 A 
ATOM      2  C   UNL     1       2.223  -8.468   4.189  0.00  0.00    +0.025 A 
ATOM      3  C   UNL     1       1.558  -9.651   4.444  0.00  0.00    +0.030 A 
ATOM      4  C   UNL     1       1.456 -10.122   5.740  0.00  0.00    +0.109 A 
ATOM      5  C   UNL     1       2.018  -9.412   6.785  0.00  0.00    +0.030 A 
ATOM      6  C   UNL     1       2.690  -8.231   6.536  0.00  0.00    +0.025 A 
ENDROOT
BRANCH   4   7
ATOM      7  S   UNL     1       0.606 -11.632   6.062  0.00  0.00    +0.072 S 
ATOM      8  O   UNL     1       0.070 -11.525   7.373  0.00  0.00    -0.150 OA
ATOM      9  O   UNL     1      -0.206 -11.891   4.925  0.00  0.00    -0.150 OA
BRANCH   7  10
ATOM     10  N   UNL     1       1.745 -12.834   6.113  0.00  0.00    -0.216 N 
ATOM     11  H   UNL     1       1.885 -13.335   6.931  0.00  0.00    +0.174 HD
BRANCH  10  12
ATOM     12  C   UNL     1       2.506 -13.125   4.975  0.00  0.00    +0.048 A 
ATOM     13  C   UNL     1       1.935 -13.819   3.917  0.00  0.00    +0.028 A 
ATOM     14  C   UNL     1       2.686 -14.106   2.794  0.00  0.00    +0.047 A 
ATOM     15  C   UNL     1       4.011 -13.702   2.724  0.00  0.00    +0.120 A 
ATOM     16  C   UNL     1       4.582 -13.009   3.781  0.00  0.00    +0.047 A 
ATOM     17  C   UNL     1       3.831 -12.716   4.902  0.00  0.00    +0.028 A 
BRANCH  15  18
ATOM     18  O   UNL     1       4.750 -13.985   1.618  0.00  0.00    -0.495 OA
ATOM     19  C   UNL     1       6.107 -13.539   1.613  0.00  0.00    +0.277 C 
ENDBRANCH  15  18
ENDBRANCH  10  12
ENDBRANCH   7  10
ENDBRANCH   4   7
BRANCH   1  20
ATOM     20  N   UNL     1       3.463  -6.554   4.981  0.00  0.00    -0.320 N 
ATOM     21  H   UNL     1       3.862  -6.056   5.712  0.00  0.00    +0.152 HD
BRANCH  20  26
ATOM     22  N   UNL     1       5.394  -2.995   3.728  0.00  0.00    -0.156 N 
ATOM     23  C   UNL     1       4.886  -4.022   4.438  0.00  0.00    +0.273 C 
ATOM     24  O   UNL     1       4.959  -4.187   5.644  0.00  0.00    -0.268 OA
ATOM     25  C   UNL     1       4.227  -4.902   3.465  0.00  0.00    +0.075 C 
ATOM     26  C   UNL     1       3.559  -6.089   3.717  0.00  0.00    +0.087 C 
ATOM     27  C   UNL     1       4.430  -4.248   2.164  0.00  0.00    +0.070 C 
ATOM     28  N   UNL     1       5.101  -3.157   2.374  0.00  0.00    -0.176 NA
ATOM     29  C   UNL     1       3.944  -4.751   0.829  0.00  0.00    +0.068 C 
BRANCH  22  34
ATOM     30  C   UNL     1       8.283   1.364   5.929  0.00  0.00    +0.044 C 
ATOM     31  C   UNL     1       7.516   0.206   5.344  0.00  0.00    -0.050 A 
ATOM     32  C   UNL     1       7.285   0.149   3.982  0.00  0.00    +0.005 A 
ATOM     33  C   UNL     1       6.582  -0.910   3.443  0.00  0.00    +0.026 A 
ATOM     34  C   UNL     1       6.108  -1.920   4.271  0.00  0.00    +0.060 A 
ATOM     35  C   UNL     1       6.342  -1.860   5.638  0.00  0.00    +0.026 A 
ATOM     36  C   UNL     1       7.050  -0.800   6.170  0.00  0.00    +0.005 A 
ENDBRANCH  22  34
ENDBRANCH  20  26
ENDBRANCH   1  20
TORSDOF 7
