REMARK  Name = ZINC33743434
REMARK  12 active torsions:
REMARK  status: ('A' for Active; 'I' for Inactive)
REMARK    1  A    between atoms: C_1  and  C_2
REMARK    2  A    between atoms: C_2  and  C_3
REMARK    3  A    between atoms: C_3  and  C_4
REMARK    4  A    between atoms: C_4  and  N_5
REMARK    5  A    between atoms: C_10  and  C_31
REMARK    6  A    between atoms: C_13  and  C_18
REMARK    7  A    between atoms: C_13  and  C_28
REMARK    8  A    between atoms: C_18  and  C_19
REMARK    9  A    between atoms: C_22  and  N_25
REMARK   10  A    between atoms: C_33  and  C_39
REMARK   11  A    between atoms: C_34  and  O_38
REMARK   12  A    between atoms: C_35  and  C_37
REMARK                            x       y       z     vdW  Elec       q    Type
REMARK                         _______ _______ _______ _____ _____    ______ ____
ROOT
ATOM      1  N   UNL     1      -8.057   6.471   0.270  0.00  0.00    -0.242 N 
ATOM      2  C   UNL     1      -7.309   7.291   1.077  0.00  0.00    +0.224 C 
ATOM      3  O   UNL     1      -7.563   8.429   1.411  0.00  0.00    -0.275 OA
ATOM      4  C   UNL     1      -6.157   6.506   1.444  0.00  0.00    +0.077 C 
ATOM      5  C   UNL     1      -5.101   6.447   2.469  0.00  0.00    -0.027 C 
ATOM      6  N   UNL     1      -4.469   5.109   2.204  0.00  0.00    +0.396 N 
ATOM      7  C   UNL     1      -5.474   4.262   1.493  0.00  0.00    +0.052 C 
ATOM      8  C   UNL     1      -6.769   5.056   1.523  0.00  0.00    +0.086 C 
ATOM      9  C   UNL     1      -7.646   5.168   0.314  0.00  0.00    +0.225 C 
ATOM     10  O   UNL     1      -7.931   4.285  -0.465  0.00  0.00    -0.275 OA
ATOM     11  H   UNL     1      -3.573   5.243   1.580  0.00  0.00    -0.083 HD
ATOM     12  H   UNL     1      -4.184   4.643   3.159  0.00  0.00    -0.083 HD
ENDROOT
BRANCH   5  13
ATOM     13  C   UNL     1      -4.101   7.559   2.279  0.00  0.00    -0.060 A 
ATOM     14  C   UNL     1      -3.175   7.487   1.254  0.00  0.00    +0.009 A 
ATOM     15  C   UNL     1      -2.261   8.507   1.075  0.00  0.00    -0.009 A 
ATOM     16  C   UNL     1      -2.265   9.599   1.930  0.00  0.00    +0.123 A 
ATOM     17  C   UNL     1      -3.192   9.666   2.960  0.00  0.00    -0.009 A 
ATOM     18  C   UNL     1      -4.107   8.646   3.132  0.00  0.00    +0.009 A 
ATOM     19  C   UNL     1      -3.199  10.851   3.892  0.00  0.00    +0.047 C 
ATOM     20  C   UNL     1      -1.256   8.430  -0.046  0.00  0.00    +0.047 C 
BRANCH  16  21
ATOM     21  O   UNL     1      -1.364  10.601   1.758  0.00  0.00    -0.506 OA
ATOM     22  H   UNL     1      -1.369  11.467   2.437  0.00  0.00    +0.292 HD
ENDBRANCH  16  21
ENDBRANCH   5  13
BRANCH   7  23
ATOM     23  C   UNL     1      -5.649   2.948   2.209  0.00  0.00    +0.347 C 
ATOM     24  O   UNL     1      -6.744   2.442   2.284  0.00  0.00    -0.248 OA
ATOM     25  O   UNL     1      -4.589   2.340   2.763  0.00  0.00    -0.248 OA
ENDBRANCH   7  23
BRANCH   1  26
ATOM     26  C   UNL     1      -9.176   6.941  -0.551  0.00  0.00    +0.116 C 
BRANCH  26  27
ATOM     27  C   UNL     1     -10.473   6.855   0.257  0.00  0.00    +0.019 C 
BRANCH  27  29
ATOM     28  C   UNL     1     -12.938   7.260   0.208  0.00  0.00    +0.004 C 
ATOM     29  C   UNL     1     -11.641   7.346  -0.600  0.00  0.00    -0.002 C 
ENDBRANCH  27  29
ENDBRANCH  26  27
ENDBRANCH   1  26
BRANCH   7  30
ATOM     30  C   UNL     1      -5.034   4.022   0.047  0.00  0.00    +0.035 C 
BRANCH  30  31
ATOM     31  C   UNL     1      -3.719   3.286   0.038  0.00  0.00    -0.048 A 
ATOM     32  C   UNL     1      -3.700   1.904   0.030  0.00  0.00    +0.006 A 
ATOM     33  C   UNL     1      -2.494   1.229   0.021  0.00  0.00    +0.033 A 
ATOM     34  C   UNL     1      -1.306   1.936   0.019  0.00  0.00    +0.126 A 
ATOM     35  C   UNL     1      -1.325   3.319   0.032  0.00  0.00    +0.033 A 
ATOM     36  C   UNL     1      -2.531   3.993   0.037  0.00  0.00    +0.006 A 
BRANCH  34  37
ATOM     37  N   UNL     1      -0.014   1.214   0.009  0.00  0.00    +0.056 N 
ATOM     38  O   UNL     1       0.002  -0.004   0.002  0.00  0.00    -0.126 OA
ATOM     39  O   UNL     1       1.032   1.837   0.002  0.00  0.00    -0.126 OA
ENDBRANCH  34  37
ENDBRANCH  30  31
ENDBRANCH   7  30
TORSDOF 9
