REMARK  Name = ZINC32577033
REMARK  8 active torsions:
REMARK  status: ('A' for Active; 'I' for Inactive)
REMARK    1  A    between atoms: C_1  and  C_2
REMARK    2  A    between atoms: C_5  and  N_8
REMARK    3  A    between atoms: C_17  and  S_18
REMARK    4  A    between atoms: S_18  and  C_19
REMARK    5  A    between atoms: C_19  and  C_20
REMARK    6  A    between atoms: N_22  and  N_23
REMARK    7  A    between atoms: C_24  and  C_25
REMARK    8  A    between atoms: C_30  and  O_31
REMARK                            x       y       z     vdW  Elec       q    Type
REMARK                         _______ _______ _______ _____ _____    ______ ____
ROOT
ATOM      1  N   UNL     1       0.519  -5.252   4.837  0.00  0.00    -0.255 N 
ATOM      2  C   UNL     1       0.765  -4.504   5.938  0.00  0.00    +0.268 A 
ATOM      3  O   UNL     1       1.817  -4.579   6.549  0.00  0.00    -0.267 OA
ATOM      4  C   UNL     1      -0.288  -3.621   6.342  0.00  0.00    +0.076 A 
ATOM      5  C   UNL     1      -0.275  -2.718   7.482  0.00  0.00    -0.023 A 
ATOM      6  C   UNL     1      -1.385  -1.971   7.677  0.00  0.00    -0.004 A 
ATOM      7  S   UNL     1      -2.491  -2.428   6.366  0.00  0.00    -0.073 S 
ATOM      8  C   UNL     1      -1.466  -3.618   5.560  0.00  0.00    +0.117 A 
ATOM      9  N   UNL     1      -1.645  -4.378   4.487  0.00  0.00    -0.215 NA
ATOM     10  C   UNL     1      -0.651  -5.185   4.140  0.00  0.00    +0.178 A 
ATOM     11  C   UNL     1      -1.627  -0.973   8.767  0.00  0.00    +0.043 C 
ATOM     12  C   UNL     1      -0.568  -1.179   9.860  0.00  0.00    +0.005 C 
ATOM     13  C   UNL     1       0.808  -1.280   9.196  0.00  0.00    +0.005 C 
ATOM     14  C   UNL     1       0.918  -2.596   8.426  0.00  0.00    +0.037 C 
ENDROOT
BRANCH   1  19
ATOM     15  C   UNL     1       4.540  -8.831   3.040  0.00  0.00    +0.044 C 
ATOM     16  C   UNL     1       3.472  -7.880   3.517  0.00  0.00    -0.050 A 
ATOM     17  C   UNL     1       3.443  -6.581   3.044  0.00  0.00    +0.005 A 
ATOM     18  C   UNL     1       2.466  -5.708   3.480  0.00  0.00    +0.026 A 
ATOM     19  C   UNL     1       1.512  -6.136   4.393  0.00  0.00    +0.052 A 
ATOM     20  C   UNL     1       1.547  -7.439   4.870  0.00  0.00    +0.026 A 
ATOM     21  C   UNL     1       2.523  -8.310   4.426  0.00  0.00    +0.005 A 
ENDBRANCH   1  19
BRANCH  10  22
ATOM     22  S   UNL     1      -0.851  -6.210   2.721  0.00  0.00    -0.078 S 
BRANCH  22  23
ATOM     23  C   UNL     1      -2.520  -5.725   2.215  0.00  0.00    +0.174 C 
BRANCH  23  24
ATOM     24  C   UNL     1      -2.915  -6.497   0.983  0.00  0.00    +0.242 C 
ATOM     25  O   UNL     1      -2.145  -7.297   0.495  0.00  0.00    -0.273 OA
ATOM     26  N   UNL     1      -4.125  -6.300   0.423  0.00  0.00    -0.206 N 
ATOM     27  H   UNL     1      -4.824  -5.574   0.866  0.00  0.00    +0.177 HD
BRANCH  26  28
ATOM     28  N   UNL     1      -4.493  -7.018  -0.722  0.00  0.00    -0.188 NA
ATOM     29  C   UNL     1      -5.603  -6.738  -1.335  0.00  0.00    +0.142 C 
BRANCH  29  30
ATOM     30  C   UNL     1      -6.232  -5.418  -1.153  0.00  0.00    +0.036 A 
ATOM     31  C   UNL     1      -5.460  -4.317  -0.777  0.00  0.00    +0.013 A 
ATOM     32  C   UNL     1      -6.054  -3.084  -0.614  0.00  0.00    +0.001 A 
ATOM     33  C   UNL     1      -7.416  -2.934  -0.811  0.00  0.00    +0.004 A 
ATOM     34  C   UNL     1      -8.193  -4.016  -1.178  0.00  0.00    +0.046 A 
ATOM     35  C   UNL     1      -7.611  -5.261  -1.352  0.00  0.00    +0.125 A 
BRANCH  35  36
ATOM     36  O   UNL     1      -8.373  -6.326  -1.713  0.00  0.00    -0.506 OA
ATOM     37  H   UNL     1      -9.455  -6.200  -1.869  0.00  0.00    +0.292 HD
ENDBRANCH  35  36
ENDBRANCH  29  30
ENDBRANCH  26  28
ENDBRANCH  23  24
ENDBRANCH  22  23
ENDBRANCH  10  22
TORSDOF 7
