REMARK  Name = ZINC20795007
REMARK  3 active torsions:
REMARK  status: ('A' for Active; 'I' for Inactive)
REMARK    1  A    between atoms: N_14  and  C_18
REMARK    2  A    between atoms: C_18  and  C_19
REMARK    3  A    between atoms: N_21  and  C_22
REMARK                            x       y       z     vdW  Elec       q    Type
REMARK                         _______ _______ _______ _____ _____    ______ ____
ROOT
ATOM      1  C   UNL     1       6.006  11.341  -0.649  0.00  0.00    +0.000 A 
ATOM      2  C   UNL     1       5.921  10.759   0.602  0.00  0.00    +0.000 A 
ATOM      3  C   UNL     1       5.819   9.388   0.717  0.00  0.00    +0.006 A 
ATOM      4  C   UNL     1       5.800   8.583  -0.420  0.00  0.00    -0.012 A 
ATOM      5  C   UNL     1       5.879   9.161  -1.654  0.00  0.00    -0.042 A 
ATOM      6  C   UNL     1       5.985  10.543  -1.775  0.00  0.00    +0.004 A 
ATOM      7  C   UNL     1       5.857   8.364  -2.941  0.00  0.00    +0.035 C 
ATOM      8  C   UNL     1       7.106   7.487  -3.008  0.00  0.00    +0.005 C 
ATOM      9  C   UNL     1       6.909   6.202  -2.228  0.00  0.00    +0.003 C 
ATOM     10  C   UNL     1       6.931   6.378  -0.724  0.00  0.00    +0.040 C 
ATOM     11  C   UNL     1       5.690   7.093  -0.202  0.00  0.00    +0.138 C 
ATOM     12  C   UNL     1       4.415   6.530  -0.761  0.00  0.00    +0.251 C 
ATOM     13  O   UNL     1       4.076   6.397  -1.918  0.00  0.00    -0.272 OA
ATOM     14  N   UNL     1       3.668   6.178   0.312  0.00  0.00    -0.215 N 
ATOM     15  C   UNL     1       4.345   6.338   1.454  0.00  0.00    +0.310 C 
ATOM     16  O   UNL     1       3.897   6.062   2.550  0.00  0.00    -0.252 OA
ATOM     17  N   UNL     1       5.576   6.838   1.249  0.00  0.00    -0.281 N 
ATOM     18  H   UNL     1       6.422   7.064   1.915  0.00  0.00    +0.152 HD
ENDROOT
BRANCH  14  19
ATOM     19  C   UNL     1       2.295   5.675   0.225  0.00  0.00    +0.214 C 
BRANCH  19  20
ATOM     20  C   UNL     1       2.318   4.173   0.104  0.00  0.00    +0.235 C 
ATOM     21  O   UNL     1       3.377   3.581   0.091  0.00  0.00    -0.274 OA
ATOM     22  N   UNL     1       1.162   3.487   0.009  0.00  0.00    -0.284 N 
ATOM     23  H   UNL     1       0.206   4.027  -0.067  0.00  0.00    +0.155 HD
BRANCH  22  24
ATOM     24  C   UNL     1       1.177   2.088   0.008  0.00  0.00    +0.036 A 
ATOM     25  C   UNL     1       0.235   1.383  -0.731  0.00  0.00    +0.023 A 
ATOM     26  C   UNL     1       0.250   0.002  -0.730  0.00  0.00    +0.005 A 
ATOM     27  C   UNL     1       1.202  -0.681   0.004  0.00  0.00    +0.038 A 
ATOM     28  C   UNL     1       2.144   0.018   0.741  0.00  0.00    +0.125 A 
ATOM     29  C   UNL     1       2.132   1.402   0.745  0.00  0.00    +0.061 A 
ATOM     30  F   UNL     1       3.073  -0.651   1.458  0.00  0.00    -0.205 F 
ENDBRANCH  22  24
ENDBRANCH  19  20
ENDBRANCH  14  19
TORSDOF 3
