REMARK  Name = ZINC36206845
REMARK  17 active torsions:
REMARK  status: ('A' for Active; 'I' for Inactive)
REMARK    1  A    between atoms: C_1  and  C_2
REMARK    2  A    between atoms: C_2  and  N_3
REMARK    3  A    between atoms: N_3  and  C_4
REMARK    4  A    between atoms: N_3  and  C_23
REMARK    5  A    between atoms: C_4  and  C_5
REMARK    6  A    between atoms: C_11  and  C_22
REMARK    7  A    between atoms: C_12  and  C_16
REMARK    8  A    between atoms: C_16  and  O_18
REMARK    9  A    between atoms: O_18  and  C_19
REMARK   10  A    between atoms: C_19  and  C_20
REMARK   11  A    between atoms: C_19  and  C_21
REMARK   12  A    between atoms: C_23  and  C_24
REMARK   13  A    between atoms: C_24  and  C_26
REMARK   14  A    between atoms: C_24  and  O_35
REMARK   15  A    between atoms: C_26  and  O_27
REMARK   16  A    between atoms: O_27  and  C_28
REMARK   17  A    between atoms: C_28  and  C_29
REMARK                            x       y       z     vdW  Elec       q    Type
REMARK                         _______ _______ _______ _____ _____    ______ ____
ROOT
ATOM      1  C   UNL     1       0.111  -0.222   2.389  0.00  0.00    -0.003 C 
ENDROOT
BRANCH   1   2
ATOM      2  C   UNL     1       1.038  -0.490   3.546  0.00  0.00    +0.094 A 
ATOM      3  N   UNL     1       0.618  -0.213   4.804  0.00  0.00    -0.312 N 
ATOM      4  H   UNL     1      -0.271   0.153   4.938  0.00  0.00    +0.170 HD
ATOM      5  C   UNL     1       1.407  -0.435   5.873  0.00  0.00    +0.260 A 
ATOM      6  O   UNL     1       1.019  -0.183   7.000  0.00  0.00    -0.267 OA
ATOM      7  C   UNL     1       2.759  -0.995   5.642  0.00  0.00    +0.076 A 
ATOM      8  C   UNL     1       3.753  -1.311   6.570  0.00  0.00    -0.015 A 
ATOM      9  C   UNL     1       4.943  -1.824   6.142  0.00  0.00    +0.102 A 
ATOM     10  S   UNL     1       4.729  -1.892   4.371  0.00  0.00    -0.062 S 
ATOM     11  C   UNL     1       3.080  -1.240   4.287  0.00  0.00    +0.116 A 
ATOM     12  N   UNL     1       2.221  -0.989   3.308  0.00  0.00    -0.229 NA
ATOM     13  C   UNL     1       3.512  -1.087   8.041  0.00  0.00    +0.046 C 
BRANCH   9  14
ATOM     14  C   UNL     1       6.107  -2.220   6.938  0.00  0.00    +0.346 C 
ATOM     15  O   UNL     1       6.083  -2.106   8.148  0.00  0.00    -0.244 OA
BRANCH  14  16
ATOM     16  O   UNL     1       7.205  -2.712   6.328  0.00  0.00    -0.458 OA
BRANCH  16  17
ATOM     17  C   UNL     1       8.304  -3.078   7.166  0.00  0.00    +0.171 C 
ATOM     18  C   UNL     1       8.162  -4.544   7.580  0.00  0.00    +0.052 C 
ATOM     19  C   UNL     1       9.615  -2.889   6.400  0.00  0.00    +0.052 C 
ENDBRANCH  16  17
ENDBRANCH  14  16
ENDBRANCH   9  14
ENDBRANCH   1   2
BRANCH   1  20
ATOM     20  N   UNL     1       0.711  -0.739   1.151  0.00  0.00    +0.386 N 
ATOM     21  H   UNL     1       1.644  -0.369   1.049  0.00  0.00    -0.081 HD
BRANCH  20  23
ATOM     22  C   UNL     1      -0.063   1.196  -0.136  0.00  0.00    -0.017 C 
ATOM     23  C   UNL     1      -0.107  -0.327   0.002  0.00  0.00    -0.082 C 
ENDBRANCH  20  23
BRANCH  20  24
ATOM     24  C   UNL     1       0.769  -2.205   1.210  0.00  0.00    -0.044 C 
BRANCH  24  25
ATOM     25  C   UNL     1       1.505  -2.737  -0.021  0.00  0.00    +0.124 C 
BRANCH  25  26
ATOM     26  O   UNL     1       2.866  -2.303   0.013  0.00  0.00    -0.391 OA
ATOM     27  H   UNL     1       3.356  -2.604   0.790  0.00  0.00    +0.210 HD
ENDBRANCH  25  26
BRANCH  25  28
ATOM     28  C   UNL     1       1.458  -4.266  -0.024  0.00  0.00    +0.189 C 
BRANCH  28  29
ATOM     29  O   UNL     1       2.042  -4.759  -1.231  0.00  0.00    -0.373 OA
BRANCH  29  30
ATOM     30  C   UNL     1       2.048  -6.184  -1.334  0.00  0.00    +0.195 C 
BRANCH  30  31
ATOM     31  C   UNL     1       2.684  -6.591  -2.638  0.00  0.00    -0.022 A 
ATOM     32  C   UNL     1       1.905  -6.738  -3.771  0.00  0.00    +0.006 A 
ATOM     33  C   UNL     1       2.488  -7.111  -4.967  0.00  0.00    +0.000 A 
ATOM     34  C   UNL     1       3.850  -7.336  -5.031  0.00  0.00    +0.000 A 
ATOM     35  C   UNL     1       4.630  -7.189  -3.899  0.00  0.00    +0.000 A 
ATOM     36  C   UNL     1       4.047  -6.811  -2.704  0.00  0.00    +0.006 A 
ENDBRANCH  30  31
ENDBRANCH  29  30
ENDBRANCH  28  29
ENDBRANCH  25  28
ENDBRANCH  24  25
ENDBRANCH  20  24
ENDBRANCH   1  20
TORSDOF 13
