REMARK  Name = ZINC00996102
REMARK  4 active torsions:
REMARK  status: ('A' for Active; 'I' for Inactive)
REMARK    1  A    between atoms: C_1  and  C_2
REMARK    2  A    between atoms: C_9  and  N_14
REMARK    3  A    between atoms: C_10  and  C_11
REMARK    4  A    between atoms: C_15  and  C_17
REMARK                            x       y       z     vdW  Elec       q    Type
REMARK                         _______ _______ _______ _____ _____    ______ ____
ROOT
ATOM      1  C   UNL     1      -4.237  -2.367  -4.655  0.00  0.00    +0.008 C 
ATOM      2  C   UNL     1      -3.567  -1.651  -3.482  0.00  0.00    -0.009 C 
ATOM      3  C   UNL     1      -2.045  -1.718  -3.637  0.00  0.00    +0.008 C 
ATOM      4  C   UNL     1      -1.376  -0.799  -2.613  0.00  0.00    +0.037 C 
ATOM      5  C   UNL     1      -1.919  -1.129  -1.228  0.00  0.00    -0.023 A 
ATOM      6  C   UNL     1      -3.069  -1.821  -1.079  0.00  0.00    -0.004 A 
ATOM      7  S   UNL     1      -3.285  -1.969   0.672  0.00  0.00    -0.077 S 
ATOM      8  C   UNL     1      -1.865  -1.129   1.201  0.00  0.00    +0.085 A 
ATOM      9  C   UNL     1      -1.258  -0.754   0.010  0.00  0.00    +0.068 A 
ATOM     10  C   UNL     1      -3.960  -2.339  -2.166  0.00  0.00    +0.046 C 
ENDROOT
BRANCH   9  11
ATOM     11  C   UNL     1       0.002  -0.004   0.002  0.00  0.00    +0.244 C 
ATOM     12  O   UNL     1       1.064  -0.598  -0.011  0.00  0.00    -0.270 OA
ATOM     13  N   UNL     1      -0.016   1.344   0.009  0.00  0.00    -0.325 N 
ATOM     14  H   UNL     1       0.817   1.840   0.004  0.00  0.00    +0.145 HD
ATOM     15  H   UNL     1      -0.863   1.817   0.016  0.00  0.00    +0.145 HD
ENDBRANCH   9  11
BRANCH   8  16
ATOM     16  N   UNL     1      -1.439  -0.889   2.497  0.00  0.00    -0.273 N 
ATOM     17  C   UNL     1      -2.168  -1.335   3.539  0.00  0.00    +0.284 C 
ATOM     18  O   UNL     1      -3.201  -1.947   3.341  0.00  0.00    -0.266 OA
ATOM     19  H   UNL     1      -0.616  -0.402   2.654  0.00  0.00    +0.156 HD
BRANCH  17  20
ATOM     20  C   UNL     1      -1.715  -1.081   4.917  0.00  0.00    +0.194 A 
ATOM     21  C   UNL     1      -2.468  -1.539   5.945  0.00  0.00    +0.060 A 
ATOM     22  C   UNL     1      -2.027  -1.293   7.320  0.00  0.00    -0.007 A 
ATOM     23  C   UNL     1      -2.755  -1.738   8.422  0.00  0.00    +0.009 A 
ATOM     24  C   UNL     1      -2.289  -1.477   9.694  0.00  0.00    +0.001 A 
ATOM     25  C   UNL     1      -1.107  -0.776   9.885  0.00  0.00    +0.001 A 
ATOM     26  C   UNL     1      -0.371  -0.326   8.808  0.00  0.00    +0.015 A 
ATOM     27  C   UNL     1      -0.822  -0.579   7.516  0.00  0.00    +0.067 A 
ATOM     28  C   UNL     1      -0.082  -0.126   6.329  0.00  0.00    +0.345 A 
ATOM     29  O   UNL     1       0.959   0.492   6.452  0.00  0.00    -0.245 OA
ATOM     30  O   UNL     1      -0.565  -0.405   5.106  0.00  0.00    -0.417 OA
ENDBRANCH  17  20
ENDBRANCH   8  16
TORSDOF 3
