REMARK  Name = ZINC39710514
REMARK  13 active torsions:
REMARK  status: ('A' for Active; 'I' for Inactive)
REMARK    1  A    between atoms: C_1  and  C_2
REMARK    2  A    between atoms: C_2  and  C_3
REMARK    3  A    between atoms: C_10  and  C_15
REMARK    4  A    between atoms: C_15  and  C_17
REMARK    5  A    between atoms: C_15  and  N_27
REMARK    6  A    between atoms: N_22  and  C_23
REMARK    7  A    between atoms: C_23  and  C_24
REMARK    8  A    between atoms: C_23  and  C_25
REMARK    9  A    between atoms: C_23  and  C_26
REMARK   10  A    between atoms: N_27  and  C_28
REMARK   11  A    between atoms: N_27  and  C_35
REMARK   12  A    between atoms: C_28  and  C_29
REMARK   13  A    between atoms: C_35  and  C_36
REMARK                            x       y       z     vdW  Elec       q    Type
REMARK                         _______ _______ _______ _____ _____    ______ ____
ROOT
ATOM      1  C   UNL     1      -5.861  -3.463  -2.759  0.00  0.00    -0.008 C 
ENDROOT
BRANCH   1   9
ATOM      2  C   UNL     1      -1.311  -2.513   0.769  0.00  0.00    -0.047 A 
ATOM      3  C   UNL     1      -2.133  -2.463   1.895  0.00  0.00    +0.005 A 
ATOM      4  C   UNL     1      -3.487  -2.378   1.810  0.00  0.00    +0.024 A 
ATOM      5  C   UNL     1      -4.123  -2.337   0.556  0.00  0.00    +0.040 A 
ATOM      6  N   UNL     1      -5.452  -2.253   0.486  0.00  0.00    -0.285 N 
ATOM      7  C   UNL     1      -6.113  -2.211  -0.658  0.00  0.00    +0.223 C 
ATOM      8  O   UNL     1      -7.327  -2.134  -0.660  0.00  0.00    -0.275 OA
ATOM      9  C   UNL     1      -5.354  -2.258  -1.966  0.00  0.00    +0.088 C 
ATOM     10  C   UNL     1      -3.843  -2.353  -1.891  0.00  0.00    -0.006 C 
ATOM     11  C   UNL     1      -3.279  -2.389  -0.650  0.00  0.00    -0.007 A 
ATOM     12  C   UNL     1      -1.828  -2.474  -0.487  0.00  0.00    +0.013 A 
ATOM     13  H   UNL     1      -5.957  -2.222   1.313  0.00  0.00    +0.155 HD
BRANCH   2  15
ATOM     14  C   UNL     1       0.776  -1.198   1.019  0.00  0.00    +0.009 C 
ATOM     15  C   UNL     1       0.182  -2.607   0.950  0.00  0.00    +0.032 C 
ENDBRANCH   2  15
ENDBRANCH   1   9
BRANCH   1  16
ATOM     16  C   UNL     1      -5.365  -3.368  -4.204  0.00  0.00    +0.205 C 
ATOM     17  N   UNL     1      -5.598  -4.634  -4.911  0.00  0.00    -0.152 NA
ATOM     18  N   UNL     1      -4.513  -5.094  -5.273  0.00  0.00    -0.070 NA
ATOM     19  N   UNL     1      -3.434  -4.290  -4.909  0.00  0.00    -0.179 N 
ATOM     20  N   UNL     1      -3.898  -3.188  -4.235  0.00  0.00    -0.183 NA
ATOM     21  H   UNL     1      -2.502  -4.479  -5.101  0.00  0.00    +0.191 HD
BRANCH  20  22
ATOM     22  C   UNL     1      -3.535  -1.948  -4.934  0.00  0.00    +0.035 C 
ATOM     23  C   UNL     1      -4.300  -0.773  -4.322  0.00  0.00    +0.029 C 
ATOM     24  C   UNL     1      -2.031  -1.705  -4.794  0.00  0.00    +0.029 C 
ATOM     25  C   UNL     1      -3.895  -2.075  -6.416  0.00  0.00    +0.029 C 
ENDBRANCH  20  22
ENDBRANCH   1  16
BRANCH   1  26
ATOM     26  N   UNL     1      -7.330  -3.477  -2.746  0.00  0.00    +0.392 N 
ATOM     27  H   UNL     1      -7.657  -3.517  -1.792  0.00  0.00    -0.080 HD
BRANCH  26  28
ATOM     28  C   UNL     1      -7.836  -2.255  -3.386  0.00  0.00    -0.042 C 
BRANCH  28  29
ATOM     29  C   UNL     1      -9.336  -2.201  -3.249  0.00  0.00    -0.064 A 
ATOM     30  C   UNL     1     -10.139  -2.772  -4.218  0.00  0.00    +0.002 A 
ATOM     31  C   UNL     1     -11.515  -2.722  -4.092  0.00  0.00    +0.000 A 
ATOM     32  C   UNL     1     -12.087  -2.103  -2.997  0.00  0.00    +0.000 A 
ATOM     33  C   UNL     1     -11.284  -1.533  -2.027  0.00  0.00    +0.000 A 
ATOM     34  C   UNL     1      -9.908  -1.586  -2.151  0.00  0.00    +0.002 A 
ENDBRANCH  28  29
ENDBRANCH  26  28
BRANCH  26  35
ATOM     35  C   UNL     1      -7.816  -4.652  -3.481  0.00  0.00    -0.002 C 
BRANCH  35  36
ATOM     36  C   UNL     1      -7.355  -5.906  -2.783  0.00  0.00    +0.089 A 
ATOM     37  C   UNL     1      -8.065  -6.612  -1.884  0.00  0.00    +0.042 A 
ATOM     38  C   UNL     1      -7.256  -7.703  -1.491  0.00  0.00    +0.041 A 
ATOM     39  C   UNL     1      -6.101  -7.599  -2.172  0.00  0.00    +0.195 A 
ATOM     40  O   UNL     1      -6.169  -6.512  -2.958  0.00  0.00    -0.470 OA
ENDBRANCH  35  36
ENDBRANCH  26  35
ENDBRANCH   1  26
TORSDOF 9
