REMARK  Name = ZINC15947547
REMARK  12 active torsions:
REMARK  status: ('A' for Active; 'I' for Inactive)
REMARK    1  A    between atoms: C_1  and  C_2
REMARK    2  A    between atoms: C_11  and  O_37
REMARK    3  A    between atoms: C_13  and  C_16
REMARK    4  A    between atoms: C_21  and  O_22
REMARK    5  A    between atoms: O_22  and  C_23
REMARK    6  A    between atoms: C_23  and  C_25
REMARK    7  A    between atoms: C_27  and  O_35
REMARK    8  A    between atoms: C_28  and  O_33
REMARK    9  A    between atoms: C_29  and  O_31
REMARK   10  A    between atoms: O_31  and  C_32
REMARK   11  A    between atoms: O_33  and  C_34
REMARK   12  A    between atoms: O_35  and  C_36
REMARK                            x       y       z     vdW  Elec       q    Type
REMARK                         _______ _______ _______ _____ _____    ______ ____
ROOT
ATOM      1  C   UNL     1      -1.593  -6.331   3.630  0.00  0.00    +0.037 A 
ATOM      2  C   UNL     1      -1.107  -5.877   4.841  0.00  0.00    +0.011 A 
ATOM      3  C   UNL     1      -1.951  -5.771   5.931  0.00  0.00    +0.001 A 
ATOM      4  C   UNL     1      -3.284  -6.119   5.812  0.00  0.00    +0.004 A 
ATOM      5  C   UNL     1      -3.775  -6.574   4.604  0.00  0.00    +0.047 A 
ATOM      6  C   UNL     1      -2.931  -6.675   3.507  0.00  0.00    +0.139 A 
ENDROOT
BRANCH   1  18
ATOM      7  C   UNL     1      -0.609   1.864   0.579  0.00  0.00    +0.008 C 
ATOM      8  C   UNL     1      -0.468   0.342   0.499  0.00  0.00    -0.009 C 
ATOM      9  C   UNL     1      -1.858  -0.298   0.425  0.00  0.00    +0.008 C 
ATOM     10  C   UNL     1      -1.728  -1.787   0.099  0.00  0.00    +0.037 C 
ATOM     11  C   UNL     1      -0.756  -2.421   1.084  0.00  0.00    -0.023 A 
ATOM     12  C   UNL     1       0.107  -1.664   1.800  0.00  0.00    -0.004 A 
ATOM     13  S   UNL     1       1.013  -2.823   2.788  0.00  0.00    -0.078 S 
ATOM     14  C   UNL     1       0.292  -4.230   2.289  0.00  0.00    +0.080 A 
ATOM     15  C   UNL     1      -0.663  -3.846   1.341  0.00  0.00    +0.068 A 
ATOM     16  C   UNL     1      -1.465  -4.921   0.702  0.00  0.00    +0.220 C 
ATOM     17  N   UNL     1      -1.412  -6.113   1.233  0.00  0.00    -0.223 NA
ATOM     18  C   UNL     1      -0.672  -6.447   2.443  0.00  0.00    +0.227 C 
ATOM     19  N   UNL     1       0.480  -5.548   2.641  0.00  0.00    -0.313 N 
ATOM     20  C   UNL     1       0.253  -0.174   1.753  0.00  0.00    +0.046 C 
ATOM     21  H   UNL     1       1.323  -5.868   2.998  0.00  0.00    +0.149 HD
BRANCH  16  22
ATOM     22  O   UNL     1      -2.224  -4.674  -0.390  0.00  0.00    -0.492 OA
ATOM     23  H   UNL     1      -2.703  -5.447  -0.720  0.00  0.00    +0.294 HD
ENDBRANCH  16  22
ENDBRANCH   1  18
BRANCH   6  24
ATOM     24  O   UNL     1      -3.413  -7.117   2.316  0.00  0.00    -0.422 OA
BRANCH  24  25
ATOM     25  C   UNL     1      -3.303  -8.431   2.036  0.00  0.00    +0.345 C 
ATOM     26  O   UNL     1      -2.789  -9.182   2.841  0.00  0.00    -0.245 OA
BRANCH  25  27
ATOM     27  C   UNL     1      -3.806  -8.957   0.753  0.00  0.00    +0.067 A 
ATOM     28  C   UNL     1      -4.392  -8.093  -0.176  0.00  0.00    +0.064 A 
ATOM     29  C   UNL     1      -4.862  -8.588  -1.378  0.00  0.00    +0.166 A 
ATOM     30  C   UNL     1      -4.752  -9.947  -1.663  0.00  0.00    +0.204 A 
ATOM     31  C   UNL     1      -4.168 -10.810  -0.739  0.00  0.00    +0.166 A 
ATOM     32  C   UNL     1      -3.692 -10.319   0.462  0.00  0.00    +0.064 A 
BRANCH  31  33
ATOM     33  O   UNL     1      -4.063 -12.136  -1.020  0.00  0.00    -0.491 OA
ATOM     34  C   UNL     1      -3.454 -12.964  -0.027  0.00  0.00    +0.277 C 
ENDBRANCH  31  33
BRANCH  30  35
ATOM     35  O   UNL     1      -5.215 -10.431  -2.845  0.00  0.00    -0.488 OA
ATOM     36  C   UNL     1      -4.296 -10.459  -3.939  0.00  0.00    +0.277 C 
ENDBRANCH  30  35
BRANCH  29  37
ATOM     37  O   UNL     1      -5.432  -7.748  -2.282  0.00  0.00    -0.491 OA
ATOM     38  C   UNL     1      -5.513  -6.367  -1.924  0.00  0.00    +0.277 C 
ENDBRANCH  29  37
ENDBRANCH  25  27
ENDBRANCH  24  25
ENDBRANCH   6  24
TORSDOF 8
