REMARK  Name = ZINC63425857
REMARK  9 active torsions:
REMARK  status: ('A' for Active; 'I' for Inactive)
REMARK    1  A    between atoms: C_1  and  O_2
REMARK    2  A    between atoms: O_2  and  C_3
REMARK    3  A    between atoms: C_3  and  C_5
REMARK    4  A    between atoms: C_5  and  C_7
REMARK    5  A    between atoms: C_5  and  N_17
REMARK    6  A    between atoms: C_7  and  C_8
REMARK    7  A    between atoms: N_17  and  C_18
REMARK    8  A    between atoms: N_25  and  C_28
REMARK    9  A    between atoms: C_32  and  C_34
REMARK                            x       y       z     vdW  Elec       q    Type
REMARK                         _______ _______ _______ _____ _____    ______ ____
ROOT
ATOM      1  C   UNL     1      -3.347  -2.620  -1.141  0.00  0.00    +0.086 C 
ATOM      2  C   UNL     1      -4.623  -3.151  -1.144  0.00  0.00    +0.113 C 
ATOM      3  C   UNL     1      -5.308  -3.516   0.109  0.00  0.00    +0.258 C 
ATOM      4  O   UNL     1      -4.765  -3.358   1.187  0.00  0.00    -0.270 OA
ATOM      5  N   UNL     1      -6.553  -4.029   0.030  0.00  0.00    -0.235 N 
ATOM      6  C   UNL     1      -7.162  -4.209  -1.150  0.00  0.00    +0.320 C 
ATOM      7  O   UNL     1      -8.284  -4.676  -1.153  0.00  0.00    -0.251 OA
ATOM      8  N   UNL     1      -6.601  -3.900  -2.327  0.00  0.00    -0.190 N 
ATOM      9  C   UNL     1      -5.361  -3.372  -2.400  0.00  0.00    +0.265 C 
ATOM     10  O   UNL     1      -4.864  -3.091  -3.475  0.00  0.00    -0.269 OA
ATOM     11  H   UNL     1      -7.017  -4.274   0.845  0.00  0.00    +0.159 HD
ENDROOT
BRANCH   8  12
ATOM     12  C   UNL     1      -7.320  -4.124  -3.509  0.00  0.00    +0.046 A 
ATOM     13  C   UNL     1      -6.886  -5.082  -4.416  0.00  0.00    +0.024 A 
ATOM     14  C   UNL     1      -7.596  -5.301  -5.580  0.00  0.00    +0.002 A 
ATOM     15  C   UNL     1      -8.739  -4.567  -5.842  0.00  0.00    +0.012 A 
ATOM     16  C   UNL     1      -9.174  -3.613  -4.941  0.00  0.00    +0.057 A 
ATOM     17  C   UNL     1      -8.470  -3.394  -3.772  0.00  0.00    +0.036 A 
BRANCH  16  18
ATOM     18  C   UNL     1     -10.419  -2.816  -5.231  0.00  0.00    +0.417 C 
ATOM     19  F   UNL     1     -10.955  -3.217  -6.459  0.00  0.00    -0.166 F 
ATOM     20  F   UNL     1     -11.359  -3.034  -4.218  0.00  0.00    -0.166 F 
ATOM     21  F   UNL     1     -10.100  -1.454  -5.285  0.00  0.00    -0.166 F 
ENDBRANCH  16  18
ENDBRANCH   8  12
BRANCH   1  22
ATOM     22  N   UNL     1      -2.647  -2.554   0.009  0.00  0.00    -0.336 N 
ATOM     23  H   UNL     1      -3.064  -2.813   0.846  0.00  0.00    +0.146 HD
BRANCH  22  24
ATOM     24  C   UNL     1      -1.257  -2.092  -0.004  0.00  0.00    +0.184 C 
BRANCH  24  25
ATOM     25  C   UNL     1      -1.227  -0.587   0.060  0.00  0.00    +0.328 C 
ATOM     26  O   UNL     1      -2.260   0.036   0.112  0.00  0.00    -0.249 OA
BRANCH  25  28
ATOM     27  C   UNL     1      -0.098   1.488   0.122  0.00  0.00    +0.280 C 
ATOM     28  O   UNL     1      -0.051   0.061   0.059  0.00  0.00    -0.467 OA
ENDBRANCH  25  28
ENDBRANCH  24  25
BRANCH  24  29
ATOM     29  C   UNL     1      -0.516  -2.670   1.203  0.00  0.00    +0.066 C 
BRANCH  29  30
ATOM     30  C   UNL     1      -0.439  -4.169   1.076  0.00  0.00    -0.039 C 
ATOM     31  C   UNL     1       0.585  -4.891   0.566  0.00  0.00    -0.001 A 
ATOM     32  C   UNL     1       1.883  -4.510  -0.003  0.00  0.00    +0.010 A 
ATOM     33  C   UNL     1       2.717  -5.480  -0.443  0.00  0.00    +0.001 A 
ATOM     34  C   UNL     1       2.373  -6.837  -0.369  0.00  0.00    +0.002 A 
ATOM     35  C   UNL     1       1.198  -7.264   0.140  0.00  0.00    +0.026 A 
ATOM     36  C   UNL     1       0.245  -6.330   0.633  0.00  0.00    +0.043 A 
ATOM     37  N   UNL     1      -0.942  -6.492   1.164  0.00  0.00    -0.380 N 
ATOM     38  C   UNL     1      -1.488  -5.172   1.500  0.00  0.00    +0.144 C 
ATOM     39  H   UNL     1      -1.384  -7.342   1.313  0.00  0.00    +0.160 HD
ENDBRANCH  29  30
ENDBRANCH  24  29
ENDBRANCH  22  24
ENDBRANCH   1  22
TORSDOF 8
