REMARK  Name = ZINC40267554
REMARK  8 active torsions:
REMARK  status: ('A' for Active; 'I' for Inactive)
REMARK    1  A    between atoms: C_1  and  C_2
REMARK    2  A    between atoms: C_2  and  C_3
REMARK    3  A    between atoms: C_2  and  C_4
REMARK    4  A    between atoms: C_4  and  C_6
REMARK    5  A    between atoms: C_4  and  N_10
REMARK    6  A    between atoms: C_6  and  O_8
REMARK    7  A    between atoms: O_8  and  C_9
REMARK    8  A    between atoms: C_22  and  C_24
REMARK                            x       y       z     vdW  Elec       q    Type
REMARK                         _______ _______ _______ _____ _____    ______ ____
ROOT
ATOM      1  N   UNL     1      -1.239  -2.029   2.717  0.00  0.00    -0.286 N 
ATOM      2  C   UNL     1      -1.280  -2.526   1.465  0.00  0.00    +0.304 C 
ATOM      3  O   UNL     1      -1.451  -1.780   0.520  0.00  0.00    -0.253 OA
ATOM      4  N   UNL     1      -1.133  -3.850   1.260  0.00  0.00    -0.273 N 
ATOM      5  C   UNL     1      -1.056  -4.397  -0.103  0.00  0.00    +0.116 C 
ATOM      6  C   UNL     1      -2.267  -5.306  -0.347  0.00  0.00    +0.074 C 
ATOM      7  C   UNL     1      -2.457  -6.195   0.854  0.00  0.00    +0.040 A 
ATOM      8  C   UNL     1      -1.923  -5.969   2.073  0.00  0.00    +0.062 A 
ATOM      9  N   UNL     1      -2.306  -6.957   2.885  0.00  0.00    -0.348 N 
ATOM     10  C   UNL     1      -3.058  -7.793   2.216  0.00  0.00    +0.171 A 
ATOM     11  N   UNL     1      -3.174  -7.350   0.943  0.00  0.00    -0.349 N 
ATOM     12  H   UNL     1      -3.673  -7.775   0.228  0.00  0.00    +0.166 HD
ATOM     13  C   UNL     1      -1.038  -4.784   2.397  0.00  0.00    +0.156 C 
ATOM     14  H   UNL     1      -1.166  -2.630   3.475  0.00  0.00    +0.151 HD
ATOM     15  H   UNL     1      -2.066  -7.041   3.821  0.00  0.00    +0.167 HD
ENDROOT
BRANCH  13  16
ATOM     16  C   UNL     1       0.389  -5.236   2.571  0.00  0.00    -0.020 A 
ATOM     17  C   UNL     1       1.010  -5.963   1.573  0.00  0.00    +0.009 A 
ATOM     18  C   UNL     1       2.319  -6.378   1.730  0.00  0.00    +0.040 A 
ATOM     19  C   UNL     1       3.009  -6.066   2.889  0.00  0.00    +0.142 A 
ATOM     20  C   UNL     1       2.386  -5.337   3.890  0.00  0.00    +0.076 A 
ATOM     21  C   UNL     1       1.078  -4.918   3.727  0.00  0.00    +0.028 A 
ATOM     22 CL   UNL     1       3.249  -4.944   5.344  0.00  0.00    -0.081 Cl
ATOM     23  F   UNL     1       4.288  -6.472   3.045  0.00  0.00    -0.204 F 
ENDBRANCH  13  16
BRANCH   1  24
ATOM     24  C   UNL     1      -1.305  -0.582   2.933  0.00  0.00    +0.186 C 
BRANCH  24  26
ATOM     25  C   UNL     1      -2.837   1.376   3.188  0.00  0.00    +0.009 C 
ATOM     26  C   UNL     1      -2.768  -0.136   2.962  0.00  0.00    +0.014 C 
ATOM     27  C   UNL     1      -3.433  -0.483   1.629  0.00  0.00    +0.009 C 
ENDBRANCH  24  26
BRANCH  24  28
ATOM     28  C   UNL     1      -0.649  -0.240   4.247  0.00  0.00    +0.328 C 
ATOM     29  O   UNL     1      -0.176  -1.115   4.932  0.00  0.00    -0.249 OA
BRANCH  28  30
ATOM     30  O   UNL     1      -0.592   1.038   4.655  0.00  0.00    -0.467 OA
ATOM     31  C   UNL     1       0.044   1.289   5.910  0.00  0.00    +0.280 C 
ENDBRANCH  28  30
ENDBRANCH  24  28
ENDBRANCH   1  24
TORSDOF 5
