REMARK  Name = ZINC04690615
REMARK  7 active torsions:
REMARK  status: ('A' for Active; 'I' for Inactive)
REMARK    1  A    between atoms: C_1  and  C_2
REMARK    2  A    between atoms: C_2  and  N_3
REMARK    3  A    between atoms: N_3  and  N_4
REMARK    4  A    between atoms: C_5  and  C_7
REMARK    5  A    between atoms: C_12  and  O_13
REMARK    6  A    between atoms: C_14  and  C_15
REMARK    7  A    between atoms: N_17  and  C_18
REMARK                            x       y       z     vdW  Elec       q    Type
REMARK                         _______ _______ _______ _____ _____    ______ ____
ROOT
ATOM      1  C   UNL     1      -0.021   1.854   0.157  0.00  0.00    +0.062 C 
ATOM      2  C   UNL     1      -0.743   1.814  -1.165  0.00  0.00    +0.024 C 
ATOM      3  C   UNL     1      -2.086   1.696  -1.198  0.00  0.00    +0.087 C 
ENDROOT
BRANCH   3   4
ATOM      4  C   UNL     1      -2.803   1.445  -0.004  0.00  0.00    +0.239 C 
ATOM      5  O   UNL     1      -2.202   1.218   1.030  0.00  0.00    -0.271 OA
ATOM      6  N   UNL     1      -4.150   1.456  -0.013  0.00  0.00    -0.306 N 
ATOM      7  H   UNL     1      -4.629   1.637  -0.837  0.00  0.00    +0.150 HD
BRANCH   6   8
ATOM      8  C   UNL     1      -4.893   1.196   1.223  0.00  0.00    +0.036 C 
ATOM      9  C   UNL     1      -4.538  -0.197   1.748  0.00  0.00    +0.029 C 
ATOM     10  C   UNL     1      -5.314  -0.468   3.039  0.00  0.00    -0.008 C 
ATOM     11  C   UNL     1      -6.815  -0.397   2.756  0.00  0.00    +0.007 C 
ATOM     12  C   UNL     1      -7.170   0.996   2.231  0.00  0.00    -0.008 C 
ATOM     13  C   UNL     1      -6.395   1.268   0.941  0.00  0.00    +0.029 C 
ATOM     14  C   UNL     1      -6.798   2.046   3.280  0.00  0.00    +0.007 C 
ATOM     15  C   UNL     1      -5.296   1.975   3.563  0.00  0.00    -0.008 C 
ATOM     16  C   UNL     1      -4.941   0.582   4.087  0.00  0.00    +0.007 C 
ATOM     17  C   UNL     1      -4.521   2.246   2.272  0.00  0.00    +0.029 C 
ENDBRANCH   6   8
ENDBRANCH   3   4
BRANCH   2  18
ATOM     18  N   UNL     1      -0.036   1.899  -2.332  0.00  0.00    -0.268 N 
ATOM     19  H   UNL     1       0.930   1.984  -2.309  0.00  0.00    +0.170 HD
BRANCH  18  20
ATOM     20  N   UNL     1      -0.706   1.862  -3.562  0.00  0.00    -0.233 N 
ATOM     21  C   UNL     1      -0.009   1.946  -4.712  0.00  0.00    +0.264 C 
ATOM     22  O   UNL     1       1.202   2.053  -4.683  0.00  0.00    -0.269 OA
ATOM     23  H   UNL     1      -1.672   1.777  -3.585  0.00  0.00    +0.173 HD
BRANCH  21  24
ATOM     24  C   UNL     1      -0.715   1.907  -6.007  0.00  0.00    +0.079 A 
ATOM     25  C   UNL     1      -2.107   1.790  -6.045  0.00  0.00    +0.017 A 
ATOM     26  C   UNL     1      -2.760   1.755  -7.258  0.00  0.00    +0.001 A 
ATOM     27  C   UNL     1      -2.044   1.834  -8.441  0.00  0.00    +0.004 A 
ATOM     28  C   UNL     1      -0.668   1.950  -8.417  0.00  0.00    +0.046 A 
ATOM     29  C   UNL     1       0.005   1.994  -7.205  0.00  0.00    +0.129 A 
BRANCH  29  30
ATOM     30  O   UNL     1       1.357   2.114  -7.181  0.00  0.00    -0.506 OA
ATOM     31  H   UNL     1       1.827   1.268  -7.190  0.00  0.00    +0.292 HD
ENDBRANCH  29  30
ENDBRANCH  21  24
ENDBRANCH  18  20
ENDBRANCH   2  18
TORSDOF 6
