REMARK  Name = ZINC21228461
REMARK  9 active torsions:
REMARK  status: ('A' for Active; 'I' for Inactive)
REMARK    1  A    between atoms: C_1  and  C_2
REMARK    2  A    between atoms: C_2  and  N_3
REMARK    3  A    between atoms: C_12  and  S_13
REMARK    4  A    between atoms: S_13  and  C_14
REMARK    5  A    between atoms: C_14  and  C_16
REMARK    6  A    between atoms: C_14  and  C_17
REMARK    7  A    between atoms: N_19  and  C_20
REMARK    8  A    between atoms: C_23  and  C_26
REMARK    9  A    between atoms: C_30  and  C_34
REMARK                            x       y       z     vdW  Elec       q    Type
REMARK                         _______ _______ _______ _____ _____    ______ ____
ROOT
ATOM      1  S   UNL     1       1.879   2.341   2.295  0.00  0.00    -0.075 S 
ENDROOT
BRANCH   1  11
ATOM      2  N   UNL     1      -0.540   2.488   1.083  0.00  0.00    -0.288 N 
ATOM      3  C   UNL     1      -1.873   2.663   1.022  0.00  0.00    +0.263 A 
ATOM      4  O   UNL     1      -2.457   2.591  -0.045  0.00  0.00    -0.267 OA
ATOM      5  C   UNL     1      -2.595   2.930   2.228  0.00  0.00    +0.076 A 
ATOM      6  C   UNL     1      -4.033   3.147   2.395  0.00  0.00    -0.023 A 
ATOM      7  C   UNL     1      -4.474   3.388   3.646  0.00  0.00    -0.004 A 
ATOM      8  S   UNL     1      -3.023   3.343   4.663  0.00  0.00    -0.073 S 
ATOM      9  C   UNL     1      -1.824   2.998   3.401  0.00  0.00    +0.117 A 
ATOM     10  N   UNL     1      -0.508   2.821   3.393  0.00  0.00    -0.216 NA
ATOM     11  C   UNL     1       0.132   2.571   2.268  0.00  0.00    +0.173 A 
ATOM     12  C   UNL     1      -5.887   3.640   4.077  0.00  0.00    +0.046 C 
ATOM     13  C   UNL     1      -6.726   3.952   2.830  0.00  0.00    -0.009 C 
ATOM     14  C   UNL     1      -6.422   2.902   1.758  0.00  0.00    +0.008 C 
ATOM     15  C   UNL     1      -5.005   3.105   1.219  0.00  0.00    +0.037 C 
ATOM     16  C   UNL     1      -8.213   3.909   3.188  0.00  0.00    +0.008 C 
BRANCH   2  18
ATOM     17  C   UNL     1       0.275   0.697  -0.369  0.00  0.00    +0.027 C 
ATOM     18  C   UNL     1       0.205   2.209  -0.147  0.00  0.00    +0.124 C 
ENDBRANCH   2  18
ENDBRANCH   1  11
BRANCH   1  19
ATOM     19  C   UNL     1       2.197   2.557   4.064  0.00  0.00    +0.137 C 
ATOM     20  C   UNL     1       1.863   3.994   4.471  0.00  0.00    +0.029 C 
BRANCH  19  21
ATOM     21  C   UNL     1       3.650   2.278   4.350  0.00  0.00    +0.230 C 
ATOM     22  O   UNL     1       4.477   2.412   3.474  0.00  0.00    -0.274 OA
ATOM     23  N   UNL     1       4.030   1.881   5.581  0.00  0.00    -0.285 N 
ATOM     24  H   UNL     1       3.295   1.843   6.398  0.00  0.00    +0.155 HD
BRANCH  23  25
ATOM     25  C   UNL     1       5.355   1.518   5.818  0.00  0.00    +0.033 A 
ATOM     26  C   UNL     1       6.093   0.894   4.817  0.00  0.00    +0.024 A 
ATOM     27  C   UNL     1       7.403   0.538   5.046  0.00  0.00    +0.015 A 
ATOM     28  C   UNL     1       7.988   0.794   6.289  0.00  0.00    +0.037 A 
ATOM     29  C   UNL     1       7.242   1.416   7.294  0.00  0.00    +0.015 A 
ATOM     30  C   UNL     1       5.934   1.774   7.057  0.00  0.00    +0.024 A 
BRANCH  28  31
ATOM     31  C   UNL     1       9.391   0.409   6.540  0.00  0.00    +0.242 C 
ATOM     32  O   UNL     1       9.899   0.633   7.622  0.00  0.00    -0.270 OA
ATOM     33  N   UNL     1      10.109  -0.191   5.570  0.00  0.00    -0.325 N 
ATOM     34  H   UNL     1      11.154  -0.477   5.757  0.00  0.00    +0.145 HD
ATOM     35  H   UNL     1       9.650  -0.393   4.591  0.00  0.00    +0.145 HD
ENDBRANCH  28  31
ENDBRANCH  23  25
ENDBRANCH  19  21
ENDBRANCH   1  19
TORSDOF 6
