REMARK  Name = ZINC20920106
REMARK  14 active torsions:
REMARK  status: ('A' for Active; 'I' for Inactive)
REMARK    1  A    between atoms: C_1  and  C_2
REMARK    2  A    between atoms: C_2  and  C_3
REMARK    3  A    between atoms: C_3  and  C_4
REMARK    4  A    between atoms: C_4  and  N_5
REMARK    5  A    between atoms: N_5  and  C_6
REMARK    6  A    between atoms: N_5  and  C_8
REMARK    7  A    between atoms: C_6  and  C_7
REMARK    8  A    between atoms: C_8  and  C_9
REMARK    9  A    between atoms: C_9  and  N_10
REMARK   10  A    between atoms: C_16  and  C_31
REMARK   11  A    between atoms: C_19  and  C_20
REMARK   12  A    between atoms: C_19  and  C_21
REMARK   13  A    between atoms: N_23  and  C_24
REMARK   14  A    between atoms: C_27  and  C_30
REMARK                            x       y       z     vdW  Elec       q    Type
REMARK                         _______ _______ _______ _____ _____    ______ ____
ROOT
ATOM      1  N   UNL     1      -5.609   5.198   0.179  0.00  0.00    -0.282 N 
ATOM      2  C   UNL     1      -4.654   5.933  -0.438  0.00  0.00    +0.264 C 
ATOM      3  O   UNL     1      -4.922   6.963  -1.029  0.00  0.00    -0.268 OA
ATOM      4  C   UNL     1      -3.284   5.415  -0.370  0.00  0.00    +0.105 A 
ATOM      5  C   UNL     1      -2.094   5.983  -0.727  0.00  0.00    +0.033 A 
ATOM      6  C   UNL     1      -1.090   5.052  -0.458  0.00  0.00    +0.032 A 
ATOM      7  C   UNL     1      -1.694   3.918   0.063  0.00  0.00    +0.085 A 
ATOM      8  N   UNL     1      -3.032   4.132   0.104  0.00  0.00    -0.331 N 
ATOM      9  C   UNL     1      -4.115   3.245   0.539  0.00  0.00    +0.157 C 
ATOM     10  C   UNL     1      -5.272   4.093   1.068  0.00  0.00    +0.128 C 
ATOM     11  C   UNL     1      -4.886   4.658   2.436  0.00  0.00    +0.043 C 
ENDROOT
BRANCH   7  12
ATOM     12  C   UNL     1      -1.003   2.693   0.491  0.00  0.00    +0.151 A 
ATOM     13  C   UNL     1       0.347   2.509   0.535  0.00  0.00    +0.051 A 
ATOM     14  C   UNL     1       0.562   1.199   1.000  0.00  0.00    +0.042 A 
ATOM     15  C   UNL     1      -0.651   0.651   1.216  0.00  0.00    +0.196 A 
ATOM     16  O   UNL     1      -1.594   1.554   0.902  0.00  0.00    -0.461 OA
ENDBRANCH   7  12
BRANCH  10  17
ATOM     17  C   UNL     1      -6.486   3.214   1.230  0.00  0.00    +0.238 C 
ATOM     18  O   UNL     1      -6.841   2.869   2.337  0.00  0.00    -0.273 OA
ATOM     19  N   UNL     1      -7.176   2.811   0.145  0.00  0.00    -0.311 N 
ATOM     20  H   UNL     1      -6.806   3.052  -0.863  0.00  0.00    +0.149 HD
BRANCH  19  21
ATOM     21  C   UNL     1      -8.419   2.053   0.307  0.00  0.00    +0.073 C 
ATOM     22  C   UNL     1      -8.089   0.579   0.550  0.00  0.00    +0.022 C 
ATOM     23  C   UNL     1      -7.307   0.028  -0.644  0.00  0.00    +0.005 C 
ATOM     24  C   UNL     1      -8.153   0.158  -1.912  0.00  0.00    -0.014 C 
ATOM     25  C   UNL     1      -8.483   1.632  -2.155  0.00  0.00    +0.005 C 
ATOM     26  C   UNL     1      -9.265   2.183  -0.961  0.00  0.00    +0.022 C 
ATOM     27  C   UNL     1      -7.372  -0.393  -3.106  0.00  0.00    +0.007 C 
ENDBRANCH  19  21
ENDBRANCH  10  17
BRANCH   1  28
ATOM     28  C   UNL     1      -7.018   5.527  -0.046  0.00  0.00    +0.091 C 
BRANCH  28  29
ATOM     29  C   UNL     1      -7.441   6.644   0.910  0.00  0.00    -0.060 C 
BRANCH  29  30
ATOM     30  N   UNL     1      -8.882   6.890   0.770  0.00  0.00    +0.381 N 
ATOM     31  H   UNL     1      -9.405   5.935   0.929  0.00  0.00    -0.082 HD
BRANCH  30  32
ATOM     32  C   UNL     1      -9.206   7.362  -0.582  0.00  0.00    -0.082 C 
ATOM     33  C   UNL     1      -8.368   8.601  -0.905  0.00  0.00    -0.017 C 
ENDBRANCH  30  32
BRANCH  30  34
ATOM     34  C   UNL     1      -9.355   7.839   1.787  0.00  0.00    -0.079 C 
BRANCH  34  35
ATOM     35  C   UNL     1     -10.882   7.773   1.875  0.00  0.00    -0.019 C 
BRANCH  35  37
ATOM     36  C   UNL     1     -12.909   8.772   2.940  0.00  0.00    +0.004 C 
ATOM     37  C   UNL     1     -11.382   8.838   2.853  0.00  0.00    -0.005 C 
ENDBRANCH  35  37
ENDBRANCH  34  35
ENDBRANCH  30  34
ENDBRANCH  29  30
ENDBRANCH  28  29
ENDBRANCH   1  28
TORSDOF 10
