REMARK  Name = ZINC43746588
REMARK  12 active torsions:
REMARK  status: ('A' for Active; 'I' for Inactive)
REMARK    1  A    between atoms: C_1  and  C_2
REMARK    2  A    between atoms: C_2  and  C_3
REMARK    3  A    between atoms: C_2  and  C_4
REMARK    4  A    between atoms: C_4  and  C_5
REMARK    5  A    between atoms: C_5  and  N_6
REMARK    6  A    between atoms: C_7  and  C_9
REMARK    7  A    between atoms: C_9  and  C_11
REMARK    8  A    between atoms: C_9  and  N_15
REMARK    9  A    between atoms: C_11  and  C_12
REMARK   10  A    between atoms: C_12  and  C_13
REMARK   11  A    between atoms: C_12  and  C_14
REMARK   12  A    between atoms: C_16  and  C_18
REMARK                            x       y       z     vdW  Elec       q    Type
REMARK                         _______ _______ _______ _____ _____    ______ ____
ROOT
ATOM      1  C   UNL     1      -5.123  -8.225  -0.025  0.00  0.00    +0.167 C 
ATOM      2  C   UNL     1      -4.611  -8.497   1.397  0.00  0.00    +0.069 C 
ATOM      3  C   UNL     1      -5.751  -8.440   2.381  0.00  0.00    -0.015 A 
ATOM      4  C   UNL     1      -5.661  -8.320   3.825  0.00  0.00    +0.003 A 
ATOM      5  C   UNL     1      -4.572  -8.213   4.696  0.00  0.00    +0.010 A 
ATOM      6  C   UNL     1      -4.857  -8.115   6.036  0.00  0.00    +0.001 A 
ATOM      7  C   UNL     1      -6.158  -8.121   6.514  0.00  0.00    +0.002 A 
ATOM      8  C   UNL     1      -7.253  -8.226   5.674  0.00  0.00    +0.026 A 
ATOM      9  C   UNL     1      -6.994  -8.324   4.308  0.00  0.00    +0.047 A 
ATOM     10  N   UNL     1      -7.817  -8.434   3.225  0.00  0.00    -0.356 N 
ATOM     11  H   UNL     1      -8.786  -8.466   3.262  0.00  0.00    +0.166 HD
ATOM     12  C   UNL     1      -7.069  -8.492   2.081  0.00  0.00    +0.046 A 
ATOM     13  C   UNL     1      -7.586  -8.576   0.665  0.00  0.00    +0.155 C 
ATOM     14  N   UNL     1      -6.412  -8.907  -0.178  0.00  0.00    -0.273 N 
ATOM     15  C   UNL     1      -6.751  -9.903  -1.007  0.00  0.00    +0.248 C 
ATOM     16  O   UNL     1      -6.105 -10.262  -1.973  0.00  0.00    -0.270 OA
ATOM     17  C   UNL     1      -8.020 -10.494  -0.572  0.00  0.00    +0.042 A 
ATOM     18  C   UNL     1      -8.565  -9.684   0.476  0.00  0.00    -0.009 A 
ATOM     19  C   UNL     1      -9.755  -9.981   1.101  0.00  0.00    +0.006 A 
ATOM     20  C   UNL     1     -10.440 -11.108   0.656  0.00  0.00    +0.000 A 
ATOM     21  C   UNL     1      -9.954 -11.897  -0.368  0.00  0.00    +0.001 A 
ATOM     22  C   UNL     1      -8.703 -11.625  -1.024  0.00  0.00    +0.013 A 
ENDROOT
BRANCH   1  24
ATOM     23  N   UNL     1      -4.244  -5.915  -0.117  0.00  0.00    -0.302 N 
ATOM     24  C   UNL     1      -5.302  -6.743  -0.228  0.00  0.00    +0.235 C 
ATOM     25  O   UNL     1      -6.398  -6.295  -0.491  0.00  0.00    -0.274 OA
ATOM     26  H   UNL     1      -3.356  -6.278   0.023  0.00  0.00    +0.150 HD
BRANCH  23  27
ATOM     27  C   UNL     1      -4.436  -4.465  -0.209  0.00  0.00    +0.159 C 
BRANCH  27  29
ATOM     28  N   UNL     1      -3.116  -2.518  -0.974  0.00  0.00    -0.314 N 
ATOM     29  C   UNL     1      -3.133  -3.809  -0.586  0.00  0.00    +0.233 C 
ATOM     30  O   UNL     1      -2.099  -4.442  -0.540  0.00  0.00    -0.274 OA
ATOM     31  H   UNL     1      -3.947  -2.025  -1.056  0.00  0.00    +0.149 HD
BRANCH  28  32
ATOM     32  C   UNL     1      -1.842  -1.860  -1.272  0.00  0.00    +0.104 C 
BRANCH  32  33
ATOM     33  C   UNL     1      -2.102  -0.410  -1.686  0.00  0.00    +0.022 C 
BRANCH  33  35
ATOM     34  C   UNL     1      -1.037   1.687  -2.531  0.00  0.00    +0.007 C 
ATOM     35  C   UNL     1      -0.771   0.278  -1.998  0.00  0.00    -0.016 C 
ATOM     36  C   UNL     1       0.069   0.365  -0.722  0.00  0.00    +0.007 C 
ENDBRANCH  33  35
ENDBRANCH  32  33
ENDBRANCH  28  32
ENDBRANCH  27  29
BRANCH  27  37
ATOM     37  C   UNL     1      -4.906  -3.926   1.144  0.00  0.00    +0.034 C 
BRANCH  37  38
ATOM     38  C   UNL     1      -5.139  -2.418   1.038  0.00  0.00    -0.015 C 
ATOM     39  C   UNL     1      -6.314  -2.148   0.096  0.00  0.00    +0.007 C 
ATOM     40  C   UNL     1      -5.458  -1.853   2.424  0.00  0.00    +0.007 C 
ENDBRANCH  37  38
ENDBRANCH  27  37
ENDBRANCH  23  27
ENDBRANCH   1  24
TORSDOF 8
