REMARK  Name = ZINC20416978
REMARK  13 active torsions:
REMARK  status: ('A' for Active; 'I' for Inactive)
REMARK    1  A    between atoms: C_1  and  C_2
REMARK    2  A    between atoms: C_2  and  C_3
REMARK    3  A    between atoms: C_3  and  C_5
REMARK    4  A    between atoms: C_3  and  N_21
REMARK    5  A    between atoms: N_7  and  C_8
REMARK    6  A    between atoms: C_8  and  C_9
REMARK    7  A    between atoms: C_9  and  C_10
REMARK    8  A    between atoms: C_10  and  N_11
REMARK    9  A    between atoms: C_13  and  C_20
REMARK   10  A    between atoms: C_16  and  C_19
REMARK   11  A    between atoms: C_22  and  C_38
REMARK   12  A    between atoms: N_26  and  C_32
REMARK   13  A    between atoms: C_30  and  C_31
REMARK                            x       y       z     vdW  Elec       q    Type
REMARK                         _______ _______ _______ _____ _____    ______ ____
ROOT
ATOM      1  C   UNL     1       1.054  -1.215  -1.614  0.00  0.00    +0.172 C 
ENDROOT
BRANCH   1   2
ATOM      2  N   UNL     1       2.323  -0.489  -1.521  0.00  0.00    -0.335 N 
ATOM      3  C   UNL     1       3.073  -0.383  -0.390  0.00  0.00    +0.026 A 
ATOM      4  C   UNL     1       4.174   0.356  -0.670  0.00  0.00    +0.028 A 
ATOM      5  C   UNL     1       5.346   0.830   0.069  0.00  0.00    +0.143 A 
ATOM      6  N   UNL     1       6.244   1.546  -0.536  0.00  0.00    -0.171 NA
ATOM      7  N   UNL     1       6.166   1.904  -1.880  0.00  0.00    -0.196 N 
ATOM      8  C   UNL     1       5.141   1.533  -2.675  0.00  0.00    +0.281 A 
ATOM      9  O   UNL     1       5.110   1.867  -3.845  0.00  0.00    -0.265 OA
ATOM     10  C   UNL     1       4.066   0.721  -2.101  0.00  0.00    +0.071 A 
ATOM     11  C   UNL     1       2.912   0.162  -2.547  0.00  0.00    +0.030 A 
ATOM     12  C   UNL     1       2.375   0.256  -3.952  0.00  0.00    +0.064 C 
ATOM     13  C   UNL     1       2.735  -0.986   0.950  0.00  0.00    +0.064 C 
BRANCH   7  14
ATOM     14  C   UNL     1       7.193   2.679  -2.428  0.00  0.00    +0.069 A 
ATOM     15  C   UNL     1       6.889   3.815  -3.168  0.00  0.00    +0.028 A 
ATOM     16  C   UNL     1       7.905   4.579  -3.708  0.00  0.00    +0.002 A 
ATOM     17  C   UNL     1       9.225   4.214  -3.512  0.00  0.00    +0.000 A 
ATOM     18  C   UNL     1       9.531   3.084  -2.776  0.00  0.00    +0.002 A 
ATOM     19  C   UNL     1       8.520   2.319  -2.228  0.00  0.00    +0.028 A 
ENDBRANCH   7  14
ENDBRANCH   1   2
BRANCH   1  20
ATOM     20  C   UNL     1       1.252  -2.634  -1.147  0.00  0.00    +0.236 C 
ATOM     21  O   UNL     1       2.345  -3.002  -0.773  0.00  0.00    -0.274 OA
ATOM     22  N   UNL     1       0.214  -3.494  -1.145  0.00  0.00    -0.314 N 
ATOM     23  H   UNL     1      -0.660  -3.199  -1.444  0.00  0.00    +0.149 HD
BRANCH  22  24
ATOM     24  C   UNL     1       0.406  -4.873  -0.690  0.00  0.00    +0.102 C 
BRANCH  24  25
ATOM     25  C   UNL     1      -0.919  -5.631  -0.787  0.00  0.00    +0.000 C 
BRANCH  25  26
ATOM     26  C   UNL     1      -0.718  -7.072  -0.313  0.00  0.00    -0.077 C 
BRANCH  26  27
ATOM     27  N   UNL     1      -1.990  -7.800  -0.406  0.00  0.00    +0.380 N 
ATOM     28  C   UNL     1      -2.961  -7.208   0.522  0.00  0.00    -0.076 C 
ATOM     29  C   UNL     1      -4.311  -7.911   0.371  0.00  0.00    -0.031 C 
ATOM     30  C   UNL     1      -4.144  -9.400   0.686  0.00  0.00    +0.003 C 
ATOM     31  C   UNL     1      -3.076  -9.990  -0.240  0.00  0.00    -0.031 C 
ATOM     32  C   UNL     1      -1.771  -9.211  -0.066  0.00  0.00    -0.076 C 
ATOM     33  C   UNL     1      -2.846 -11.460   0.118  0.00  0.00    +0.005 C 
ATOM     34  C   UNL     1      -5.320  -7.293   1.341  0.00  0.00    +0.005 C 
ATOM     35  H   UNL     1      -2.346  -7.734  -1.348  0.00  0.00    -0.082 HD
ENDBRANCH  26  27
ENDBRANCH  25  26
ENDBRANCH  24  25
ENDBRANCH  22  24
ENDBRANCH   1  20
BRANCH   1  37
ATOM     36  C   UNL     1      -0.260   0.881  -1.264  0.00  0.00    +0.006 C 
ATOM     37  C   UNL     1       0.008  -0.529  -0.733  0.00  0.00    +0.031 C 
ENDBRANCH   1  37
TORSDOF 8
