REMARK  Name = ZINC11066288
REMARK  10 active torsions:
REMARK  status: ('A' for Active; 'I' for Inactive)
REMARK    1  A    between atoms: C_1  and  O_2
REMARK    2  A    between atoms: O_2  and  C_3
REMARK    3  A    between atoms: C_5  and  O_32
REMARK    4  A    between atoms: C_6  and  C_11
REMARK    5  A    between atoms: C_7  and  O_9
REMARK    6  A    between atoms: O_9  and  C_10
REMARK    7  A    between atoms: C_16  and  C_17
REMARK    8  A    between atoms: C_16  and  N_61
REMARK    9  A    between atoms: N_22  and  C_23
REMARK   10  A    between atoms: O_32  and  C_33
REMARK                            x       y       z     vdW  Elec       q    Type
REMARK                         _______ _______ _______ _____ _____    ______ ____
ROOT
ATOM      1  C   UNL     1      -4.462  -7.277   0.831  0.00  0.00    -0.041 C 
ATOM      2  C   UNL     1      -3.600  -6.408   1.315  0.00  0.00    -0.041 C 
ATOM      3  C   UNL     1      -3.814  -4.923   1.254  0.00  0.00    -0.050 C 
ATOM      4  C   UNL     1      -6.055  -5.404   0.502  0.00  0.00    -0.073 C 
ATOM      5  C   UNL     1      -5.742  -6.863   0.161  0.00  0.00    +0.017 C 
ATOM      6  N   UNL     1      -4.839  -4.608   0.241  0.00  0.00    +0.388 N 
ATOM      7  H   UNL     1      -4.475  -4.846  -0.689  0.00  0.00    -0.081 HD
ENDROOT
BRANCH   1  11
ATOM      8  C   UNL     1      -3.588 -11.426   1.175  0.00  0.00    +0.127 A 
ATOM      9  C   UNL     1      -4.295 -10.783   2.182  0.00  0.00    +0.092 A 
ATOM     10  C   UNL     1      -4.583  -9.434   2.076  0.00  0.00    +0.134 A 
ATOM     11  C   UNL     1      -4.158  -8.717   0.950  0.00  0.00    +0.061 A 
ATOM     12  C   UNL     1      -3.450  -9.373  -0.064  0.00  0.00    +0.134 A 
ATOM     13  C   UNL     1      -3.165 -10.722   0.057  0.00  0.00    +0.092 A 
BRANCH   8  15
ATOM     14  C   UNL     1      -2.579 -13.352   0.213  0.00  0.00    +0.277 C 
ATOM     15  O   UNL     1      -3.310 -12.752   1.285  0.00  0.00    -0.495 OA
ENDBRANCH   8  15
BRANCH  12  16
ATOM     16  O   UNL     1      -3.039  -8.686  -1.161  0.00  0.00    -0.494 OA
ATOM     17  C   UNL     1      -2.321  -9.420  -2.155  0.00  0.00    +0.277 C 
ENDBRANCH  12  16
BRANCH  10  18
ATOM     18  O   UNL     1      -5.275  -8.806   3.061  0.00  0.00    -0.494 OA
ATOM     19  C   UNL     1      -5.676  -9.600   4.180  0.00  0.00    +0.277 C 
ENDBRANCH  10  18
ENDBRANCH   1  11
BRANCH   6  20
ATOM     20  C   UNL     1      -5.160  -3.163   0.278  0.00  0.00    +0.019 C 
BRANCH  20  21
ATOM     21  C   UNL     1      -6.041  -2.828  -0.897  0.00  0.00    +0.204 C 
ATOM     22  O   UNL     1      -6.287  -3.673  -1.731  0.00  0.00    -0.277 OA
ATOM     23  N   UNL     1      -6.556  -1.589  -1.022  0.00  0.00    -0.241 N 
ATOM     24  C   UNL     1      -7.345  -1.289  -2.073  0.00  0.00    +0.310 C 
ATOM     25  O   UNL     1      -7.591  -2.136  -2.909  0.00  0.00    -0.252 OA
ATOM     26  N   UNL     1      -7.859  -0.050  -2.198  0.00  0.00    -0.269 N 
ATOM     27  H   UNL     1      -6.359  -0.912  -0.355  0.00  0.00    +0.159 HD
ATOM     28  H   UNL     1      -7.602   0.647  -1.574  0.00  0.00    +0.156 HD
BRANCH  26  29
ATOM     29  C   UNL     1      -8.766   0.232  -3.228  0.00  0.00    +0.038 A 
ATOM     30  C   UNL     1      -9.645  -0.749  -3.667  0.00  0.00    +0.027 A 
ATOM     31  C   UNL     1     -10.544  -0.471  -4.679  0.00  0.00    +0.051 A 
ATOM     32  C   UNL     1     -10.567   0.785  -5.263  0.00  0.00    +0.166 A 
ATOM     33  C   UNL     1      -9.682   1.770  -4.829  0.00  0.00    +0.168 A 
ATOM     34  C   UNL     1      -8.782   1.490  -3.814  0.00  0.00    +0.073 A 
ATOM     35  O   UNL     1      -9.903   2.905  -5.554  0.00  0.00    -0.453 OA
ATOM     36  C   UNL     1     -11.202   2.733  -6.151  0.00  0.00    +0.466 C 
ATOM     37  O   UNL     1     -11.342   1.305  -6.260  0.00  0.00    -0.453 OA
ENDBRANCH  26  29
ENDBRANCH  20  21
ENDBRANCH   6  20
TORSDOF 7
