REMARK  Name = ZINC38651540
REMARK  10 active torsions:
REMARK  status: ('A' for Active; 'I' for Inactive)
REMARK    1  A    between atoms: C_1  and  C_2
REMARK    2  A    between atoms: C_2  and  C_3
REMARK    3  A    between atoms: C_6  and  O_9
REMARK    4  A    between atoms: O_9  and  C_10
REMARK    5  A    between atoms: C_10  and  C_11
REMARK    6  A    between atoms: C_11  and  O_13
REMARK    7  A    between atoms: O_13  and  C_14
REMARK    8  A    between atoms: C_21  and  N_34
REMARK    9  A    between atoms: C_22  and  C_32
REMARK   10  A    between atoms: C_23  and  C_25
REMARK                            x       y       z     vdW  Elec       q    Type
REMARK                         _______ _______ _______ _____ _____    ______ ____
ROOT
ATOM      1  C   UNL     1       6.404  -3.238  -7.177  0.00  0.00    +0.135 A 
ATOM      2  C   UNL     1       5.587  -3.391  -8.289  0.00  0.00    +0.047 A 
ATOM      3  C   UNL     1       6.114  -3.868  -9.472  0.00  0.00    +0.012 A 
ATOM      4  C   UNL     1       7.456  -4.196  -9.556  0.00  0.00    +0.008 A 
ATOM      5  C   UNL     1       8.276  -4.045  -8.449  0.00  0.00    +0.138 A 
ATOM      6  C   UNL     1       7.749  -3.558  -7.260  0.00  0.00    +0.093 A 
ATOM      7  O   UNL     1       9.594  -4.360  -8.511  0.00  0.00    -0.441 OA
ATOM      8  C   UNL     1      10.205  -4.451  -9.704  0.00  0.00    +0.199 C 
ATOM      9  C   UNL     1       9.511  -4.620 -10.854  0.00  0.00    +0.098 C 
ATOM     10  C   UNL     1       8.011  -4.716 -10.855  0.00  0.00    +0.098 C 
ENDROOT
BRANCH  10  11
ATOM     11  C   UNL     1       7.603  -6.156 -11.032  0.00  0.00    -0.034 A 
ATOM     12  C   UNL     1       7.981  -7.101 -10.097  0.00  0.00    +0.004 A 
ATOM     13  C   UNL     1       7.607  -8.422 -10.259  0.00  0.00    +0.001 A 
ATOM     14  C   UNL     1       6.854  -8.798 -11.355  0.00  0.00    +0.015 A 
ATOM     15  C   UNL     1       6.475  -7.852 -12.291  0.00  0.00    +0.018 A 
ATOM     16  C   UNL     1       6.846  -6.530 -12.126  0.00  0.00    +0.020 A 
ATOM     17 BR   UNL     1       5.446  -8.366 -13.792  0.00  0.00    -0.050 Br
ENDBRANCH  10  11
BRANCH   8  18
ATOM     18  N   UNL     1      11.574  -4.370  -9.758  0.00  0.00    -0.328 N 
ATOM     19  H   UNL     1      12.085  -4.248  -8.943  0.00  0.00    +0.145 HD
ATOM     20  H   UNL     1      12.030  -4.434 -10.612  0.00  0.00    +0.145 HD
ENDBRANCH   8  18
BRANCH   9  21
ATOM     21  C   UNL     1      10.220  -4.709 -12.095  0.00  0.00    +0.101 C 
ATOM     22  N   UNL     1      10.783  -4.780 -13.079  0.00  0.00    -0.191 NA
ENDBRANCH   9  21
BRANCH   1  23
ATOM     23  O   UNL     1       5.886  -2.768  -6.012  0.00  0.00    -0.423 OA
BRANCH  23  24
ATOM     24  C   UNL     1       5.167  -3.613  -5.256  0.00  0.00    +0.350 C 
ATOM     25  O   UNL     1       4.920  -4.724  -5.660  0.00  0.00    -0.247 OA
BRANCH  24  26
ATOM     26  C   UNL     1       4.666  -3.174  -3.904  0.00  0.00    +0.349 C 
BRANCH  26  27
ATOM     27  O   UNL     1       3.932  -4.241  -3.299  0.00  0.00    -0.481 OA
BRANCH  27  31
ATOM     28  C   UNL     1       2.344  -3.534   0.443  0.00  0.00    -0.047 A 
ATOM     29  C   UNL     1       2.154  -4.760  -0.167  0.00  0.00    +0.007 A 
ATOM     30  C   UNL     1       2.685  -4.999  -1.420  0.00  0.00    +0.046 A 
ATOM     31  C   UNL     1       3.409  -4.008  -2.066  0.00  0.00    +0.121 A 
ATOM     32  C   UNL     1       3.597  -2.778  -1.452  0.00  0.00    +0.046 A 
ATOM     33  C   UNL     1       3.060  -2.542  -0.202  0.00  0.00    +0.007 A 
BRANCH  28  35
ATOM     34  C   UNL     1       0.351  -2.705   1.665  0.00  0.00    +0.009 C 
ATOM     35  C   UNL     1       1.764  -3.276   1.810  0.00  0.00    +0.032 C 
ENDBRANCH  28  35
ENDBRANCH  27  31
ENDBRANCH  26  27
ENDBRANCH  24  26
ENDBRANCH  23  24
ENDBRANCH   1  23
TORSDOF 9
