REMARK  Name = ZINC46900887
REMARK  5 active torsions:
REMARK  status: ('A' for Active; 'I' for Inactive)
REMARK    1  A    between atoms: C_3  and  C_8
REMARK    2  A    between atoms: C_10  and  C_13
REMARK    3  A    between atoms: N_15  and  N_16
REMARK    4  A    between atoms: C_17  and  C_19
REMARK    5  A    between atoms: C_19  and  C_20
REMARK                            x       y       z     vdW  Elec       q    Type
REMARK                         _______ _______ _______ _____ _____    ______ ____
ROOT
ATOM      1  C   UNL     1       7.322   2.503  -0.065  0.00  0.00    +0.298 C 
ATOM      2  O   UNL     1       7.834   1.400  -0.081  0.00  0.00    -0.265 OA
ATOM      3  N   UNL     1       8.097   3.606  -0.065  0.00  0.00    -0.228 N 
ATOM      4  H   UNL     1       7.689   4.485  -0.052  0.00  0.00    +0.173 HD
ENDROOT
BRANCH   1   7
ATOM      5  C   UNL     1       3.660   2.168  -0.022  0.00  0.00    +0.114 A 
ATOM      6  C   UNL     1       4.959   1.610  -0.043  0.00  0.00    +0.086 A 
ATOM      7  C   UNL     1       5.853   2.634  -0.045  0.00  0.00    +0.223 A 
ATOM      8  O   UNL     1       5.160   3.789  -0.026  0.00  0.00    -0.349 OA
ATOM      9  N   UNL     1       3.780   3.473  -0.017  0.00  0.00    -0.077 NA
BRANCH   5  12
ATOM     10  C   UNL     1      -0.017   1.378   0.010  0.00  0.00    +0.003 A 
ATOM     11  C   UNL     1       1.168   2.088   0.002  0.00  0.00    +0.010 A 
ATOM     12  C   UNL     1       2.384   1.409  -0.013  0.00  0.00    +0.006 A 
ATOM     13  C   UNL     1       2.400   0.017  -0.021  0.00  0.00    +0.048 A 
ATOM     14  C   UNL     1       1.209  -0.685  -0.013  0.00  0.00    +0.124 A 
ATOM     15  C   UNL     1       0.002  -0.004   0.002  0.00  0.00    +0.038 A 
ATOM     16  F   UNL     1       1.221  -2.036  -0.021  0.00  0.00    -0.205 F 
ENDBRANCH   5  12
ENDBRANCH   1   7
BRANCH   3  17
ATOM     17  N   UNL     1       9.492   3.481  -0.083  0.00  0.00    -0.234 N 
ATOM     18  C   UNL     1      10.267   4.584  -0.084  0.00  0.00    +0.230 C 
ATOM     19  O   UNL     1       9.756   5.684  -0.068  0.00  0.00    -0.274 OA
ATOM     20  H   UNL     1       9.901   2.602  -0.096  0.00  0.00    +0.173 HD
BRANCH  18  21
ATOM     21  C   UNL     1      11.768   4.451  -0.103  0.00  0.00    +0.104 C 
BRANCH  21  22
ATOM     22  C   UNL     1      12.404   5.842  -0.099  0.00  0.00    -0.020 C 
ATOM     23  C   UNL     1      11.944   6.617  -1.336  0.00  0.00    +0.011 C 
ATOM     24  C   UNL     1      12.580   8.008  -1.332  0.00  0.00    -0.010 C 
ATOM     25  C   UNL     1      14.104   7.873  -1.352  0.00  0.00    +0.007 C 
ATOM     26  C   UNL     1      14.564   7.098  -0.115  0.00  0.00    -0.010 C 
ATOM     27  C   UNL     1      13.928   5.707  -0.120  0.00  0.00    +0.011 C 
ATOM     28  C   UNL     1      14.136   7.851   1.146  0.00  0.00    +0.007 C 
ATOM     29  C   UNL     1      12.612   7.987   1.166  0.00  0.00    -0.010 C 
ATOM     30  C   UNL     1      12.152   8.761  -0.071  0.00  0.00    +0.007 C 
ATOM     31  C   UNL     1      11.976   6.595   1.162  0.00  0.00    +0.011 C 
ENDBRANCH  21  22
ENDBRANCH  18  21
ENDBRANCH   3  17
TORSDOF 5
