REMARK  Name = ZINC39691268
REMARK  11 active torsions:
REMARK  status: ('A' for Active; 'I' for Inactive)
REMARK    1  A    between atoms: C_1  and  C_2
REMARK    2  A    between atoms: C_7  and  C_8
REMARK    3  A    between atoms: C_8  and  C_9
REMARK    4  A    between atoms: C_9  and  N_10
REMARK    5  A    between atoms: C_11  and  C_13
REMARK    6  A    between atoms: C_24  and  C_26
REMARK    7  A    between atoms: C_26  and  C_28
REMARK    8  A    between atoms: C_26  and  O_31
REMARK    9  A    between atoms: C_28  and  C_29
REMARK   10  A    between atoms: C_28  and  C_30
REMARK   11  A    between atoms: O_31  and  C_32
REMARK                            x       y       z     vdW  Elec       q    Type
REMARK                         _______ _______ _______ _____ _____    ______ ____
ROOT
ATOM      1  C   UNL     1      -2.449   2.688   6.019  0.00  0.00    +0.100 C 
ATOM      2  C   UNL     1      -2.004   1.665   7.088  0.00  0.00    +0.121 C 
ATOM      3  N   UNL     1      -2.882   1.935   8.252  0.00  0.00    -0.297 N 
ATOM      4  C   UNL     1      -4.209   2.218   7.655  0.00  0.00    +0.115 C 
ATOM      5  C   UNL     1      -3.896   3.048   6.394  0.00  0.00    -0.004 C 
ATOM      6  C   UNL     1      -4.846   2.665   5.263  0.00  0.00    -0.010 C 
ATOM      7  C   UNL     1      -6.271   3.086   5.634  0.00  0.00    -0.082 C 
ATOM      8  N   UNL     1      -6.311   4.535   5.864  0.00  0.00    +0.379 N 
ATOM      9  C   UNL     1      -5.466   4.883   7.014  0.00  0.00    -0.082 C 
ATOM     10  C   UNL     1      -4.007   4.538   6.701  0.00  0.00    -0.010 C 
ATOM     11  C   UNL     1      -2.548   1.925   9.557  0.00  0.00    +0.257 C 
ATOM     12  O   UNL     1      -3.403   2.085  10.403  0.00  0.00    -0.272 OA
ATOM     13  H   UNL     1      -5.973   5.014   5.043  0.00  0.00    -0.086 HD
ATOM     14  H   UNL     1      -7.261   4.819   6.049  0.00  0.00    -0.086 HD
ENDROOT
BRANCH   1  16
ATOM     15  N   UNL     1      -2.326   2.851   3.554  0.00  0.00    -0.315 N 
ATOM     16  C   UNL     1      -2.401   2.066   4.647  0.00  0.00    +0.218 C 
ATOM     17  O   UNL     1      -2.430   0.860   4.526  0.00  0.00    -0.275 OA
ATOM     18  H   UNL     1      -2.303   3.816   3.650  0.00  0.00    +0.149 HD
BRANCH  15  19
ATOM     19  C   UNL     1      -2.280   2.247   2.220  0.00  0.00    +0.109 C 
BRANCH  19  20
ATOM     20  C   UNL     1      -2.197   3.350   1.163  0.00  0.00    +0.054 C 
BRANCH  20  27
ATOM     21  C   UNL     1      -4.651   2.628  -0.182  0.00  0.00    +0.044 C 
ATOM     22  C   UNL     1      -3.323   2.384  -0.853  0.00  0.00    -0.047 A 
ATOM     23  C   UNL     1      -3.280   1.819  -2.114  0.00  0.00    +0.003 A 
ATOM     24  C   UNL     1      -2.063   1.595  -2.729  0.00  0.00    +0.000 A 
ATOM     25  C   UNL     1      -0.889   1.935  -2.083  0.00  0.00    +0.000 A 
ATOM     26  C   UNL     1      -0.932   2.501  -0.823  0.00  0.00    +0.004 A 
ATOM     27  C   UNL     1      -2.150   2.729  -0.209  0.00  0.00    -0.043 A 
ENDBRANCH  20  27
ENDBRANCH  19  20
ENDBRANCH  15  19
ENDBRANCH   1  16
BRANCH  11  28
ATOM     28  C   UNL     1      -1.113   1.716   9.967  0.00  0.00    +0.261 C 
BRANCH  28  29
ATOM     29  C   UNL     1      -0.834   0.218  10.100  0.00  0.00    +0.033 C 
ATOM     30  C   UNL     1      -1.199  -0.487   8.793  0.00  0.00    +0.011 C 
ATOM     31  C   UNL     1       0.651  -0.000  10.400  0.00  0.00    +0.011 C 
ENDBRANCH  28  29
BRANCH  28  32
ATOM     32  O   UNL     1      -0.877   2.358  11.222  0.00  0.00    -0.479 OA
BRANCH  32  33
ATOM     33  C   UNL     1       0.357   2.891  11.420  0.00  0.00    +0.122 A 
ATOM     34  C   UNL     1       1.291   2.882  10.394  0.00  0.00    +0.045 A 
ATOM     35  C   UNL     1       2.544   3.425  10.597  0.00  0.00    +0.004 A 
ATOM     36  C   UNL     1       2.869   3.978  11.822  0.00  0.00    +0.000 A 
ATOM     37  C   UNL     1       1.940   3.988  12.847  0.00  0.00    +0.004 A 
ATOM     38  C   UNL     1       0.683   3.451  12.646  0.00  0.00    +0.045 A 
ENDBRANCH  32  33
ENDBRANCH  28  32
ENDBRANCH  11  28
TORSDOF 8
