REMARK  Name = ZINC57380650
REMARK  6 active torsions:
REMARK  status: ('A' for Active; 'I' for Inactive)
REMARK    1  A    between atoms: C_1  and  C_2
REMARK    2  A    between atoms: C_2  and  C_4
REMARK    3  A    between atoms: C_2  and  N_10
REMARK    4  A    between atoms: N_6  and  C_7
REMARK    5  A    between atoms: C_23  and  C_25
REMARK    6  A    between atoms: C_25  and  N_26
REMARK                            x       y       z     vdW  Elec       q    Type
REMARK                         _______ _______ _______ _____ _____    ______ ____
ROOT
ATOM      1  N   UNL     1      -1.759  -1.299   1.095  0.00  0.00    -0.289 NA
ATOM      2  C   UNL     1      -2.958  -2.121   1.311  0.00  0.00    +0.104 C 
ATOM      3  C   UNL     1      -3.903  -1.964   0.115  0.00  0.00    +0.122 C 
ATOM      4  N   UNL     1      -4.161  -0.531  -0.091  0.00  0.00    -0.312 N 
ATOM      5  C   UNL     1      -3.008   0.378  -0.179  0.00  0.00    +0.122 C 
ATOM      6  C   UNL     1      -2.098   0.129   1.028  0.00  0.00    +0.104 C 
ATOM      7  C   UNL     1      -5.453  -0.050  -0.200  0.00  0.00    +0.133 A 
ATOM      8  C   UNL     1      -6.045   0.144  -1.479  0.00  0.00    +0.051 A 
ATOM      9  C   UNL     1      -5.467  -0.097  -2.803  0.00  0.00    -0.025 A 
ATOM     10  C   UNL     1      -6.248   0.172  -3.869  0.00  0.00    -0.004 A 
ATOM     11  S   UNL     1      -7.778   0.753  -3.188  0.00  0.00    -0.073 S 
ATOM     12  C   UNL     1      -7.365   0.636  -1.467  0.00  0.00    +0.114 A 
ATOM     13  N   UNL     1      -7.994   0.895  -0.336  0.00  0.00    -0.227 NA
ATOM     14  C   UNL     1      -7.393   0.695   0.820  0.00  0.00    +0.116 A 
ATOM     15  N   UNL     1      -6.158   0.229   0.884  0.00  0.00    -0.219 NA
ATOM     16  C   UNL     1      -5.894   0.012  -5.316  0.00  0.00    +0.043 C 
ATOM     17  C   UNL     1      -4.371  -0.153  -5.427  0.00  0.00    +0.005 C 
ATOM     18  C   UNL     1      -3.915  -1.196  -4.402  0.00  0.00    +0.005 C 
ATOM     19  C   UNL     1      -4.048  -0.628  -2.989  0.00  0.00    +0.037 C 
ENDROOT
BRANCH   1  21
ATOM     20  C   UNL     1      -1.382  -1.351   3.514  0.00  0.00    +0.034 C 
ATOM     21  C   UNL     1      -0.753  -1.553   2.135  0.00  0.00    +0.140 C 
BRANCH  21  22
ATOM     22  C   UNL     1      -0.252  -2.969   2.013  0.00  0.00    +0.230 C 
ATOM     23  O   UNL     1      -0.690  -3.695   1.146  0.00  0.00    -0.274 OA
ATOM     24  N   UNL     1       0.684  -3.428   2.868  0.00  0.00    -0.311 N 
ATOM     25  H   UNL     1       1.034  -2.848   3.561  0.00  0.00    +0.149 HD
BRANCH  24  26
ATOM     26  C   UNL     1       1.171  -4.805   2.750  0.00  0.00    +0.073 C 
ATOM     27  C   UNL     1       1.330  -5.611   4.040  0.00  0.00    +0.024 C 
ATOM     28  C   UNL     1       2.568  -5.109   3.294  0.00  0.00    +0.024 C 
ENDBRANCH  24  26
ENDBRANCH  21  22
ENDBRANCH   1  21
BRANCH  14  29
ATOM     29  C   UNL     1      -8.133   0.999   2.098  0.00  0.00    -0.001 C 
BRANCH  29  30
ATOM     30  N   UNL     1      -8.857  -0.200   2.541  0.00  0.00    +0.384 N 
ATOM     31  C   UNL     1      -7.894  -1.254   2.881  0.00  0.00    -0.078 C 
ATOM     32  C   UNL     1      -8.645  -2.531   3.265  0.00  0.00    -0.019 C 
ATOM     33  C   UNL     1      -9.540  -2.246   4.474  0.00  0.00    -0.004 C 
ATOM     34  C   UNL     1     -10.491  -1.095   4.133  0.00  0.00    -0.019 C 
ATOM     35  C   UNL     1      -9.672   0.129   3.716  0.00  0.00    -0.078 C 
ATOM     36  H   UNL     1      -9.457  -0.523   1.797  0.00  0.00    -0.081 HD
ENDBRANCH  29  30
ENDBRANCH  14  29
TORSDOF 5
