REMARK  Name = ZINC39711540
REMARK  14 active torsions:
REMARK  status: ('A' for Active; 'I' for Inactive)
REMARK    1  A    between atoms: C_1  and  C_2
REMARK    2  A    between atoms: C_2  and  O_3
REMARK    3  A    between atoms: O_3  and  C_4
REMARK    4  A    between atoms: C_11  and  C_16
REMARK    5  A    between atoms: C_16  and  C_18
REMARK    6  A    between atoms: C_16  and  N_28
REMARK    7  A    between atoms: N_23  and  C_24
REMARK    8  A    between atoms: C_24  and  C_25
REMARK    9  A    between atoms: C_24  and  C_26
REMARK   10  A    between atoms: C_24  and  C_27
REMARK   11  A    between atoms: N_28  and  C_29
REMARK   12  A    between atoms: N_28  and  C_35
REMARK   13  A    between atoms: C_29  and  C_30
REMARK   14  A    between atoms: C_35  and  C_36
REMARK                            x       y       z     vdW  Elec       q    Type
REMARK                         _______ _______ _______ _____ _____    ______ ____
ROOT
ATOM      1  C   UNL     1       2.224  -6.740   5.429  0.00  0.00    -0.008 C 
ENDROOT
BRANCH   1   9
ATOM      2  C   UNL     1       1.598  -1.464   3.007  0.00  0.00    +0.121 A 
ATOM      3  C   UNL     1       0.997  -2.009   1.866  0.00  0.00    +0.047 A 
ATOM      4  C   UNL     1       1.006  -3.340   1.599  0.00  0.00    +0.027 A 
ATOM      5  C   UNL     1       1.631  -4.242   2.480  0.00  0.00    +0.041 A 
ATOM      6  N   UNL     1       1.631  -5.547   2.205  0.00  0.00    -0.285 N 
ATOM      7  C   UNL     1       2.200  -6.449   2.987  0.00  0.00    +0.223 C 
ATOM      8  O   UNL     1       2.168  -7.627   2.684  0.00  0.00    -0.275 OA
ATOM      9  C   UNL     1       2.889  -6.012   4.260  0.00  0.00    +0.088 C 
ATOM     10  C   UNL     1       2.892  -4.529   4.576  0.00  0.00    -0.006 C 
ATOM     11  C   UNL     1       2.272  -3.699   3.690  0.00  0.00    -0.004 A 
ATOM     12  C   UNL     1       2.234  -2.254   3.916  0.00  0.00    +0.055 A 
ATOM     13  H   UNL     1       1.194  -5.849   1.394  0.00  0.00    +0.155 HD
BRANCH   2  14
ATOM     14  O   UNL     1       1.551  -0.121   3.209  0.00  0.00    -0.492 OA
BRANCH  14  16
ATOM     15  C   UNL     1       0.922   2.137   2.619  0.00  0.00    +0.048 C 
ATOM     16  C   UNL     1       0.871   0.660   2.224  0.00  0.00    +0.225 C 
ENDBRANCH  14  16
ENDBRANCH   2  14
ENDBRANCH   1   9
BRANCH   1  17
ATOM     17  C   UNL     1       0.739  -6.373   5.479  0.00  0.00    +0.205 C 
ATOM     18  N   UNL     1       0.071  -6.768   4.232  0.00  0.00    -0.152 NA
ATOM     19  N   UNL     1      -0.384  -5.761   3.686  0.00  0.00    -0.070 NA
ATOM     20  N   UNL     1      -0.129  -4.593   4.404  0.00  0.00    -0.179 N 
ATOM     21  N   UNL     1       0.572  -4.905   5.543  0.00  0.00    -0.183 NA
ATOM     22  H   UNL     1      -0.404  -3.700   4.141  0.00  0.00    +0.191 HD
BRANCH  21  23
ATOM     23  C   UNL     1      -0.172  -4.512   6.747  0.00  0.00    +0.035 C 
ATOM     24  C   UNL     1       0.537  -5.061   7.987  0.00  0.00    +0.029 C 
ATOM     25  C   UNL     1      -0.237  -2.986   6.830  0.00  0.00    +0.029 C 
ATOM     26  C   UNL     1      -1.591  -5.080   6.678  0.00  0.00    +0.029 C 
ENDBRANCH  21  23
ENDBRANCH   1  17
BRANCH   1  27
ATOM     27  N   UNL     1       2.363  -8.191   5.246  0.00  0.00    +0.392 N 
ATOM     28  H   UNL     1       1.858  -8.476   4.421  0.00  0.00    -0.080 HD
BRANCH  27  29
ATOM     29  C   UNL     1       3.784  -8.530   5.092  0.00  0.00    -0.002 C 
BRANCH  29  30
ATOM     30  C   UNL     1       3.920  -9.999   4.787  0.00  0.00    +0.089 A 
ATOM     31  C   UNL     1       3.931 -10.551   3.560  0.00  0.00    +0.042 A 
ATOM     32  C   UNL     1       4.076 -11.945   3.739  0.00  0.00    +0.041 A 
ATOM     33  C   UNL     1       4.144 -12.163   5.065  0.00  0.00    +0.195 A 
ATOM     34  O   UNL     1       4.055 -10.980   5.694  0.00  0.00    -0.470 OA
ENDBRANCH  29  30
ENDBRANCH  27  29
BRANCH  27  35
ATOM     35  C   UNL     1       1.818  -8.886   6.420  0.00  0.00    -0.034 C 
BRANCH  35  36
ATOM     36  C   UNL     1       0.386  -9.271   6.155  0.00  0.00    -0.027 A 
ATOM     37  C   UNL     1      -0.101 -10.348   5.491  0.00  0.00    +0.009 A 
ATOM     38  C   UNL     1      -1.469 -10.500   5.370  0.00  0.00    +0.008 A 
ATOM     39  C   UNL     1      -2.285  -9.566   5.918  0.00  0.00    +0.045 A 
ATOM     40  S   UNL     1      -1.112  -8.430   6.640  0.00  0.00    -0.103 S 
ENDBRANCH  35  36
ENDBRANCH  27  35
ENDBRANCH   1  27
TORSDOF 10
