REMARK  Name = ZINC16606985
REMARK  12 active torsions:
REMARK  status: ('A' for Active; 'I' for Inactive)
REMARK    1  A    between atoms: C_1  and  C_2
REMARK    2  A    between atoms: C_2  and  C_3
REMARK    3  A    between atoms: C_3  and  C_5
REMARK    4  A    between atoms: C_3  and  C_6
REMARK    5  A    between atoms: C_6  and  C_8
REMARK    6  A    between atoms: C_6  and  N_23
REMARK    7  A    between atoms: C_14  and  C_16
REMARK    8  A    between atoms: N_26  and  C_27
REMARK    9  A    between atoms: C_27  and  C_28
REMARK   10  A    between atoms: C_28  and  O_30
REMARK   11  A    between atoms: O_30  and  C_31
REMARK   12  A    between atoms: C_31  and  C_32
REMARK                            x       y       z     vdW  Elec       q    Type
REMARK                         _______ _______ _______ _____ _____    ______ ____
ROOT
ATOM      1  C   UNL     1      -1.867  -0.410   0.768  0.00  0.00    +0.163 C 
ENDROOT
BRANCH   1   2
ATOM      2  C   UNL     1      -1.996  -0.876   2.195  0.00  0.00    +0.239 C 
ATOM      3  O   UNL     1      -3.076  -0.846   2.747  0.00  0.00    -0.273 OA
ATOM      4  N   UNL     1      -0.913  -1.326   2.859  0.00  0.00    -0.262 N 
ATOM      5  C   UNL     1      -1.048  -1.844   4.141  0.00  0.00    +0.188 A 
ATOM      6  N   UNL     1      -2.132  -1.984   4.893  0.00  0.00    -0.125 NA
ATOM      7  N   UNL     1      -2.081  -2.484   6.050  0.00  0.00    -0.140 NA
ATOM      8  C   UNL     1      -0.937  -2.891   6.588  0.00  0.00    +0.134 A 
ATOM      9  S   UNL     1       0.190  -2.506   5.251  0.00  0.00    -0.030 S 
ATOM     10  H   UNL     1      -0.038  -1.288   2.441  0.00  0.00    +0.157 HD
BRANCH   8  11
ATOM     11  C   UNL     1      -0.670  -3.490   7.913  0.00  0.00    +0.009 A 
ATOM     12  C   UNL     1       0.630  -3.851   8.269  0.00  0.00    +0.012 A 
ATOM     13  C   UNL     1       0.873  -4.405   9.509  0.00  0.00    +0.016 A 
ATOM     14  C   UNL     1      -0.171  -4.612  10.394  0.00  0.00    +0.018 A 
ATOM     15  C   UNL     1      -1.463  -4.261  10.044  0.00  0.00    +0.016 A 
ATOM     16  C   UNL     1      -1.718  -3.701   8.810  0.00  0.00    +0.012 A 
ATOM     17 BR   UNL     1       0.170  -5.380  12.088  0.00  0.00    -0.050 Br
ENDBRANCH   8  11
ENDBRANCH   1   2
BRANCH   1  18
ATOM     18  N   UNL     1      -3.185  -0.024   0.259  0.00  0.00    -0.288 N 
ATOM     19  C   UNL     1      -3.489  -0.218  -1.040  0.00  0.00    +0.301 C 
ATOM     20  O   UNL     1      -2.702  -0.790  -1.770  0.00  0.00    -0.253 OA
ATOM     21  N   UNL     1      -4.665   0.223  -1.530  0.00  0.00    -0.289 N 
ATOM     22  H   UNL     1      -3.838   0.372   0.856  0.00  0.00    +0.151 HD
ATOM     23  H   UNL     1      -5.292   0.679  -0.948  0.00  0.00    +0.151 HD
BRANCH  21  24
ATOM     24  C   UNL     1      -4.995   0.012  -2.942  0.00  0.00    +0.226 C 
BRANCH  24  25
ATOM     25  C   UNL     1      -6.354   0.594  -3.232  0.00  0.00    +0.324 C 
ATOM     26  O   UNL     1      -6.983   1.130  -2.349  0.00  0.00    -0.249 OA
BRANCH  25  27
ATOM     27  O   UNL     1      -6.867   0.517  -4.470  0.00  0.00    -0.464 OA
BRANCH  27  28
ATOM     28  C   UNL     1      -8.181   1.099  -4.676  0.00  0.00    +0.229 C 
ATOM     29  C   UNL     1      -8.596   0.916  -6.137  0.00  0.00    +0.048 C 
ENDBRANCH  27  28
ENDBRANCH  25  27
ENDBRANCH  24  25
ENDBRANCH  21  24
ENDBRANCH   1  18
BRANCH   1  30
ATOM     30  C   UNL     1      -0.924   0.793   0.708  0.00  0.00    +0.015 C 
ATOM     31  C   UNL     1      -0.629   1.137  -0.754  0.00  0.00    +0.010 C 
BRANCH  30  33
ATOM     32  C   UNL     1      -1.705   1.720   2.892  0.00  0.00    +0.004 C 
ATOM     33  C   UNL     1      -1.583   1.992   1.391  0.00  0.00    +0.002 C 
ENDBRANCH  30  33
ENDBRANCH   1  30
TORSDOF 9
