REMARK  Name = ZINC09451569
REMARK  2 active torsions:
REMARK  status: ('A' for Active; 'I' for Inactive)
REMARK    1  A    between atoms: C_5  and  C_7
REMARK    2  A    between atoms: C_7  and  C_9
REMARK                            x       y       z     vdW  Elec       q    Type
REMARK                         _______ _______ _______ _____ _____    ______ ____
ROOT
ATOM      1  C   UNL     1       2.214   0.774   0.594  0.00  0.00    +0.066 C 
ATOM      2  C   UNL     1       1.411   1.959  -0.000  0.00  0.00    -0.055 C 
ATOM      3  C   UNL     1       1.512   3.163   0.949  0.00  0.00    -0.016 C 
ATOM      4  C   UNL     1       0.077   3.386   1.475  0.00  0.00    -0.020 C 
ATOM      5  C   UNL     1      -0.580   1.997   1.288  0.00  0.00    -0.076 C 
ATOM      6  C   UNL     1      -0.011   0.034   0.001  0.00  0.00    +0.060 C 
ATOM      7  C   UNL     1       1.440  -0.435   0.032  0.00  0.00    +0.085 C 
ATOM      8  C   UNL     1       1.631  -1.655   0.884  0.00  0.00    -0.011 A 
ATOM      9  C   UNL     1       1.370  -1.944   2.204  0.00  0.00    +0.006 A 
ATOM     10  C   UNL     1       1.666  -3.197   2.712  0.00  0.00    +0.000 A 
ATOM     11  C   UNL     1       2.224  -4.159   1.889  0.00  0.00    +0.002 A 
ATOM     12  C   UNL     1       2.488  -3.874   0.565  0.00  0.00    +0.023 A 
ATOM     13  C   UNL     1       2.193  -2.615   0.046  0.00  0.00    +0.038 A 
ATOM     14  N   UNL     1       2.363  -2.096  -1.239  0.00  0.00    -0.285 N 
ATOM     15  C   UNL     1       1.944  -0.819  -1.330  0.00  0.00    +0.228 C 
ATOM     16  O   UNL     1       1.968  -0.117  -2.319  0.00  0.00    -0.275 OA
ATOM     17  C   UNL     1      -0.732  -0.497  -1.209  0.00  0.00    -0.025 A 
ATOM     18  C   UNL     1      -0.526  -0.365  -2.564  0.00  0.00    +0.005 A 
ATOM     19  C   UNL     1      -1.378  -0.988  -3.458  0.00  0.00    +0.002 A 
ATOM     20  C   UNL     1      -2.436  -1.745  -2.987  0.00  0.00    +0.022 A 
ATOM     21  C   UNL     1      -2.646  -1.880  -1.630  0.00  0.00    +0.062 A 
ATOM     22  C   UNL     1      -1.792  -1.254  -0.723  0.00  0.00    +0.054 A 
ATOM     23  N   UNL     1      -1.796  -1.240   0.674  0.00  0.00    -0.285 N 
ATOM     24  C   UNL     1      -0.785  -0.508   1.177  0.00  0.00    +0.212 C 
ATOM     25  O   UNL     1      -0.543  -0.319   2.350  0.00  0.00    -0.277 OA
ATOM     26 CL   UNL     1      -3.977  -2.832  -1.050  0.00  0.00    -0.082 Cl
ATOM     27  H   UNL     1       2.739  -2.597  -1.980  0.00  0.00    +0.155 HD
ATOM     28  H   UNL     1      -2.451  -1.704   1.218  0.00  0.00    +0.155 HD
ATOM     29  N   UNL     1       0.021   1.511   0.033  0.00  0.00    +0.395 N 
ATOM     30  H   UNL     1      -0.492   1.887  -0.773  0.00  0.00    -0.079 HD
ENDROOT
BRANCH   1  31
ATOM     31  C   UNL     1       2.169   0.792   2.100  0.00  0.00    +0.167 C 
ATOM     32  O   UNL     1       1.317   1.437   2.674  0.00  0.00    -0.292 OA
BRANCH  31  37
ATOM     33  C   UNL     1       5.069  -1.428   2.949  0.00  0.00    +0.001 A 
ATOM     34  C   UNL     1       5.026  -1.409   4.333  0.00  0.00    +0.001 A 
ATOM     35  C   UNL     1       4.056  -0.676   4.992  0.00  0.00    +0.021 A 
ATOM     36  C   UNL     1       3.125   0.048   4.274  0.00  0.00    +0.051 A 
ATOM     37  C   UNL     1       3.160   0.029   2.874  0.00  0.00    +0.036 A 
ATOM     38  C   UNL     1       4.145  -0.715   2.217  0.00  0.00    +0.013 A 
ATOM     39 CL   UNL     1       1.913   0.973   5.103  0.00  0.00    -0.083 Cl
ENDBRANCH  31  37
ENDBRANCH   1  31
TORSDOF 2
