REMARK  Name = ZINC10140045
REMARK  4 active torsions:
REMARK  status: ('A' for Active; 'I' for Inactive)
REMARK    1  A    between atoms: C_10  and  N_12
REMARK    2  A    between atoms: C_13  and  C_15
REMARK    3  A    between atoms: C_15  and  N_58
REMARK    4  A    between atoms: C_18  and  C_21
REMARK                            x       y       z     vdW  Elec       q    Type
REMARK                         _______ _______ _______ _____ _____    ______ ____
ROOT
ATOM      1  C   UNL     1       6.140   5.056   0.403  0.00  0.00    -0.078 C 
ATOM      2  C   UNL     1       6.690   6.311   1.086  0.00  0.00    -0.011 C 
ATOM      3  C   UNL     1       7.723   6.973   0.170  0.00  0.00    +0.018 C 
ATOM      4  C   UNL     1       7.066   7.304  -1.173  0.00  0.00    -0.011 C 
ATOM      5  C   UNL     1       6.505   6.021  -1.790  0.00  0.00    -0.078 C 
ATOM      6  N   UNL     1       5.500   5.446  -0.872  0.00  0.00    +0.385 N 
ATOM      7  H   UNL     1       4.780   6.153  -0.680  0.00  0.00    -0.081 HD
ENDROOT
BRANCH   3   8
ATOM      8  C   UNL     1       8.225   8.242   0.811  0.00  0.00    -0.019 A 
ATOM      9  C   UNL     1       7.485   9.306   1.160  0.00  0.00    +0.087 A 
ATOM     10  N   UNL     1       8.285  10.268   1.715  0.00  0.00    -0.360 N 
ATOM     11  H   UNL     1       7.977  11.127   2.044  0.00  0.00    +0.165 HD
ATOM     12  C   UNL     1       9.592   9.835   1.738  0.00  0.00    +0.047 A 
ATOM     13  C   UNL     1       9.610   8.544   1.177  0.00  0.00    +0.003 A 
ATOM     14  C   UNL     1      10.817   7.852   1.064  0.00  0.00    +0.010 A 
ATOM     15  C   UNL     1      11.974   8.428   1.507  0.00  0.00    +0.001 A 
ATOM     16  C   UNL     1      11.960   9.698   2.066  0.00  0.00    +0.002 A 
ATOM     17  C   UNL     1      10.781  10.402   2.183  0.00  0.00    +0.026 A 
ENDBRANCH   3   8
BRANCH   6  18
ATOM     18  C   UNL     1       4.861   4.269  -1.496  0.00  0.00    +0.019 C 
BRANCH  18  20
ATOM     19  N   UNL     1       3.424   3.828  -3.460  0.00  0.00    -0.310 N 
ATOM     20  C   UNL     1       4.024   4.732  -2.660  0.00  0.00    +0.197 C 
ATOM     21  O   UNL     1       3.890   5.917  -2.877  0.00  0.00    -0.278 OA
ATOM     22  H   UNL     1       3.530   2.880  -3.286  0.00  0.00    +0.149 HD
BRANCH  19  32
ATOM     23  C   UNL     1       5.236   5.122  -7.861  0.00  0.00    +0.000 A 
ATOM     24  C   UNL     1       5.566   5.499  -6.572  0.00  0.00    +0.000 A 
ATOM     25  C   UNL     1       4.704   5.214  -5.533  0.00  0.00    +0.006 A 
ATOM     26  C   UNL     1       3.506   4.551  -5.771  0.00  0.00    -0.024 A 
ATOM     27  C   UNL     1       3.180   4.173  -7.054  0.00  0.00    -0.042 A 
ATOM     28  C   UNL     1       4.051   4.457  -8.098  0.00  0.00    +0.004 A 
ATOM     29  C   UNL     1       1.902   3.446  -7.385  0.00  0.00    +0.035 C 
ATOM     30  C   UNL     1       0.893   3.590  -6.247  0.00  0.00    +0.007 C 
ATOM     31  C   UNL     1       1.584   3.199  -4.935  0.00  0.00    +0.027 C 
ATOM     32  C   UNL     1       2.610   4.278  -4.592  0.00  0.00    +0.103 C 
ENDBRANCH  19  32
ENDBRANCH  18  20
ENDBRANCH   6  18
TORSDOF 4
