REMARK  Name = ZINC03470080
REMARK  10 active torsions:
REMARK  status: ('A' for Active; 'I' for Inactive)
REMARK    1  A    between atoms: C_6  and  S_7
REMARK    2  A    between atoms: S_7  and  N_10
REMARK    3  A    between atoms: N_10  and  O_11
REMARK    4  A    between atoms: O_11  and  C_12
REMARK    5  A    between atoms: C_12  and  C_13
REMARK    6  A    between atoms: N_15  and  C_16
REMARK    7  A    between atoms: C_16  and  C_17
REMARK    8  A    between atoms: C_17  and  N_18
REMARK    9  A    between atoms: N_18  and  C_19
REMARK   10  A    between atoms: C_22  and  C_24
REMARK                            x       y       z     vdW  Elec       q    Type
REMARK                         _______ _______ _______ _____ _____    ______ ____
ROOT
ATOM      1  C   UNL     1      -2.062   5.008  -2.909  0.00  0.00    +0.241 C 
ATOM      2  O   UNL     1      -1.569   5.771  -2.105  0.00  0.00    -0.273 OA
ATOM      3  N   UNL     1      -2.763   5.490  -3.954  0.00  0.00    -0.312 N 
ATOM      4  H   UNL     1      -3.157   4.880  -4.596  0.00  0.00    +0.149 HD
ENDROOT
BRANCH   1   5
ATOM      5  C   UNL     1      -1.892   3.520  -2.738  0.00  0.00    +0.282 C 
BRANCH   5   6
ATOM      6  O   UNL     1      -1.117   3.261  -1.565  0.00  0.00    -0.270 OA
BRANCH   6   7
ATOM      7  N   UNL     1      -0.897   1.885  -1.312  0.00  0.00    -0.067 NA
ATOM      8  H   UNL     1      -1.263   1.218  -1.913  0.00  0.00    +0.182 HD
BRANCH   7   9
ATOM      9  S   UNL     1      -0.017   1.417   0.010  0.00  0.00    +0.080 S 
ATOM     10  O   UNL     1       0.002  -0.004   0.002  0.00  0.00    -0.151 OA
ATOM     11  O   UNL     1       1.172   2.195   0.003  0.00  0.00    -0.151 OA
BRANCH   9  17
ATOM     12  C   UNL     1      -0.717   3.145   2.004  0.00  0.00    +0.030 A 
ATOM     13  C   UNL     1      -1.434   3.527   3.122  0.00  0.00    +0.022 A 
ATOM     14  C   UNL     1      -2.354   2.659   3.683  0.00  0.00    +0.041 A 
ATOM     15  C   UNL     1      -2.559   1.411   3.121  0.00  0.00    +0.022 A 
ATOM     16  C   UNL     1      -1.846   1.033   2.000  0.00  0.00    +0.030 A 
ATOM     17  C   UNL     1      -0.927   1.900   1.439  0.00  0.00    +0.107 A 
ATOM     18 CL   UNL     1      -3.251   3.135   5.091  0.00  0.00    -0.084 Cl
ENDBRANCH   9  17
ENDBRANCH   7   9
ENDBRANCH   6   7
ENDBRANCH   5   6
ENDBRANCH   1   5
BRANCH   3  19
ATOM     19  C   UNL     1      -2.929   6.936  -4.120  0.00  0.00    +0.123 C 
BRANCH  19  20
ATOM     20  C   UNL     1      -3.758   7.213  -5.375  0.00  0.00    +0.121 C 
BRANCH  20  21
ATOM     21  N   UNL     1      -3.924   8.660  -5.542  0.00  0.00    -0.328 N 
ATOM     22  H   UNL     1      -3.530   9.270  -4.899  0.00  0.00    +0.147 HD
BRANCH  21  23
ATOM     23  C   UNL     1      -4.647   9.157  -6.620  0.00  0.00    +0.115 A 
ATOM     24  C   UNL     1      -4.806  10.533  -6.769  0.00  0.00    +0.079 A 
ATOM     25  C   UNL     1      -5.523  11.014  -7.851  0.00  0.00    +0.037 A 
ATOM     26  C   UNL     1      -6.068  10.100  -8.743  0.00  0.00    +0.072 A 
ATOM     27  C   UNL     1      -5.876   8.750  -8.531  0.00  0.00    +0.096 A 
ATOM     28 CL   UNL     1      -4.108  11.629  -5.618  0.00  0.00    -0.080 Cl
ATOM     29  N   UNL     1      -5.173   8.241  -7.484  0.00  0.00    -0.348 N 
ATOM     30  H   UNL     1      -5.046   7.231  -7.351  0.00  0.00    +0.167 HD
BRANCH  26  31
ATOM     31  C   UNL     1      -6.861  10.578  -9.932  0.00  0.00    +0.419 C 
ATOM     32  F   UNL     1      -7.300   9.476 -10.674  0.00  0.00    -0.166 F 
ATOM     33  F   UNL     1      -7.967  11.313  -9.490  0.00  0.00    -0.166 F 
ATOM     34  F   UNL     1      -6.053  11.389 -10.736  0.00  0.00    -0.166 F 
ENDBRANCH  26  31
ENDBRANCH  21  23
ENDBRANCH  20  21
ENDBRANCH  19  20
ENDBRANCH   3  19
TORSDOF 10
