REMARK  Name = ZINC39413857
REMARK  12 active torsions:
REMARK  status: ('A' for Active; 'I' for Inactive)
REMARK    1  A    between atoms: C_1  and  C_2
REMARK    2  A    between atoms: C_2  and  N_3
REMARK    3  A    between atoms: N_3  and  C_4
REMARK    4  A    between atoms: N_3  and  S_6
REMARK    5  A    between atoms: C_4  and  C_5
REMARK    6  A    between atoms: S_6  and  C_9
REMARK    7  A    between atoms: C_13  and  C_15
REMARK    8  A    between atoms: C_19  and  S_28
REMARK    9  A    between atoms: N_21  and  C_22
REMARK   10  A    between atoms: S_28  and  C_29
REMARK   11  A    between atoms: C_29  and  C_30
REMARK   12  A    between atoms: C_30  and  C_32
REMARK                            x       y       z     vdW  Elec       q    Type
REMARK                         _______ _______ _______ _____ _____    ______ ____
ROOT
ATOM      1  C   UNL     1       4.659   2.317   4.513  0.00  0.00    +0.218 C 
ATOM      2  N   UNL     1       4.788   1.071   5.271  0.00  0.00    -0.286 N 
ATOM      3  N   UNL     1       5.922   0.927   5.725  0.00  0.00    -0.180 NA
ATOM      4  C   UNL     1       6.796   2.046   5.369  0.00  0.00    +0.273 C 
ATOM      5  N   UNL     1       5.976   2.975   4.568  0.00  0.00    -0.273 N 
ATOM      6  H   UNL     1       4.067   0.435   5.400  0.00  0.00    +0.185 HD
ENDROOT
BRANCH   1  11
ATOM      7  C   UNL     1       4.809   1.008   0.975  0.00  0.00    +0.106 A 
ATOM      8  C   UNL     1       3.611   1.468   0.460  0.00  0.00    +0.028 A 
ATOM      9  C   UNL     1       2.753   2.202   1.257  0.00  0.00    +0.002 A 
ATOM     10  C   UNL     1       3.092   2.477   2.568  0.00  0.00    +0.007 A 
ATOM     11  C   UNL     1       4.289   2.017   3.084  0.00  0.00    -0.004 A 
ATOM     12  C   UNL     1       5.146   1.278   2.288  0.00  0.00    +0.035 A 
BRANCH   7  13
ATOM     13  S   UNL     1       5.903   0.072  -0.040  0.00  0.00    +0.061 S 
ATOM     14  O   UNL     1       7.201   0.219   0.518  0.00  0.00    -0.153 OA
ATOM     15  O   UNL     1       5.608   0.421  -1.385  0.00  0.00    -0.153 OA
BRANCH  13  16
ATOM     16  N   UNL     1       5.491  -1.523   0.136  0.00  0.00    -0.177 NA
BRANCH  16  18
ATOM     17  C   UNL     1       3.119  -2.073  -0.092  0.00  0.00    +0.022 C 
ATOM     18  C   UNL     1       4.497  -2.125  -0.755  0.00  0.00    +0.106 C 
ENDBRANCH  16  18
BRANCH  16  19
ATOM     19  C   UNL     1       6.120  -2.330   1.184  0.00  0.00    +0.106 C 
ATOM     20  C   UNL     1       7.317  -3.083   0.598  0.00  0.00    +0.022 C 
ENDBRANCH  16  19
ENDBRANCH  13  16
ENDBRANCH   7  13
ENDBRANCH   1  11
BRANCH   5  21
ATOM     21  C   UNL     1       6.358   4.191   3.996  0.00  0.00    +0.034 A 
ATOM     22  C   UNL     1       5.411   4.994   3.372  0.00  0.00    +0.023 A 
ATOM     23  C   UNL     1       5.792   6.195   2.808  0.00  0.00    +0.002 A 
ATOM     24  C   UNL     1       7.113   6.599   2.862  0.00  0.00    +0.000 A 
ATOM     25  C   UNL     1       8.058   5.802   3.482  0.00  0.00    +0.002 A 
ATOM     26  C   UNL     1       7.683   4.602   4.054  0.00  0.00    +0.023 A 
ENDBRANCH   5  21
BRANCH   4  27
ATOM     27  S   UNL     1       7.390   2.875   6.869  0.00  0.00    -0.106 S 
BRANCH  27  28
ATOM     28  C   UNL     1       5.872   3.398   7.712  0.00  0.00    +0.149 C 
BRANCH  28  29
ATOM     29  C   UNL     1       6.227   4.109   8.992  0.00  0.00    +0.171 C 
ATOM     30  O   UNL     1       7.386   4.249   9.303  0.00  0.00    -0.294 OA
BRANCH  29  31
ATOM     31  C   UNL     1       5.138   4.646   9.884  0.00  0.00    +0.195 C 
ATOM     32  C   UNL     1       4.563   5.919   9.300  0.00  0.00    +0.008 C 
ATOM     33  C   UNL     1       4.791   6.870  10.204  0.00  0.00    +0.017 C 
ATOM     34  C   UNL     1       5.487   6.294  11.355  0.00  0.00    +0.106 C 
ATOM     35  N   UNL     1       5.691   5.027  11.189  0.00  0.00    -0.277 NA
ENDBRANCH  29  31
ENDBRANCH  28  29
ENDBRANCH  27  28
ENDBRANCH   4  27
TORSDOF 10
