REMARK  Name = ZINC39916379
REMARK  4 active torsions:
REMARK  status: ('A' for Active; 'I' for Inactive)
REMARK    1  A    between atoms: C_1  and  C_2
REMARK    2  A    between atoms: C_2  and  C_3
REMARK    3  A    between atoms: C_2  and  C_4
REMARK    4  A    between atoms: C_7  and  C_10
REMARK                            x       y       z     vdW  Elec       q    Type
REMARK                         _______ _______ _______ _____ _____    ______ ____
ROOT
ATOM      1  C   UNL     1      -5.419  -2.005   0.043  0.00  0.00    +0.156 C 
ATOM      2  C   UNL     1      -6.286  -1.151  -0.876  0.00  0.00    +0.149 C 
ATOM      3  C   UNL     1      -5.811  -1.419  -2.289  0.00  0.00    +0.034 C 
ATOM      4  C   UNL     1      -5.605  -0.316  -3.115  0.00  0.00    +0.014 A 
ATOM      5  C   UNL     1      -5.261  -0.470  -4.471  0.00  0.00    +0.011 A 
ATOM      6  C   UNL     1      -5.112   0.633  -5.256  0.00  0.00    +0.001 A 
ATOM      7  C   UNL     1      -5.286   1.914  -4.742  0.00  0.00    +0.002 A 
ATOM      8  C   UNL     1      -5.598   2.126  -3.432  0.00  0.00    +0.024 A 
ATOM      9  C   UNL     1      -5.758   1.034  -2.563  0.00  0.00    +0.042 A 
ATOM     10  N   UNL     1      -6.020   1.246  -1.265  0.00  0.00    -0.284 N 
ATOM     11  C   UNL     1      -6.283   0.275  -0.387  0.00  0.00    +0.228 C 
ATOM     12  O   UNL     1      -6.504   0.524   0.784  0.00  0.00    -0.275 OA
ATOM     13  N   UNL     1      -5.545  -2.677  -2.664  0.00  0.00    -0.289 N 
ATOM     14  C   UNL     1      -5.501  -3.671  -1.702  0.00  0.00    +0.188 C 
ATOM     15  N   UNL     1      -5.434  -3.390  -0.436  0.00  0.00    -0.246 NA
ATOM     16  N   UNL     1      -5.529  -4.992  -2.097  0.00  0.00    -0.241 N 
ATOM     17  C   UNL     1      -5.485  -5.996  -1.151  0.00  0.00    +0.295 A 
ATOM     18  N   UNL     1      -5.423  -5.806   0.141  0.00  0.00    -0.195 NA
ATOM     19  C   UNL     1      -5.396  -7.018   0.760  0.00  0.00    +0.111 A 
ATOM     20  C   UNL     1      -5.333  -7.417   2.096  0.00  0.00    +0.031 A 
ATOM     21  C   UNL     1      -5.320  -8.758   2.409  0.00  0.00    +0.002 A 
ATOM     22  C   UNL     1      -5.370  -9.713   1.404  0.00  0.00    +0.004 A 
ATOM     23  C   UNL     1      -5.433  -9.332   0.079  0.00  0.00    +0.048 A 
ATOM     24  C   UNL     1      -5.446  -7.987  -0.253  0.00  0.00    +0.157 A 
ATOM     25  O   UNL     1      -5.506  -7.313  -1.424  0.00  0.00    -0.424 OA
ATOM     26  H   UNL     1      -5.386  -2.888  -3.597  0.00  0.00    +0.155 HD
ATOM     27  H   UNL     1      -5.578  -5.215  -3.040  0.00  0.00    +0.159 HD
ATOM     28  H   UNL     1      -6.030   2.161  -0.944  0.00  0.00    +0.155 HD
ENDROOT
BRANCH   1  32
ATOM     29  C   UNL     1      -1.412  -0.526   0.013  0.00  0.00    -0.045 A 
ATOM     30  C   UNL     1      -2.259  -0.204   1.056  0.00  0.00    +0.004 A 
ATOM     31  C   UNL     1      -3.556  -0.683   1.066  0.00  0.00    +0.006 A 
ATOM     32  C   UNL     1      -4.006  -1.482   0.032  0.00  0.00    -0.022 A 
ATOM     33  C   UNL     1      -3.159  -1.803  -1.012  0.00  0.00    +0.006 A 
ATOM     34  C   UNL     1      -1.863  -1.321  -1.024  0.00  0.00    +0.004 A 
BRANCH  29  36
ATOM     35  C   UNL     1      -0.019   1.526   0.010  0.00  0.00    +0.012 C 
ATOM     36  C   UNL     1       0.002  -0.004   0.002  0.00  0.00    +0.013 C 
ATOM     37  C   UNL     1       0.742  -0.511   1.242  0.00  0.00    +0.012 C 
ENDBRANCH  29  36
ENDBRANCH   1  32
TORSDOF 2
