REMARK  Name = ZINC57744424
REMARK  7 active torsions:
REMARK  status: ('A' for Active; 'I' for Inactive)
REMARK    1  A    between atoms: C_1  and  C_2
REMARK    2  A    between atoms: C_2  and  C_4
REMARK    3  A    between atoms: C_2  and  N_14
REMARK    4  A    between atoms: C_15  and  C_17
REMARK    5  A    between atoms: C_18  and  C_19
REMARK    6  A    between atoms: N_24  and  C_25
REMARK    7  A    between atoms: C_31  and  C_33
REMARK                            x       y       z     vdW  Elec       q    Type
REMARK                         _______ _______ _______ _____ _____    ______ ____
ROOT
ATOM      1  C   UNL     1      -3.570  -1.175  -1.750  0.00  0.00    +0.069 C 
ATOM      2  C   UNL     1      -4.397  -1.337  -2.809  0.00  0.00    +0.033 C 
ENDROOT
BRANCH   2   3
ATOM      3  C   UNL     1      -5.759  -1.841  -2.604  0.00  0.00    +0.073 A 
ATOM      4  C   UNL     1      -6.608  -2.015  -3.674  0.00  0.00    +0.076 A 
ATOM      5  S   UNL     1      -8.068  -2.628  -2.843  0.00  0.00    -0.059 S 
ATOM      6  C   UNL     1      -7.415  -2.593  -1.180  0.00  0.00    +0.172 A 
ATOM      7  N   UNL     1      -6.194  -2.144  -1.380  0.00  0.00    -0.225 NA
ATOM      8  N   UNL     1      -8.034  -2.951   0.012  0.00  0.00    -0.219 N 
ATOM      9  C   UNL     1      -7.332  -2.947   1.163  0.00  0.00    +0.223 C 
ATOM     10  O   UNL     1      -6.192  -2.533   1.177  0.00  0.00    -0.275 OA
ATOM     11  C   UNL     1      -7.964  -3.455   2.433  0.00  0.00    +0.110 C 
BRANCH   8  12
ATOM     12  C   UNL     1      -9.386  -3.317   0.018  0.00  0.00    +0.043 A 
ATOM     13  C   UNL     1      -9.795  -4.477  -0.628  0.00  0.00    +0.024 A 
ATOM     14  C   UNL     1     -11.129  -4.835  -0.621  0.00  0.00    +0.002 A 
ATOM     15  C   UNL     1     -12.056  -4.040   0.029  0.00  0.00    +0.000 A 
ATOM     16  C   UNL     1     -11.652  -2.885   0.672  0.00  0.00    +0.002 A 
ATOM     17  C   UNL     1     -10.318  -2.525   0.673  0.00  0.00    +0.024 A 
ENDBRANCH   8  12
ENDBRANCH   2   3
BRANCH   1  19
ATOM     18  N   UNL     1      -1.431  -0.527  -0.893  0.00  0.00    -0.302 N 
ATOM     19  C   UNL     1      -2.255  -0.689  -1.947  0.00  0.00    +0.237 C 
ATOM     20  O   UNL     1      -1.868  -0.416  -3.069  0.00  0.00    -0.271 OA
ATOM     21  H   UNL     1      -1.738  -0.745   0.001  0.00  0.00    +0.150 HD
BRANCH  18  23
ATOM     22  C   UNL     1      -0.092   1.506  -1.127  0.00  0.00    +0.036 C 
ATOM     23  C   UNL     1      -0.070  -0.024  -1.097  0.00  0.00    +0.136 C 
BRANCH  23  24
ATOM     24  C   UNL     1       0.813  -0.491   0.031  0.00  0.00    +0.128 A 
ATOM     25  N   UNL     1       2.163  -0.637  -0.045  0.00  0.00    -0.340 N 
ATOM     26  H   UNL     1       2.717  -0.461  -0.822  0.00  0.00    +0.167 HD
ATOM     27  C   UNL     1       2.599  -1.081   1.187  0.00  0.00    +0.066 A 
ATOM     28  C   UNL     1       3.842  -1.404   1.715  0.00  0.00    +0.028 A 
ATOM     29  C   UNL     1       3.939  -1.830   3.022  0.00  0.00    +0.002 A 
ATOM     30  C   UNL     1       2.804  -1.937   3.813  0.00  0.00    +0.002 A 
ATOM     31  C   UNL     1       1.572  -1.624   3.311  0.00  0.00    +0.030 A 
ATOM     32  C   UNL     1       1.450  -1.190   1.988  0.00  0.00    +0.089 A 
ATOM     33  N   UNL     1       0.396  -0.809   1.222  0.00  0.00    -0.231 NA
ENDBRANCH  23  24
ENDBRANCH  18  23
ENDBRANCH   1  19
TORSDOF 5
