REMARK  Name = ZINC11335750
REMARK  7 active torsions:
REMARK  status: ('A' for Active; 'I' for Inactive)
REMARK    1  A    between atoms: C_1  and  C_2
REMARK    2  A    between atoms: C_2  and  N_3
REMARK    3  A    between atoms: C_14  and  C_16
REMARK    4  A    between atoms: C_17  and  C_18
REMARK    5  A    between atoms: C_17  and  C_20
REMARK    6  A    between atoms: N_26  and  C_27
REMARK    7  A    between atoms: N_26  and  C_28
REMARK                            x       y       z     vdW  Elec       q    Type
REMARK                         _______ _______ _______ _____ _____    ______ ____
ROOT
ATOM      1  C   UNL     1      -0.714   8.908   0.055  0.00  0.00    +0.030 C 
ATOM      2  C   UNL     1      -1.978   8.882   0.567  0.00  0.00    +0.097 C 
ENDROOT
BRANCH   1  14
ATOM      3  N   UNL     1       2.124   4.077  -0.159  0.00  0.00    -0.340 N 
ATOM      4  C   UNL     1       1.100   3.157  -0.300  0.00  0.00    +0.050 A 
ATOM      5  C   UNL     1       1.097   1.770  -0.414  0.00  0.00    +0.026 A 
ATOM      6  C   UNL     1      -0.096   1.092  -0.547  0.00  0.00    +0.002 A 
ATOM      7  C   UNL     1      -1.299   1.780  -0.573  0.00  0.00    +0.001 A 
ATOM      8  C   UNL     1      -1.316   3.153  -0.456  0.00  0.00    +0.010 A 
ATOM      9  C   UNL     1      -0.118   3.851  -0.321  0.00  0.00    +0.008 A 
ATOM     10  C   UNL     1       0.214   5.282  -0.183  0.00  0.00    +0.008 A 
ATOM     11  C   UNL     1       1.615   5.357  -0.087  0.00  0.00    +0.050 A 
ATOM     12  C   UNL     1       2.230   6.601   0.053  0.00  0.00    +0.027 A 
ATOM     13  C   UNL     1       1.482   7.740   0.099  0.00  0.00    +0.010 A 
ATOM     14  C   UNL     1       0.082   7.677   0.005  0.00  0.00    -0.023 A 
ATOM     15  C   UNL     1      -0.551   6.439  -0.137  0.00  0.00    +0.018 A 
BRANCH   3  17
ATOM     16  C   UNL     1       4.136   3.740  -1.508  0.00  0.00    +0.027 C 
ATOM     17  C   UNL     1       3.548   3.739  -0.096  0.00  0.00    +0.119 C 
ENDBRANCH   3  17
ENDBRANCH   1  14
BRANCH   2  18
ATOM     18  C   UNL     1      -2.834  10.084   0.482  0.00  0.00    +0.177 A 
ATOM     19  N   UNL     1      -2.372  11.192  -0.095  0.00  0.00    -0.194 NA
ATOM     20  C   UNL     1      -3.143  12.272  -0.171  0.00  0.00    +0.217 A 
ATOM     21  N   UNL     1      -4.375  12.246   0.328  0.00  0.00    -0.181 NA
ATOM     22  C   UNL     1      -4.837  11.141   0.904  0.00  0.00    +0.222 A 
ATOM     23  N   UNL     1      -4.070  10.058   0.976  0.00  0.00    -0.194 NA
ATOM     24  N   UNL     1      -6.116  11.116   1.422  0.00  0.00    -0.306 N 
ATOM     25  C   UNL     1      -6.964  12.308   1.338  0.00  0.00    +0.132 C 
ATOM     26  C   UNL     1      -6.626   9.898   2.057  0.00  0.00    +0.132 C 
ATOM     27  N   UNL     1      -2.664  13.421  -0.768  0.00  0.00    -0.327 N 
ATOM     28  H   UNL     1      -1.766  13.440  -1.132  0.00  0.00    +0.145 HD
ATOM     29  H   UNL     1      -3.227  14.209  -0.824  0.00  0.00    +0.145 HD
ENDBRANCH   2  18
BRANCH   2  30
ATOM     30  C   UNL     1      -2.475   7.691   1.187  0.00  0.00    +0.103 C 
ATOM     31  N   UNL     1      -2.870   6.746   1.679  0.00  0.00    -0.191 NA
ENDBRANCH   2  30
TORSDOF 4
