REMARK  Name = ZINC33692658
REMARK  7 active torsions:
REMARK  status: ('A' for Active; 'I' for Inactive)
REMARK    1  A    between atoms: C_1  and  C_2
REMARK    2  A    between atoms: C_7  and  N_8
REMARK    3  A    between atoms: C_13  and  C_30
REMARK    4  A    between atoms: C_16  and  C_21
REMARK    5  A    between atoms: C_16  and  C_27
REMARK    6  A    between atoms: C_35  and  O_36
REMARK    7  A    between atoms: O_36  and  C_37
REMARK                            x       y       z     vdW  Elec       q    Type
REMARK                         _______ _______ _______ _____ _____    ______ ____
ROOT
ATOM      1  N   UNL     1       2.978   4.994  -2.296  0.00  0.00    -0.210 N 
ATOM      2  C   UNL     1       3.893   4.221  -2.951  0.00  0.00    +0.229 C 
ATOM      3  O   UNL     1       4.618   4.558  -3.862  0.00  0.00    -0.275 OA
ATOM      4  C   UNL     1       3.814   2.863  -2.307  0.00  0.00    +0.078 C 
ATOM      5  C   UNL     1       5.109   2.115  -1.969  0.00  0.00    -0.023 C 
ATOM      6  N   UNL     1       4.750   1.389  -0.703  0.00  0.00    +0.398 N 
ATOM      7  C   UNL     1       3.672   2.182  -0.024  0.00  0.00    +0.074 C 
ATOM      8  C   UNL     1       3.541   3.398  -0.843  0.00  0.00    +0.090 C 
ATOM      9  C   UNL     1       2.580   4.448  -1.100  0.00  0.00    +0.229 C 
ATOM     10  O   UNL     1       1.636   4.774  -0.413  0.00  0.00    -0.275 OA
ATOM     11  H   UNL     1       4.390   0.380  -0.949  0.00  0.00    -0.083 HD
ATOM     12  H   UNL     1       5.638   1.315  -0.058  0.00  0.00    -0.083 HD
ENDROOT
BRANCH   1  19
ATOM     13  C   UNL     1       4.366   7.377  -1.592  0.00  0.00    +0.045 C 
ATOM     14  C   UNL     1       3.142   7.399  -2.472  0.00  0.00    -0.029 A 
ATOM     15  C   UNL     1       2.667   8.599  -2.965  0.00  0.00    +0.005 A 
ATOM     16  C   UNL     1       1.541   8.620  -3.767  0.00  0.00    +0.000 A 
ATOM     17  C   UNL     1       0.891   7.441  -4.083  0.00  0.00    +0.002 A 
ATOM     18  C   UNL     1       1.364   6.239  -3.597  0.00  0.00    +0.024 A 
ATOM     19  C   UNL     1       2.495   6.214  -2.791  0.00  0.00    +0.047 A 
ENDBRANCH   1  19
BRANCH   7  20
ATOM     20  C   UNL     1       2.377   1.411  -0.015  0.00  0.00    -0.047 A 
ATOM     21  C   UNL     1       2.325   0.141  -0.559  0.00  0.00    +0.003 A 
ATOM     22  C   UNL     1       1.138  -0.567  -0.550  0.00  0.00    +0.000 A 
ATOM     23  C   UNL     1       0.002  -0.004   0.002  0.00  0.00    +0.000 A 
ATOM     24  C   UNL     1       0.054   1.266   0.544  0.00  0.00    +0.000 A 
ATOM     25  C   UNL     1       1.241   1.974   0.536  0.00  0.00    +0.003 A 
ENDBRANCH   7  20
BRANCH   5  26
ATOM     26  C   UNL     1       5.464   1.140  -3.062  0.00  0.00    -0.019 A 
ATOM     27  C   UNL     1       5.084  -0.184  -2.957  0.00  0.00    +0.005 A 
ATOM     28  C   UNL     1       5.406  -1.078  -3.962  0.00  0.00    +0.000 A 
ATOM     29  C   UNL     1       6.117  -0.652  -5.068  0.00  0.00    +0.004 A 
ATOM     30  C   UNL     1       6.504   0.670  -5.175  0.00  0.00    +0.046 A 
ATOM     31  C   UNL     1       6.178   1.570  -4.171  0.00  0.00    +0.122 A 
BRANCH  31  32
ATOM     32  O   UNL     1       6.557   2.871  -4.274  0.00  0.00    -0.495 OA
ATOM     33  C   UNL     1       7.289   3.243  -5.443  0.00  0.00    +0.277 C 
ENDBRANCH  31  32
ENDBRANCH   5  26
BRANCH   7  34
ATOM     34  C   UNL     1       4.084   2.535   1.382  0.00  0.00    +0.350 C 
ATOM     35  O   UNL     1       3.801   3.617   1.840  0.00  0.00    -0.248 OA
ATOM     36  O   UNL     1       4.764   1.648   2.125  0.00  0.00    -0.248 OA
ENDBRANCH   7  34
TORSDOF 5
