REMARK  Name = ZINC20622914
REMARK  7 active torsions:
REMARK  status: ('A' for Active; 'I' for Inactive)
REMARK    1  A    between atoms: C_4  and  C_7
REMARK    2  A    between atoms: C_7  and  N_8
REMARK    3  A    between atoms: C_11  and  C_14
REMARK    4  A    between atoms: C_14  and  C_15
REMARK    5  A    between atoms: C_15  and  N_16
REMARK    6  A    between atoms: N_16  and  C_17
REMARK    7  A    between atoms: N_23  and  C_26
REMARK                            x       y       z     vdW  Elec       q    Type
REMARK                         _______ _______ _______ _____ _____    ______ ____
ROOT
ATOM      1  N   UNL     1       8.045  -2.205   6.424  0.00  0.00    -0.349 N 
ATOM      2  H   UNL     1       7.471  -1.880   7.134  0.00  0.00    +0.146 HD
ENDROOT
BRANCH   1   3
ATOM      3  C   UNL     1       9.153  -2.912   6.723  0.00  0.00    +0.085 C 
ATOM      4  C   UNL     1       9.527  -3.084   8.043  0.00  0.00    +0.113 C 
ATOM      5  C   UNL     1       8.664  -2.640   9.152  0.00  0.00    +0.258 C 
ATOM      6  N   UNL     1       9.094  -2.840  10.415  0.00  0.00    -0.235 N 
ATOM      7  C   UNL     1      10.272  -3.426  10.669  0.00  0.00    +0.320 C 
ATOM      8  O   UNL     1      10.601  -3.578  11.829  0.00  0.00    -0.251 OA
ATOM      9  N   UNL     1      11.107  -3.855   9.711  0.00  0.00    -0.190 N 
ATOM     10  C   UNL     1      10.804  -3.726   8.403  0.00  0.00    +0.265 C 
ATOM     11  O   UNL     1      11.568  -4.124   7.543  0.00  0.00    -0.269 OA
ATOM     12  O   UNL     1       7.593  -2.106   8.934  0.00  0.00    -0.270 OA
ATOM     13  H   UNL     1       8.538  -2.553  11.156  0.00  0.00    +0.159 HD
BRANCH   9  14
ATOM     14  C   UNL     1      12.318  -4.457  10.078  0.00  0.00    +0.046 A 
ATOM     15  C   UNL     1      13.522  -3.830   9.787  0.00  0.00    +0.024 A 
ATOM     16  C   UNL     1      14.714  -4.426  10.149  0.00  0.00    +0.002 A 
ATOM     17  C   UNL     1      14.709  -5.646  10.801  0.00  0.00    +0.000 A 
ATOM     18  C   UNL     1      13.511  -6.273  11.091  0.00  0.00    +0.002 A 
ATOM     19  C   UNL     1      12.316  -5.679  10.737  0.00  0.00    +0.024 A 
ENDBRANCH   9  14
ENDBRANCH   1   3
BRANCH   1  20
ATOM     20  C   UNL     1       7.708  -1.928   5.025  0.00  0.00    +0.101 C 
BRANCH  20  21
ATOM     21  C   UNL     1       6.414  -1.116   4.963  0.00  0.00    +0.022 C 
BRANCH  21  25
ATOM     22  N   UNL     1       4.122  -0.978   1.356  0.00  0.00    +0.382 N 
ATOM     23  C   UNL     1       4.444   0.311   1.980  0.00  0.00    -0.078 C 
ATOM     24  C   UNL     1       4.838   0.090   3.442  0.00  0.00    -0.015 C 
ATOM     25  C   UNL     1       6.062  -0.827   3.502  0.00  0.00    -0.013 C 
ATOM     26  C   UNL     1       5.740  -2.140   2.784  0.00  0.00    -0.015 C 
ATOM     27  C   UNL     1       5.313  -1.837   1.346  0.00  0.00    -0.078 C 
ATOM     28  H   UNL     1       3.388  -1.429   1.881  0.00  0.00    -0.081 HD
BRANCH  22  29
ATOM     29  C   UNL     1       3.670  -0.754  -0.023  0.00  0.00    -0.043 C 
BRANCH  29  33
ATOM     30  C   UNL     1       0.013   1.452   0.015  0.00  0.00    +0.000 A 
ATOM     31  C   UNL     1       1.222   2.120  -0.026  0.00  0.00    +0.000 A 
ATOM     32  C   UNL     1       2.406   1.406  -0.038  0.00  0.00    +0.002 A 
ATOM     33  C   UNL     1       2.380   0.024  -0.009  0.00  0.00    -0.064 A 
ATOM     34  C   UNL     1       1.170  -0.644   0.033  0.00  0.00    +0.002 A 
ATOM     35  C   UNL     1      -0.013   0.070   0.044  0.00  0.00    +0.000 A 
ENDBRANCH  29  33
ENDBRANCH  22  29
ENDBRANCH  21  25
ENDBRANCH  20  21
ENDBRANCH   1  20
TORSDOF 7
