REMARK  Name = ZINC20330491
REMARK  8 active torsions:
REMARK  status: ('A' for Active; 'I' for Inactive)
REMARK    1  A    between atoms: C_1  and  O_2
REMARK    2  A    between atoms: O_2  and  C_3
REMARK    3  A    between atoms: N_15  and  C_19
REMARK    4  A    between atoms: C_19  and  C_20
REMARK    5  A    between atoms: C_20  and  C_21
REMARK    6  A    between atoms: C_21  and  C_22
REMARK    7  A    between atoms: N_24  and  C_25
REMARK    8  A    between atoms: C_25  and  C_26
REMARK                            x       y       z     vdW  Elec       q    Type
REMARK                         _______ _______ _______ _____ _____    ______ ____
ROOT
ATOM      1  C   UNL     1       2.766  -0.776 -12.739  0.00  0.00    +0.121 A 
ATOM      2  C   UNL     1       3.605   0.332 -12.834  0.00  0.00    +0.047 A 
ATOM      3  C   UNL     1       3.530   1.349 -11.911  0.00  0.00    +0.030 A 
ATOM      4  C   UNL     1       2.609   1.279 -10.868  0.00  0.00    +0.049 A 
ATOM      5  C   UNL     1       1.760   0.162 -10.769  0.00  0.00    +0.027 A 
ATOM      6  C   UNL     1       1.846  -0.865 -11.714  0.00  0.00    +0.057 A 
ATOM      7  C   UNL     1       0.923   0.380  -9.590  0.00  0.00    +0.079 A 
ATOM      8  C   UNL     1       1.302   1.594  -9.048  0.00  0.00    +0.129 A 
ATOM      9  N   UNL     1       2.318   2.130  -9.823  0.00  0.00    -0.349 N 
ATOM     10  H   UNL     1       2.872   3.073  -9.711  0.00  0.00    +0.166 HD
ATOM     11  C   UNL     1       0.636   2.055  -7.883  0.00  0.00    +0.279 A 
ATOM     12  O   UNL     1       0.941   3.122  -7.382  0.00  0.00    -0.265 OA
ATOM     13  N   UNL     1      -0.335   1.299  -7.334  0.00  0.00    -0.287 N 
ATOM     14  C   UNL     1      -0.688   0.120  -7.876  0.00  0.00    +0.161 A 
ATOM     15  S   UNL     1      -1.932  -0.800  -7.144  0.00  0.00    -0.013 S 
ATOM     16  N   UNL     1      -0.085  -0.350  -8.984  0.00  0.00    -0.333 N 
ATOM     17  H   UNL     1      -0.394  -1.317  -9.407  0.00  0.00    +0.168 HD
ENDROOT
BRANCH   1  19
ATOM     18  C   UNL     1       3.826  -1.617 -14.694  0.00  0.00    +0.277 C 
ATOM     19  O   UNL     1       2.853  -1.773 -13.660  0.00  0.00    -0.495 OA
ENDBRANCH   1  19
BRANCH  13  20
ATOM     20  C   UNL     1      -1.021   1.771  -6.128  0.00  0.00    +0.128 C 
BRANCH  20  21
ATOM     21  C   UNL     1      -0.281   1.264  -4.889  0.00  0.00    +0.031 C 
BRANCH  21  22
ATOM     22  C   UNL     1      -0.997   1.758  -3.630  0.00  0.00    +0.097 C 
BRANCH  22  23
ATOM     23  C   UNL     1      -0.268   1.258  -2.409  0.00  0.00    +0.213 C 
ATOM     24  O   UNL     1       0.726   0.575  -2.534  0.00  0.00    -0.276 OA
ATOM     25  N   UNL     1      -0.721   1.571  -1.179  0.00  0.00    -0.311 N 
ATOM     26  H   UNL     1      -1.623   2.191  -1.066  0.00  0.00    +0.149 HD
BRANCH  25  27
ATOM     27  C   UNL     1      -0.013   1.086   0.008  0.00  0.00    +0.139 C 
BRANCH  27  28
ATOM     28  C   UNL     1      -0.718   1.572   1.248  0.00  0.00    -0.030 A 
ATOM     29  C   UNL     1      -0.359   2.779   1.818  0.00  0.00    +0.008 A 
ATOM     30  C   UNL     1      -1.009   3.228   2.953  0.00  0.00    +0.038 A 
ATOM     31  C   UNL     1      -2.012   2.463   3.524  0.00  0.00    +0.123 A 
ATOM     32  C   UNL     1      -2.367   1.252   2.955  0.00  0.00    +0.038 A 
ATOM     33  C   UNL     1      -1.719   0.807   1.817  0.00  0.00    +0.008 A 
ATOM     34  F   UNL     1      -2.644   2.899   4.635  0.00  0.00    -0.205 F 
ENDBRANCH  27  28
ENDBRANCH  25  27
ENDBRANCH  22  23
ENDBRANCH  21  22
ENDBRANCH  20  21
ENDBRANCH  13  20
TORSDOF 7
