REMARK  Name = ZINC57596319
REMARK  3 active torsions:
REMARK  status: ('A' for Active; 'I' for Inactive)
REMARK    1  A    between atoms: C_1  and  C_2
REMARK    2  A    between atoms: C_3  and  C_16
REMARK    3  A    between atoms: N_7  and  C_8
REMARK                            x       y       z     vdW  Elec       q    Type
REMARK                         _______ _______ _______ _____ _____    ______ ____
ROOT
ATOM      1  C   UNL     1      -0.591   1.432   0.091  0.00  0.00    +0.062 C 
ATOM      2  C   UNL     1      -0.254  -0.036   0.038  0.00  0.00    +0.026 C 
ATOM      3  C   UNL     1      -0.285  -0.775  -1.090  0.00  0.00    +0.067 C 
ATOM      4  C   UNL     1       0.121  -2.177  -0.682  0.00  0.00    +0.140 C 
ATOM      5  C   UNL     1       0.363  -2.056   0.809  0.00  0.00    +0.229 C 
ATOM      6  O   UNL     1       0.709  -2.938   1.566  0.00  0.00    -0.275 OA
ATOM      7  N   UNL     1       0.122  -0.769   1.123  0.00  0.00    -0.243 N 
ENDROOT
BRANCH   7   8
ATOM      8  C   UNL     1       0.239  -0.245   2.417  0.00  0.00    +0.044 A 
ATOM      9  C   UNL     1      -0.644  -0.643   3.411  0.00  0.00    +0.044 A 
ATOM     10  C   UNL     1      -0.526  -0.125   4.687  0.00  0.00    +0.044 A 
ATOM     11  C   UNL     1       0.473   0.789   4.974  0.00  0.00    +0.040 A 
ATOM     12  C   UNL     1       1.355   1.187   3.985  0.00  0.00    +0.044 A 
ATOM     13  C   UNL     1       1.244   0.668   2.709  0.00  0.00    +0.044 A 
ATOM     14 CL   UNL     1       2.606   2.335   4.349  0.00  0.00    -0.083 Cl
ATOM     15 CL   UNL     1      -1.631  -0.621   5.931  0.00  0.00    -0.083 Cl
ENDBRANCH   7   8
BRANCH   3  16
ATOM     16  C   UNL     1      -0.625  -0.332  -2.385  0.00  0.00    +0.385 C 
ATOM     17  O   UNL     1      -0.936   0.839  -2.571  0.00  0.00    -0.241 OA
ATOM     18  O   UNL     1      -0.610  -1.119  -3.325  0.00  0.00    -0.241 OA
ENDBRANCH   3  16
TORSDOF 2
