REMARK  Name = ZINC13063860
REMARK  11 active torsions:
REMARK  status: ('A' for Active; 'I' for Inactive)
REMARK    1  A    between atoms: C_1  and  C_2
REMARK    2  A    between atoms: C_2  and  C_3
REMARK    3  A    between atoms: C_3  and  C_5
REMARK    4  A    between atoms: C_3  and  N_66
REMARK    5  A    between atoms: N_9  and  C_10
REMARK    6  A    between atoms: C_10  and  C_11
REMARK    7  A    between atoms: C_17  and  C_18
REMARK    8  A    between atoms: C_17  and  N_66
REMARK    9  A    between atoms: C_24  and  C_25
REMARK   10  A    between atoms: C_24  and  N_66
REMARK   11  A    between atoms: C_30  and  C_37
REMARK                            x       y       z     vdW  Elec       q    Type
REMARK                         _______ _______ _______ _____ _____    ______ ____
ROOT
ATOM      1  N   UNL     1       2.272   7.147  -2.164  0.00  0.00    +0.392 N 
ATOM      2  H   UNL     1       3.017   7.207  -1.461  0.00  0.00    -0.080 HD
ENDROOT
BRANCH   1   3
ATOM      3  C   UNL     1       1.619   5.825  -2.062  0.00  0.00    +0.003 C 
BRANCH   3   4
ATOM      4  C   UNL     1       2.669   4.794  -1.735  0.00  0.00    +0.138 A 
ATOM      5  N   UNL     1       3.846   4.670  -2.299  0.00  0.00    -0.115 NA
ATOM      6  N   UNL     1       4.449   3.675  -1.746  0.00  0.00    -0.023 NA
ATOM      7  N   UNL     1       3.690   3.165  -0.840  0.00  0.00    -0.044 NA
ATOM      8  N   UNL     1       2.581   3.824  -0.806  0.00  0.00    -0.226 N 
BRANCH   8   9
ATOM      9  C   UNL     1       1.443   3.568   0.079  0.00  0.00    +0.182 C 
BRANCH   9  10
ATOM     10  C   UNL     1       0.495   2.604  -0.586  0.00  0.00    -0.026 A 
ATOM     11  C   UNL     1       0.650   1.243  -0.400  0.00  0.00    +0.005 A 
ATOM     12  C   UNL     1      -0.220   0.358  -1.010  0.00  0.00    +0.000 A 
ATOM     13  C   UNL     1      -1.240   0.834  -1.811  0.00  0.00    +0.000 A 
ATOM     14  C   UNL     1      -1.398   2.195  -1.994  0.00  0.00    +0.000 A 
ATOM     15  C   UNL     1      -0.529   3.080  -1.383  0.00  0.00    +0.005 A 
ENDBRANCH   9  10
ENDBRANCH   8   9
ENDBRANCH   3   4
BRANCH   3  17
ATOM     16  C   UNL     1      -0.222   6.420  -3.642  0.00  0.00    +0.002 C 
ATOM     17  C   UNL     1       0.941   5.460  -3.384  0.00  0.00    -0.011 C 
ENDBRANCH   3  17
ENDBRANCH   1   3
BRANCH   1  18
ATOM     18  C   UNL     1       2.865   7.315  -3.508  0.00  0.00    -0.042 C 
BRANCH  18  19
ATOM     19  C   UNL     1       3.830   8.472  -3.469  0.00  0.00    -0.064 A 
ATOM     20  C   UNL     1       3.386   9.752  -3.737  0.00  0.00    +0.002 A 
ATOM     21  C   UNL     1       4.270  10.814  -3.697  0.00  0.00    +0.000 A 
ATOM     22  C   UNL     1       5.602  10.593  -3.398  0.00  0.00    +0.000 A 
ATOM     23  C   UNL     1       6.048   9.311  -3.136  0.00  0.00    +0.000 A 
ATOM     24  C   UNL     1       5.162   8.251  -3.171  0.00  0.00    +0.002 A 
ENDBRANCH  18  19
ENDBRANCH   1  18
BRANCH   1  25
ATOM     25  C   UNL     1       1.285   8.218  -1.911  0.00  0.00    -0.036 C 
BRANCH  25  26
ATOM     26  C   UNL     1       1.095   8.356  -0.422  0.00  0.00    +0.001 A 
ATOM     27  C   UNL     1       1.855   9.235   0.277  0.00  0.00    +0.017 A 
ATOM     28  C   UNL     1       1.646   9.345   1.722  0.00  0.00    -0.001 A 
ATOM     29  C   UNL     1       2.399  10.234   2.496  0.00  0.00    +0.010 A 
ATOM     30  C   UNL     1       2.179  10.313   3.842  0.00  0.00    +0.004 A 
ATOM     31  C   UNL     1       1.216   9.519   4.449  0.00  0.00    -0.048 A 
ATOM     32  C   UNL     1       0.462   8.637   3.705  0.00  0.00    +0.029 A 
ATOM     33  C   UNL     1       0.668   8.538   2.333  0.00  0.00    +0.049 A 
ATOM     34  N   UNL     1      -0.072   7.665   1.565  0.00  0.00    -0.322 N 
ATOM     35  H   UNL     1      -0.746   7.109   1.988  0.00  0.00    +0.169 HD
ATOM     36  C   UNL     1       0.123   7.574   0.238  0.00  0.00    +0.251 A 
ATOM     37  O   UNL     1      -0.552   6.794  -0.410  0.00  0.00    -0.268 OA
ATOM     38  C   UNL     1       0.991   9.624   5.935  0.00  0.00    +0.044 C 
ENDBRANCH  25  26
ENDBRANCH   1  25
TORSDOF 9
