REMARK  Name = ZINC32542234
REMARK  10 active torsions:
REMARK  status: ('A' for Active; 'I' for Inactive)
REMARK    1  A    between atoms: C_1  and  C_2
REMARK    2  A    between atoms: C_2  and  C_4
REMARK    3  A    between atoms: C_2  and  N_14
REMARK    4  A    between atoms: C_7  and  S_10
REMARK    5  A    between atoms: S_10  and  N_13
REMARK    6  A    between atoms: N_14  and  C_15
REMARK    7  A    between atoms: N_14  and  C_16
REMARK    8  A    between atoms: C_16  and  C_17
REMARK    9  A    between atoms: N_19  and  C_20
REMARK   10  A    between atoms: C_25  and  C_26
REMARK                            x       y       z     vdW  Elec       q    Type
REMARK                         _______ _______ _______ _____ _____    ______ ____
ROOT
ATOM      1  N   UNL     1      -2.242   3.791   5.832  0.00  0.00    +0.388 N 
ATOM      2  C   UNL     1      -1.056   2.997   6.180  0.00  0.00    -0.095 C 
ATOM      3  H   UNL     1      -1.900   4.697   5.310  0.00  0.00    -0.081 HD
ENDROOT
BRANCH   1   5
ATOM      4  C   UNL     1      -4.292   3.943   4.502  0.00  0.00    -0.008 C 
ATOM      5  C   UNL     1      -3.123   3.050   4.919  0.00  0.00    -0.041 C 
BRANCH   5   6
ATOM      6  C   UNL     1      -2.345   2.636   3.696  0.00  0.00    -0.061 A 
ATOM      7  C   UNL     1      -2.544   1.386   3.141  0.00  0.00    +0.004 A 
ATOM      8  C   UNL     1      -1.831   1.007   2.019  0.00  0.00    +0.029 A 
ATOM      9  C   UNL     1      -0.919   1.877   1.453  0.00  0.00    +0.105 A 
ATOM     10  C   UNL     1      -0.716   3.126   2.011  0.00  0.00    +0.029 A 
ATOM     11  C   UNL     1      -1.433   3.507   3.130  0.00  0.00    +0.004 A 
BRANCH   9  12
ATOM     12  S   UNL     1      -0.009   1.393   0.023  0.00  0.00    +0.056 S 
ATOM     13  O   UNL     1       0.019  -0.027   0.022  0.00  0.00    -0.153 OA
ATOM     14  O   UNL     1       1.175   2.179   0.010  0.00  0.00    -0.153 OA
BRANCH  12  15
ATOM     15  N   UNL     1      -0.895   1.851  -1.299  0.00  0.00    -0.204 NA
ATOM     16  H   UNL     1      -0.359   1.565  -2.216  0.00  0.00    +0.144 HD
ATOM     17  H   UNL     1      -1.041   2.941  -1.284  0.00  0.00    +0.144 HD
ENDBRANCH  12  15
ENDBRANCH   9  12
ENDBRANCH   5   6
ENDBRANCH   1   5
BRANCH   1  18
ATOM     18  C   UNL     1      -2.967   4.211   7.038  0.00  0.00    +0.019 C 
BRANCH  18  19
ATOM     19  C   UNL     1      -2.114   5.169   7.829  0.00  0.00    +0.201 C 
ATOM     20  O   UNL     1      -1.010   5.471   7.428  0.00  0.00    -0.278 OA
ATOM     21  N   UNL     1      -2.577   5.689   8.983  0.00  0.00    -0.287 N 
ATOM     22  H   UNL     1      -3.610   5.487   9.302  0.00  0.00    +0.155 HD
BRANCH  21  23
ATOM     23  C   UNL     1      -1.744   6.484   9.775  0.00  0.00    +0.041 A 
ATOM     24  C   UNL     1      -0.366   6.343   9.697  0.00  0.00    +0.024 A 
ATOM     25  C   UNL     1       0.455   7.130  10.481  0.00  0.00    +0.002 A 
ATOM     26  C   UNL     1      -0.090   8.063  11.346  0.00  0.00    +0.001 A 
ATOM     27  C   UNL     1      -1.459   8.215  11.433  0.00  0.00    +0.010 A 
ATOM     28  C   UNL     1      -2.297   7.431  10.645  0.00  0.00    +0.003 A 
BRANCH  28  29
ATOM     29  C   UNL     1      -3.769   7.594  10.731  0.00  0.00    -0.016 A 
ATOM     30  C   UNL     1      -4.524   7.755   9.570  0.00  0.00    +0.008 A 
ATOM     31  C   UNL     1      -5.893   7.902   9.656  0.00  0.00    +0.001 A 
ATOM     32  C   UNL     1      -6.516   7.900  10.891  0.00  0.00    +0.000 A 
ATOM     33  C   UNL     1      -5.771   7.746  12.046  0.00  0.00    +0.001 A 
ATOM     34  C   UNL     1      -4.401   7.593  11.973  0.00  0.00    +0.008 A 
ENDBRANCH  28  29
ENDBRANCH  21  23
ENDBRANCH  18  19
ENDBRANCH   1  18
TORSDOF 8
