REMARK  Name = ZINC36116322
REMARK  14 active torsions:
REMARK  status: ('A' for Active; 'I' for Inactive)
REMARK    1  A    between atoms: C_1  and  C_2
REMARK    2  A    between atoms: C_2  and  C_3
REMARK    3  A    between atoms: N_9  and  C_10
REMARK    4  A    between atoms: C_10  and  C_11
REMARK    5  A    between atoms: C_11  and  C_12
REMARK    6  A    between atoms: C_12  and  N_13
REMARK    7  A    between atoms: C_14  and  C_16
REMARK    8  A    between atoms: C_16  and  N_17
REMARK    9  A    between atoms: N_17  and  C_18
REMARK   10  A    between atoms: N_17  and  S_25
REMARK   11  A    between atoms: S_25  and  C_28
REMARK   12  A    between atoms: C_31  and  O_34
REMARK   13  A    between atoms: O_34  and  C_35
REMARK   14  A    between atoms: C_35  and  C_36
REMARK                            x       y       z     vdW  Elec       q    Type
REMARK                         _______ _______ _______ _____ _____    ______ ____
ROOT
ATOM      1  N   UNL     1       7.490   6.326  -0.443  0.00  0.00    -0.194 N 
ENDROOT
BRANCH   1   2
ATOM      2  C   UNL     1       7.445   6.899   0.832  0.00  0.00    +0.052 A 
ATOM      3  C   UNL     1       7.288   8.272   0.971  0.00  0.00    +0.027 A 
ATOM      4  C   UNL     1       7.243   8.836   2.231  0.00  0.00    +0.040 A 
ATOM      5  C   UNL     1       7.355   8.034   3.354  0.00  0.00    +0.124 A 
ATOM      6  C   UNL     1       7.511   6.665   3.218  0.00  0.00    +0.040 A 
ATOM      7  C   UNL     1       7.552   6.096   1.960  0.00  0.00    +0.027 A 
ATOM      8  F   UNL     1       7.311   8.588   4.586  0.00  0.00    -0.205 F 
ENDBRANCH   1   2
BRANCH   1   9
ATOM      9  S   UNL     1       8.012   7.220  -1.735  0.00  0.00    +0.075 S 
ATOM     10  O   UNL     1       8.802   8.276  -1.206  0.00  0.00    -0.150 OA
ATOM     11  O   UNL     1       8.516   6.297  -2.691  0.00  0.00    -0.150 OA
BRANCH   9  12
ATOM     12  C   UNL     1       6.591   7.968  -2.459  0.00  0.00    +0.109 A 
ATOM     13  C   UNL     1       5.820   7.257  -3.359  0.00  0.00    +0.032 A 
ATOM     14  C   UNL     1       4.705   7.842  -3.928  0.00  0.00    +0.047 A 
ATOM     15  C   UNL     1       4.359   9.144  -3.595  0.00  0.00    +0.121 A 
ATOM     16  C   UNL     1       5.135   9.855  -2.691  0.00  0.00    +0.047 A 
ATOM     17  C   UNL     1       6.246   9.264  -2.121  0.00  0.00    +0.032 A 
BRANCH  15  18
ATOM     18  O   UNL     1       3.264   9.721  -4.154  0.00  0.00    -0.492 OA
BRANCH  18  19
ATOM     19  C   UNL     1       2.968  11.064  -3.765  0.00  0.00    +0.225 C 
ATOM     20  C   UNL     1       1.709  11.541  -4.492  0.00  0.00    +0.048 C 
ENDBRANCH  18  19
ENDBRANCH  15  18
ENDBRANCH   9  12
ENDBRANCH   1   9
BRANCH   1  21
ATOM     21  C   UNL     1       7.076   4.934  -0.635  0.00  0.00    +0.227 C 
BRANCH  21  23
ATOM     22  N   UNL     1       4.973   3.689  -1.014  0.00  0.00    -0.314 N 
ATOM     23  C   UNL     1       5.582   4.875  -0.819  0.00  0.00    +0.232 C 
ATOM     24  O   UNL     1       4.927   5.896  -0.793  0.00  0.00    -0.274 OA
ATOM     25  H   UNL     1       5.496   2.873  -1.034  0.00  0.00    +0.149 HD
BRANCH  22  26
ATOM     26  C   UNL     1       3.520   3.632  -1.193  0.00  0.00    +0.102 C 
BRANCH  26  27
ATOM     27  C   UNL     1       3.087   2.178  -1.394  0.00  0.00    +0.000 C 
BRANCH  27  28
ATOM     28  C   UNL     1       1.570   2.119  -1.581  0.00  0.00    -0.077 C 
BRANCH  28  34
ATOM     29  C   UNL     1      -0.311   0.655  -1.838  0.00  0.00    -0.069 C 
ATOM     30  C   UNL     1      -0.751  -0.806  -1.957  0.00  0.00    -0.015 C 
ATOM     31  C   UNL     1      -0.154  -1.412  -3.230  0.00  0.00    -0.003 C 
ATOM     32  C   UNL     1       1.370  -1.267  -3.186  0.00  0.00    -0.019 C 
ATOM     33  C   UNL     1       1.732   0.211  -3.022  0.00  0.00    -0.078 C 
ATOM     34  N   UNL     1       1.154   0.723  -1.774  0.00  0.00    +0.382 N 
ATOM     35  H   UNL     1       1.482   0.167  -0.999  0.00  0.00    -0.081 HD
BRANCH  29  37
ATOM     36  C   UNL     1      -2.432   1.266  -0.668  0.00  0.00    +0.002 C 
ATOM     37  C   UNL     1      -0.905   1.264  -0.567  0.00  0.00    -0.019 C 
ENDBRANCH  29  37
ENDBRANCH  28  34
ENDBRANCH  27  28
ENDBRANCH  26  27
ENDBRANCH  22  26
ENDBRANCH  21  23
ENDBRANCH   1  21
TORSDOF 12
