REMARK  Name = ZINC13121332
REMARK  5 active torsions:
REMARK  status: ('A' for Active; 'I' for Inactive)
REMARK    1  A    between atoms: C_6  and  C_7
REMARK    2  A    between atoms: C_17  and  C_19
REMARK    3  A    between atoms: C_26  and  C_28
REMARK    4  A    between atoms: C_28  and  N_66
REMARK    5  A    between atoms: C_31  and  C_34
REMARK                            x       y       z     vdW  Elec       q    Type
REMARK                         _______ _______ _______ _____ _____    ______ ____
ROOT
ATOM      1  C   UNL     1      -2.820  12.425   1.439  0.00  0.00    +0.013 C 
ATOM      2  C   UNL     1      -1.909  12.328   2.429  0.00  0.00    -0.024 C 
ATOM      3  C   UNL     1      -1.373  13.575   3.065  0.00  0.00    +0.037 C 
ATOM      4  C   UNL     1      -0.245  13.335   4.048  0.00  0.00    +0.005 C 
ATOM      5  C   UNL     1      -0.374  12.015   4.807  0.00  0.00    +0.012 C 
ATOM      6  C   UNL     1      -0.286  10.872   3.794  0.00  0.00    +0.066 C 
ATOM      7  C   UNL     1      -1.472  11.050   2.854  0.00  0.00    +0.068 C 
ATOM      8  N   UNL     1      -1.998   9.895   2.639  0.00  0.00    -0.181 NA
ATOM      9  N   UNL     1      -1.449   8.875   3.425  0.00  0.00    -0.186 N 
ATOM     10  C   UNL     1      -0.585   9.511   4.445  0.00  0.00    +0.140 C 
ATOM     11  C   UNL     1      -1.663   7.553   3.276  0.00  0.00    +0.219 C 
ATOM     12  O   UNL     1      -1.123   6.763   4.021  0.00  0.00    -0.276 OA
ENDROOT
BRANCH   1  18
ATOM     13  C   UNL     1      -3.817  14.600   2.121  0.00  0.00    +0.011 A 
ATOM     14  C   UNL     1      -4.360  15.826   1.800  0.00  0.00    +0.039 A 
ATOM     15  C   UNL     1      -4.510  16.195   0.472  0.00  0.00    +0.123 A 
ATOM     16  C   UNL     1      -4.110  15.337  -0.541  0.00  0.00    +0.039 A 
ATOM     17  C   UNL     1      -3.561  14.111  -0.234  0.00  0.00    +0.011 A 
ATOM     18  C   UNL     1      -3.406  13.733   1.104  0.00  0.00    -0.025 A 
ATOM     19  F   UNL     1      -5.047  17.395   0.164  0.00  0.00    -0.205 F 
ENDBRANCH   1  18
BRANCH  10  20
ATOM     20  C   UNL     1       0.681   8.719   4.650  0.00  0.00    -0.024 A 
ATOM     21  C   UNL     1       1.311   8.132   3.568  0.00  0.00    +0.008 A 
ATOM     22  C   UNL     1       2.475   7.411   3.753  0.00  0.00    +0.038 A 
ATOM     23  C   UNL     1       3.005   7.267   5.025  0.00  0.00    +0.123 A 
ATOM     24  C   UNL     1       2.370   7.851   6.108  0.00  0.00    +0.038 A 
ATOM     25  C   UNL     1       1.209   8.576   5.919  0.00  0.00    +0.008 A 
ATOM     26  F   UNL     1       4.139   6.557   5.208  0.00  0.00    -0.205 F 
ENDBRANCH  10  20
BRANCH  11  27
ATOM     27  C   UNL     1      -2.575   7.056   2.183  0.00  0.00    +0.021 C 
BRANCH  27  33
ATOM     28  C   UNL     1      -3.696   5.081   1.343  0.00  0.00    -0.077 C 
ATOM     29  C   UNL     1      -3.834   3.568   1.528  0.00  0.00    -0.006 C 
ATOM     30  C   UNL     1      -2.498   2.895   1.202  0.00  0.00    +0.071 C 
ATOM     31  C   UNL     1      -1.409   3.476   2.107  0.00  0.00    -0.006 C 
ATOM     32  C   UNL     1      -1.341   4.992   1.906  0.00  0.00    -0.077 C 
ATOM     33  N   UNL     1      -2.649   5.582   2.260  0.00  0.00    +0.385 N 
ATOM     34  H   UNL     1      -2.889   5.309   3.220  0.00  0.00    -0.081 HD
BRANCH  30  35
ATOM     35  C   UNL     1      -2.611   1.411   1.439  0.00  0.00    +0.213 C 
ATOM     36  O   UNL     1      -3.657   0.937   1.830  0.00  0.00    -0.276 OA
ATOM     37  N   UNL     1      -1.550   0.610   1.216  0.00  0.00    -0.329 N 
ATOM     38  H   UNL     1      -1.623  -0.345   1.369  0.00  0.00    +0.145 HD
ATOM     39  H   UNL     1      -0.715   0.989   0.900  0.00  0.00    +0.145 HD
ENDBRANCH  30  35
ENDBRANCH  27  33
ENDBRANCH  11  27
TORSDOF 5
