REMARK  Name = ZINC38966977
REMARK  8 active torsions:
REMARK  status: ('A' for Active; 'I' for Inactive)
REMARK    1  A    between atoms: C_1  and  C_2
REMARK    2  A    between atoms: C_2  and  O_3
REMARK    3  A    between atoms: O_3  and  C_4
REMARK    4  A    between atoms: C_7  and  N_18
REMARK    5  A    between atoms: C_9  and  N_10
REMARK    6  A    between atoms: C_13  and  N_16
REMARK    7  A    between atoms: C_21  and  C_27
REMARK    8  A    between atoms: N_23  and  C_24
REMARK                            x       y       z     vdW  Elec       q    Type
REMARK                         _______ _______ _______ _____ _____    ______ ____
ROOT
ATOM      1  C   UNL     1       0.566  -1.883  -0.882  0.00  0.00    +0.168 A 
ATOM      2  C   UNL     1       1.704  -2.549  -0.442  0.00  0.00    +0.099 A 
ATOM      3  C   UNL     1       1.797  -3.944  -0.611  0.00  0.00    +0.073 A 
ATOM      4  C   UNL     1       0.750  -4.653  -1.218  0.00  0.00    +0.075 A 
ATOM      5  C   UNL     1      -0.377  -3.973  -1.650  0.00  0.00    +0.169 A 
ATOM      6  C   UNL     1      -0.470  -2.595  -1.477  0.00  0.00    +0.111 A 
ATOM      7  F   UNL     1      -1.389  -4.650  -2.236  0.00  0.00    -0.201 F 
ATOM      8  C   UNL     1       3.006  -4.632  -0.140  0.00  0.00    +0.205 A 
ATOM      9  O   UNL     1       3.138  -5.838  -0.262  0.00  0.00    -0.286 OA
ATOM     10  C   UNL     1       4.054  -3.805   0.485  0.00  0.00    +0.126 A 
ATOM     11  C   UNL     1       3.852  -2.443   0.596  0.00  0.00    +0.105 A 
ATOM     12  N   UNL     1       2.736  -1.850   0.155  0.00  0.00    -0.340 N 
ENDROOT
BRANCH   6  13
ATOM     13  N   UNL     1      -1.613  -1.919  -1.911  0.00  0.00    -0.326 N 
ATOM     14  C   UNL     1      -2.815  -1.662  -1.104  0.00  0.00    +0.103 C 
ATOM     15  C   UNL     1      -3.798  -0.866  -1.988  0.00  0.00    +0.004 C 
ATOM     16  C   UNL     1      -2.868  -0.229  -3.055  0.00  0.00    -0.056 C 
ATOM     17  C   UNL     1      -1.811  -1.341  -3.252  0.00  0.00    +0.089 C 
BRANCH  16  18
ATOM     18  N   UNL     1      -3.600   0.034  -4.301  0.00  0.00    +0.381 N 
ATOM     19  H   UNL     1      -4.348   0.686  -4.121  0.00  0.00    -0.090 HD
ATOM     20  H   UNL     1      -2.970   0.424  -4.985  0.00  0.00    -0.090 HD
ATOM     21  H   UNL     1      -3.985  -0.830  -4.653  0.00  0.00    -0.090 HD
ENDBRANCH  16  18
ENDBRANCH   6  13
BRANCH   4  22
ATOM     22  N   UNL     1       0.842  -6.035  -1.385  0.00  0.00    -0.355 N 
ATOM     23  H   UNL     1       1.494  -6.542  -0.875  0.00  0.00    +0.142 HD
ATOM     24  H   UNL     1       0.256  -6.488  -2.010  0.00  0.00    +0.142 HD
ENDBRANCH   4  22
BRANCH  12  25
ATOM     25  C   UNL     1       2.603  -0.400   0.313  0.00  0.00    +0.088 C 
ATOM     26  C   UNL     1       3.776   0.353   0.944  0.00  0.00    +0.027 C 
ATOM     27  C   UNL     1       2.484   0.148   1.737  0.00  0.00    +0.027 C 
ENDBRANCH  12  25
BRANCH  10  28
ATOM     28  C   UNL     1       5.290  -4.418   0.980  0.00  0.00    +0.392 C 
ATOM     29  O   UNL     1       6.154  -3.721   1.497  0.00  0.00    -0.240 OA
ATOM     30  O   UNL     1       5.459  -5.626   0.876  0.00  0.00    -0.240 OA
ENDBRANCH  10  28
BRANCH   1  31
ATOM     31  O   UNL     1       0.462  -0.534  -0.725  0.00  0.00    -0.488 OA
BRANCH  31  33
ATOM     32  C   UNL     1      -0.154   1.464   0.486  0.00  0.00    +0.048 C 
ATOM     33  C   UNL     1      -0.123  -0.066   0.491  0.00  0.00    +0.226 C 
ENDBRANCH  31  33
ENDBRANCH   1  31
TORSDOF 7
