REMARK  Name = ZINC38592576
REMARK  11 active torsions:
REMARK  status: ('A' for Active; 'I' for Inactive)
REMARK    1  A    between atoms: C_1  and  C_2
REMARK    2  A    between atoms: C_2  and  O_3
REMARK    3  A    between atoms: O_3  and  C_4
REMARK    4  A    between atoms: C_4  and  C_6
REMARK    5  A    between atoms: C_8  and  N_17
REMARK    6  A    between atoms: C_18  and  C_20
REMARK    7  A    between atoms: C_20  and  N_21
REMARK    8  A    between atoms: C_26  and  O_33
REMARK    9  A    between atoms: C_27  and  O_31
REMARK   10  A    between atoms: O_31  and  C_32
REMARK   11  A    between atoms: O_33  and  C_34
REMARK                            x       y       z     vdW  Elec       q    Type
REMARK                         _______ _______ _______ _____ _____    ______ ____
ROOT
ATOM      1  N   UNL     1      -3.856  -1.506  -2.114  0.00  0.00    -0.288 N 
ATOM      2  C   UNL     1      -4.310  -1.679  -3.372  0.00  0.00    +0.200 C 
ATOM      3  O   UNL     1      -4.636  -2.783  -3.751  0.00  0.00    -0.278 OA
ATOM      4  H   UNL     1      -3.702  -0.611  -1.773  0.00  0.00    +0.155 HD
ENDROOT
BRANCH   1   6
ATOM      5  C   UNL     1      -3.889  -4.039  -1.649  0.00  0.00    +0.234 C 
ATOM      6  C   UNL     1      -3.613  -2.588  -1.322  0.00  0.00    +0.053 C 
ATOM      7  C   UNL     1      -3.062  -2.587  -0.053  0.00  0.00    +0.020 A 
ATOM      8  C   UNL     1      -2.600  -1.544   0.787  0.00  0.00    +0.050 A 
ATOM      9  C   UNL     1      -2.096  -1.841   2.012  0.00  0.00    +0.124 A 
ATOM     10  C   UNL     1      -2.018  -3.160   2.472  0.00  0.00    +0.040 A 
ATOM     11  C   UNL     1      -2.441  -4.206   1.722  0.00  0.00    +0.029 A 
ATOM     12  C   UNL     1      -2.981  -3.976   0.430  0.00  0.00    +0.045 A 
ATOM     13  N   UNL     1      -3.452  -4.808  -0.479  0.00  0.00    -0.367 N 
ATOM     14  F   UNL     1      -1.658  -0.839   2.805  0.00  0.00    -0.205 F 
ATOM     15  H   UNL     1      -3.503  -5.773  -0.389  0.00  0.00    +0.161 HD
BRANCH   5  16
ATOM     16  C   UNL     1      -5.363  -4.246  -1.885  0.00  0.00    +0.336 C 
ATOM     17  O   UNL     1      -6.164  -3.896  -1.050  0.00  0.00    -0.248 OA
BRANCH  16  18
ATOM     18  O   UNL     1      -5.787  -4.819  -3.022  0.00  0.00    -0.463 OA
BRANCH  18  20
ATOM     19  C   UNL     1      -7.442  -5.970  -4.355  0.00  0.00    +0.048 C 
ATOM     20  C   UNL     1      -7.186  -5.088  -3.132  0.00  0.00    +0.229 C 
ENDBRANCH  18  20
ENDBRANCH  16  18
ENDBRANCH   5  16
ENDBRANCH   1   6
BRANCH   2  21
ATOM     21  C   UNL     1      -4.411  -0.501  -4.305  0.00  0.00    +0.019 C 
BRANCH  21  22
ATOM     22  N   UNL     1      -5.214  -0.873  -5.478  0.00  0.00    +0.388 N 
ATOM     23  C   UNL     1      -5.175   0.216  -6.466  0.00  0.00    -0.073 C 
ATOM     24  C   UNL     1      -5.747  -0.304  -7.786  0.00  0.00    +0.017 C 
ATOM     25  C   UNL     1      -7.083  -0.959  -7.541  0.00  0.00    -0.044 A 
ATOM     26  C   UNL     1      -7.920  -1.183  -8.623  0.00  0.00    +0.053 A 
ATOM     27  C   UNL     1      -9.153  -1.784  -8.440  0.00  0.00    +0.162 A 
ATOM     28  C   UNL     1      -9.551  -2.164  -7.162  0.00  0.00    +0.162 A 
ATOM     29  C   UNL     1      -8.713  -1.937  -6.086  0.00  0.00    +0.051 A 
ATOM     30  C   UNL     1      -7.478  -1.332  -6.274  0.00  0.00    -0.057 A 
ATOM     31  C   UNL     1      -6.603  -1.098  -5.070  0.00  0.00    -0.042 C 
ATOM     32  H   UNL     1      -4.842  -1.716  -5.888  0.00  0.00    -0.081 HD
BRANCH  28  33
ATOM     33  O   UNL     1     -10.761  -2.757  -6.972  0.00  0.00    -0.491 OA
ATOM     34  C   UNL     1     -11.102  -3.120  -5.633  0.00  0.00    +0.277 C 
ENDBRANCH  28  33
BRANCH  27  35
ATOM     35  O   UNL     1      -9.971  -2.002  -9.505  0.00  0.00    -0.491 OA
ATOM     36  C   UNL     1      -9.495  -1.585 -10.786  0.00  0.00    +0.277 C 
ENDBRANCH  27  35
ENDBRANCH  21  22
ENDBRANCH   2  21
TORSDOF 8
