REMARK  Name = ZINC31044715
REMARK  10 active torsions:
REMARK  status: ('A' for Active; 'I' for Inactive)
REMARK    1  A    between atoms: C_1  and  C_2
REMARK    2  A    between atoms: C_5  and  C_8
REMARK    3  A    between atoms: C_8  and  S_9
REMARK    4  A    between atoms: S_9  and  C_10
REMARK    5  A    between atoms: C_10  and  C_11
REMARK    6  A    between atoms: C_11  and  N_12
REMARK    7  A    between atoms: C_13  and  C_15
REMARK    8  A    between atoms: N_20  and  C_22
REMARK    9  A    between atoms: C_22  and  C_23
REMARK   10  A    between atoms: C_25  and  C_28
REMARK                            x       y       z     vdW  Elec       q    Type
REMARK                         _______ _______ _______ _____ _____    ______ ____
ROOT
ATOM      1  C   UNL     1       0.162   0.960  -4.895  0.00  0.00    +0.058 C 
ATOM      2  C   UNL     1       0.179  -0.571  -4.906  0.00  0.00    +0.009 C 
ATOM      3  C   UNL     1       0.843  -1.056  -6.197  0.00  0.00    -0.018 C 
ATOM      4  C   UNL     1       0.084  -0.491  -7.400  0.00  0.00    -0.078 C 
ATOM      5  N   UNL     1       0.097   0.976  -7.343  0.00  0.00    +0.386 N 
ATOM      6  C   UNL     1      -0.578   1.467  -6.135  0.00  0.00    -0.065 C 
ATOM      7  H   UNL     1       1.147   1.300  -7.296  0.00  0.00    -0.081 HD
ENDROOT
BRANCH   1   9
ATOM      8  N   UNL     1      -0.067   1.120  -2.437  0.00  0.00    -0.314 N 
ATOM      9  C   UNL     1      -0.543   1.446  -3.655  0.00  0.00    +0.214 C 
ATOM     10  O   UNL     1      -1.540   2.130  -3.753  0.00  0.00    -0.276 OA
ATOM     11  H   UNL     1       0.837   0.499  -2.348  0.00  0.00    +0.149 HD
BRANCH   8  12
ATOM     12  C   UNL     1      -0.753   1.593  -1.232  0.00  0.00    +0.115 C 
BRANCH  12  13
ATOM     13  C   UNL     1      -0.013   1.086   0.008  0.00  0.00    +0.088 C 
BRANCH  13  14
ATOM     14  S   UNL     1      -0.862   1.671   1.500  0.00  0.00    -0.155 S 
BRANCH  14  15
ATOM     15  C   UNL     1       0.127   0.993   2.862  0.00  0.00    +0.104 C 
BRANCH  15  20
ATOM     16  C   UNL     1      -2.191   2.591   7.908  0.00  0.00    +0.044 C 
ATOM     17  C   UNL     1      -1.586   2.175   6.592  0.00  0.00    -0.050 A 
ATOM     18  C   UNL     1      -1.988   0.997   5.990  0.00  0.00    +0.003 A 
ATOM     19  C   UNL     1      -1.433   0.615   4.783  0.00  0.00    +0.005 A 
ATOM     20  C   UNL     1      -0.478   1.410   4.178  0.00  0.00    -0.038 A 
ATOM     21  C   UNL     1      -0.073   2.585   4.783  0.00  0.00    +0.005 A 
ATOM     22  C   UNL     1      -0.631   2.970   5.988  0.00  0.00    +0.003 A 
ENDBRANCH  15  20
ENDBRANCH  14  15
ENDBRANCH  13  14
ENDBRANCH  12  13
ENDBRANCH   8  12
ENDBRANCH   1   9
BRANCH   5  23
ATOM     23  C   UNL     1      -0.502   1.555  -8.553  0.00  0.00    +0.022 C 
BRANCH  23  24
ATOM     24  C   UNL     1       0.042   0.851  -9.770  0.00  0.00    +0.211 A 
ATOM     25  N   UNL     1      -0.459  -0.216 -10.341  0.00  0.00    -0.193 NA
ATOM     26  C   UNL     1       0.354  -0.483 -11.388  0.00  0.00    +0.202 A 
ATOM     27  N   UNL     1       1.296   0.424 -11.386  0.00  0.00    -0.056 NA
ATOM     28  O   UNL     1       1.131   1.196 -10.465  0.00  0.00    -0.340 OA
BRANCH  26  29
ATOM     29  C   UNL     1       0.207  -1.599 -12.354  0.00  0.00    +0.023 A 
ATOM     30  C   UNL     1      -0.850  -2.498 -12.229  0.00  0.00    +0.013 A 
ATOM     31  C   UNL     1      -0.986  -3.530 -13.134  0.00  0.00    +0.021 A 
ATOM     32  C   UNL     1      -0.067  -3.681 -14.159  0.00  0.00    +0.041 A 
ATOM     33  C   UNL     1       0.989  -2.794 -14.284  0.00  0.00    +0.021 A 
ATOM     34  C   UNL     1       1.129  -1.755 -13.387  0.00  0.00    +0.013 A 
ATOM     35 CL   UNL     1      -0.239  -4.986 -15.290  0.00  0.00    -0.084 Cl
ENDBRANCH  26  29
ENDBRANCH  23  24
ENDBRANCH   5  23
TORSDOF 9
