REMARK  Name = ZINC15885793
REMARK  10 active torsions:
REMARK  status: ('A' for Active; 'I' for Inactive)
REMARK    1  A    between atoms: C_1  and  C_2
REMARK    2  A    between atoms: C_2  and  C_3
REMARK    3  A    between atoms: C_2  and  C_4
REMARK    4  A    between atoms: C_7  and  N_10
REMARK    5  A    between atoms: N_10  and  C_11
REMARK    6  A    between atoms: C_11  and  N_13
REMARK    7  A    between atoms: N_13  and  N_14
REMARK    8  A    between atoms: C_15  and  C_17
REMARK    9  A    between atoms: N_20  and  S_23
REMARK   10  A    between atoms: S_23  and  C_26
REMARK                            x       y       z     vdW  Elec       q    Type
REMARK                         _______ _______ _______ _____ _____    ______ ____
ROOT
ATOM      1  N   UNL     1       1.162   1.627   0.023  0.00  0.00    -0.235 N 
ATOM      2  C   UNL     1       2.323   0.943   0.027  0.00  0.00    +0.232 C 
ATOM      3  O   UNL     1       2.340  -0.221   0.370  0.00  0.00    -0.274 OA
ATOM      4  H   UNL     1       1.149   2.558  -0.252  0.00  0.00    +0.173 HD
ENDROOT
BRANCH   2   5
ATOM      5  C   UNL     1       3.600   1.622  -0.395  0.00  0.00    +0.079 C 
ATOM      6  C   UNL     1       3.464   2.113  -1.838  0.00  0.00    +0.030 C 
ATOM      7  C   UNL     1       4.751   2.834  -2.251  0.00  0.00    +0.110 C 
ATOM      8  N   UNL     1       5.891   1.934  -2.025  0.00  0.00    -0.177 NA
ATOM      9  C   UNL     1       6.063   1.333  -0.695  0.00  0.00    +0.110 C 
ATOM     10  C   UNL     1       4.761   0.630  -0.299  0.00  0.00    +0.030 C 
BRANCH   8  11
ATOM     11  S   UNL     1       6.959   1.603  -3.246  0.00  0.00    +0.061 S 
ATOM     12  O   UNL     1       6.884   2.690  -4.157  0.00  0.00    -0.153 OA
ATOM     13  O   UNL     1       8.176   1.212  -2.625  0.00  0.00    -0.153 OA
BRANCH  11  14
ATOM     14  C   UNL     1       6.352   0.186  -4.100  0.00  0.00    +0.108 A 
ATOM     15  C   UNL     1       6.740  -1.080  -3.701  0.00  0.00    +0.031 A 
ATOM     16  C   UNL     1       6.260  -2.192  -4.366  0.00  0.00    +0.043 A 
ATOM     17  C   UNL     1       5.399  -2.040  -5.439  0.00  0.00    +0.159 A 
ATOM     18  C   UNL     1       5.015  -0.770  -5.842  0.00  0.00    +0.160 A 
ATOM     19  C   UNL     1       5.493   0.342  -5.171  0.00  0.00    +0.069 A 
ATOM     20  F   UNL     1       4.175  -0.619  -6.889  0.00  0.00    -0.202 F 
ATOM     21  F   UNL     1       4.934  -3.127  -6.092  0.00  0.00    -0.202 F 
ENDBRANCH  11  14
ENDBRANCH   8  11
ENDBRANCH   2   5
BRANCH   1  22
ATOM     22  N   UNL     1      -0.025   0.996   0.415  0.00  0.00    -0.246 N 
ATOM     23  H   UNL     1      -0.012   0.065   0.689  0.00  0.00    +0.172 HD
BRANCH  22  24
ATOM     24  C   UNL     1      -1.187   1.679   0.405  0.00  0.00    +0.151 C 
ATOM     25  S   UNL     1      -2.639   0.905   0.877  0.00  0.00    -0.017 S 
BRANCH  24  26
ATOM     26  N   UNL     1      -1.206   2.971   0.024  0.00  0.00    -0.296 N 
ATOM     27  H   UNL     1      -0.375   3.428  -0.184  0.00  0.00    +0.154 HD
BRANCH  26  31
ATOM     28  C   UNL     1      -4.829   5.006  -0.263  0.00  0.00    -0.045 A 
ATOM     29  C   UNL     1      -4.565   4.221   0.844  0.00  0.00    +0.006 A 
ATOM     30  C   UNL     1      -3.365   3.545   0.942  0.00  0.00    +0.023 A 
ATOM     31  C   UNL     1      -2.422   3.655  -0.072  0.00  0.00    +0.033 A 
ATOM     32  C   UNL     1      -2.688   4.450  -1.179  0.00  0.00    +0.023 A 
ATOM     33  C   UNL     1      -3.893   5.118  -1.274  0.00  0.00    +0.006 A 
BRANCH  28  35
ATOM     34  C   UNL     1      -5.875   7.246  -0.461  0.00  0.00    +0.012 C 
ATOM     35  C   UNL     1      -6.140   5.742  -0.366  0.00  0.00    +0.013 C 
ATOM     36  C   UNL     1      -6.889   5.277  -1.617  0.00  0.00    +0.012 C 
ENDBRANCH  28  35
ENDBRANCH  26  31
ENDBRANCH  24  26
ENDBRANCH  22  24
ENDBRANCH   1  22
TORSDOF 8
