REMARK  Name = ZINC03264652
REMARK  5 active torsions:
REMARK  status: ('A' for Active; 'I' for Inactive)
REMARK    1  A    between atoms: C_4  and  O_7
REMARK    2  A    between atoms: O_7  and  C_8
REMARK    3  A    between atoms: C_12  and  C_14
REMARK    4  A    between atoms: C_20  and  S_27
REMARK    5  A    between atoms: S_27  and  N_30
REMARK                            x       y       z     vdW  Elec       q    Type
REMARK                         _______ _______ _______ _____ _____    ______ ____
ROOT
ATOM      1  C   UNL     1      -0.776  -4.949   0.862  0.00  0.00    +0.191 C 
ATOM      2  N   UNL     1       0.045  -4.034   0.074  0.00  0.00    -0.322 N 
ATOM      3  C   UNL     1      -0.095  -2.649   0.118  0.00  0.00    +0.057 A 
ATOM      4  C   UNL     1       0.378  -1.892  -0.952  0.00  0.00    +0.047 A 
ATOM      5  C   UNL     1       0.282  -0.515  -0.925  0.00  0.00    +0.069 A 
ATOM      6  C   UNL     1      -0.275   0.123   0.170  0.00  0.00    +0.125 A 
ATOM      7  C   UNL     1      -0.753  -0.623   1.232  0.00  0.00    +0.060 A 
ATOM      8  C   UNL     1      -0.670  -1.999   1.201  0.00  0.00    +0.128 A 
ATOM      9  S   UNL     1      -1.315  -2.950   2.545  0.00  0.00    +0.062 S 
ATOM     10  O   UNL     1      -0.675  -2.487   3.726  0.00  0.00    -0.153 OA
ATOM     11  O   UNL     1      -2.728  -2.975   2.394  0.00  0.00    -0.153 OA
ATOM     12  N   UNL     1      -0.767  -4.501   2.269  0.00  0.00    -0.166 NA
ATOM     13 CL   UNL     1       0.867   0.420  -2.266  0.00  0.00    -0.081 Cl
ATOM     14  H   UNL     1       0.723  -4.410  -0.509  0.00  0.00    +0.148 HD
ATOM     15  H   UNL     1      -0.462  -5.074   2.990  0.00  0.00    +0.150 HD
ENDROOT
BRANCH   1  20
ATOM     16  C   UNL     1      -3.724  -4.688  -1.488  0.00  0.00    +0.129 A 
ATOM     17  C   UNL     1      -4.785  -4.930  -0.626  0.00  0.00    +0.046 A 
ATOM     18  C   UNL     1      -4.543  -5.178   0.712  0.00  0.00    +0.004 A 
ATOM     19  C   UNL     1      -3.246  -5.189   1.191  0.00  0.00    +0.007 A 
ATOM     20  C   UNL     1      -2.188  -4.942   0.335  0.00  0.00    -0.008 A 
ATOM     21  C   UNL     1      -2.424  -4.694  -1.003  0.00  0.00    +0.053 A 
BRANCH  16  22
ATOM     22  O   UNL     1      -3.959  -4.443  -2.804  0.00  0.00    -0.456 OA
BRANCH  22  26
ATOM     23  C   UNL     1      -5.895  -0.942  -3.808  0.00  0.00    +0.000 A 
ATOM     24  C   UNL     1      -5.619  -1.882  -4.784  0.00  0.00    +0.004 A 
ATOM     25  C   UNL     1      -4.971  -3.056  -4.450  0.00  0.00    +0.046 A 
ATOM     26  C   UNL     1      -4.596  -3.290  -3.135  0.00  0.00    +0.128 A 
ATOM     27  C   UNL     1      -4.878  -2.346  -2.157  0.00  0.00    +0.046 A 
ATOM     28  C   UNL     1      -5.522  -1.173  -2.497  0.00  0.00    +0.004 A 
ENDBRANCH  22  26
ENDBRANCH  16  22
ENDBRANCH   1  20
BRANCH   6  29
ATOM     29  S   UNL     1      -0.380   1.882   0.208  0.00  0.00    +0.057 S 
ATOM     30  O   UNL     1      -0.937   2.282  -1.037  0.00  0.00    -0.153 OA
ATOM     31  O   UNL     1      -0.972   2.226   1.453  0.00  0.00    -0.153 OA
BRANCH  29  32
ATOM     32  N   UNL     1       1.169   2.465   0.242  0.00  0.00    -0.203 NA
ATOM     33  H   UNL     1       1.919   1.849   0.239  0.00  0.00    +0.144 HD
ATOM     34  H   UNL     1       1.327   3.421   0.266  0.00  0.00    +0.144 HD
ENDBRANCH  29  32
ENDBRANCH   6  29
TORSDOF 5
