REMARK  Name = ZINC02050236
REMARK  10 active torsions:
REMARK  status: ('A' for Active; 'I' for Inactive)
REMARK    1  A    between atoms: C_1  and  O_2
REMARK    2  A    between atoms: O_2  and  C_3
REMARK    3  A    between atoms: C_6  and  C_9
REMARK    4  A    between atoms: N_11  and  C_12
REMARK    5  A    between atoms: C_12  and  C_13
REMARK    6  A    between atoms: C_12  and  C_17
REMARK    7  A    between atoms: C_12  and  N_21
REMARK    8  A    between atoms: C_13  and  O_15
REMARK    9  A    between atoms: O_15  and  C_16
REMARK   10  A    between atoms: N_21  and  C_22
REMARK                            x       y       z     vdW  Elec       q    Type
REMARK                         _______ _______ _______ _____ _____    ______ ____
ROOT
ATOM      1  C   UNL     1      -1.387   2.117  -0.032  0.00  0.00    +0.296 C 
ENDROOT
BRANCH   1   4
ATOM      2  C   UNL     1      -0.997   4.484   0.393  0.00  0.00    +0.246 C 
ATOM      3  O   UNL     1      -0.398   4.175   1.405  0.00  0.00    -0.270 OA
ATOM      4  N   UNL     1      -1.491   3.526  -0.416  0.00  0.00    -0.274 N 
ATOM      5  H   UNL     1      -1.916   3.771  -1.254  0.00  0.00    +0.152 HD
BRANCH   2   9
ATOM      6  C   UNL     1      -1.532   8.581  -0.590  0.00  0.00    +0.120 A 
ATOM      7  C   UNL     1      -0.847   8.229   0.567  0.00  0.00    +0.046 A 
ATOM      8  C   UNL     1      -0.671   6.902   0.889  0.00  0.00    +0.016 A 
ATOM      9  C   UNL     1      -1.183   5.908   0.051  0.00  0.00    +0.037 A 
ATOM     10  C   UNL     1      -1.866   6.265  -1.114  0.00  0.00    +0.016 A 
ATOM     11  C   UNL     1      -2.043   7.595  -1.426  0.00  0.00    +0.046 A 
BRANCH   6  13
ATOM     12  C   UNL     1      -2.416  10.180  -2.108  0.00  0.00    +0.277 C 
ATOM     13  O   UNL     1      -1.703   9.890  -0.904  0.00  0.00    -0.495 OA
ENDBRANCH   6  13
ENDBRANCH   2   9
ENDBRANCH   1   4
BRANCH   1  14
ATOM     14  C   UNL     1      -2.174   1.880   1.258  0.00  0.00    +0.438 C 
ATOM     15  F   UNL     1      -1.564   2.572   2.310  0.00  0.00    -0.166 F 
ATOM     16  F   UNL     1      -3.485   2.340   1.095  0.00  0.00    -0.166 F 
ATOM     17  F   UNL     1      -2.192   0.511   1.549  0.00  0.00    -0.166 F 
ENDBRANCH   1  14
BRANCH   1  18
ATOM     18  C   UNL     1       0.061   1.763   0.190  0.00  0.00    +0.359 C 
ATOM     19  O   UNL     1       0.917   2.603   0.048  0.00  0.00    -0.246 OA
BRANCH  18  20
ATOM     20  O   UNL     1       0.400   0.512   0.541  0.00  0.00    -0.465 OA
ATOM     21  C   UNL     1       1.813   0.241   0.733  0.00  0.00    +0.280 C 
ENDBRANCH  18  20
ENDBRANCH   1  18
BRANCH   1  22
ATOM     22  N   UNL     1      -1.936   1.278  -1.100  0.00  0.00    -0.294 N 
ATOM     23  H   UNL     1      -2.586   0.588  -0.890  0.00  0.00    +0.150 HD
BRANCH  22  24
ATOM     24  C   UNL     1      -1.527   1.469  -2.415  0.00  0.00    +0.098 A 
ATOM     25  C   UNL     1      -0.468   2.329  -2.689  0.00  0.00    +0.042 A 
ATOM     26  C   UNL     1      -0.067   2.507  -4.001  0.00  0.00    +0.020 A 
ATOM     27  C   UNL     1      -0.749   1.823  -5.000  0.00  0.00    +0.034 A 
ATOM     28  C   UNL     1      -1.795   0.989  -4.657  0.00  0.00    +0.099 A 
ATOM     29 BR   UNL     1      -0.249   2.033  -6.812  0.00  0.00    -0.049 Br
ATOM     30  N   UNL     1      -2.212   0.787  -3.378  0.00  0.00    -0.349 N 
ATOM     31  H   UNL     1      -2.993   0.161  -3.152  0.00  0.00    +0.167 HD
ENDBRANCH  22  24
ENDBRANCH   1  22
TORSDOF 8
