REMARK  Name = ZINC14182733
REMARK  9 active torsions:
REMARK  status: ('A' for Active; 'I' for Inactive)
REMARK    1  A    between atoms: C_6  and  C_7
REMARK    2  A    between atoms: C_7  and  C_8
REMARK    3  A    between atoms: C_7  and  N_30
REMARK    4  A    between atoms: C_8  and  N_9
REMARK    5  A    between atoms: C_10  and  C_12
REMARK    6  A    between atoms: C_12  and  C_13
REMARK    7  A    between atoms: C_13  and  S_14
REMARK    8  A    between atoms: S_14  and  C_15
REMARK    9  A    between atoms: C_15  and  C_16
REMARK                            x       y       z     vdW  Elec       q    Type
REMARK                         _______ _______ _______ _____ _____    ______ ____
ROOT
ATOM      1  N   UNL     1      -2.900  -2.122   1.270  0.00  0.00    -0.313 N 
ATOM      2  C   UNL     1      -3.417  -2.725   2.358  0.00  0.00    +0.214 C 
ATOM      3  O   UNL     1      -2.855  -2.631   3.428  0.00  0.00    -0.276 OA
ATOM      4  H   UNL     1      -3.349  -2.197   0.413  0.00  0.00    +0.149 HD
ENDROOT
BRANCH   1   5
ATOM      5  C   UNL     1      -1.659  -1.351   1.379  0.00  0.00    +0.127 C 
BRANCH   5   6
ATOM      6  C   UNL     1      -1.293  -0.775   0.010  0.00  0.00    +0.104 C 
BRANCH   6  12
ATOM      7  C   UNL     1       1.117  -0.731   0.685  0.00  0.00    +0.008 A 
ATOM      8  C   UNL     1       2.344  -0.101   0.764  0.00  0.00    +0.038 A 
ATOM      9  C   UNL     1       2.500   1.176   0.253  0.00  0.00    +0.123 A 
ATOM     10  C   UNL     1       1.426   1.821  -0.336  0.00  0.00    +0.038 A 
ATOM     11  C   UNL     1       0.200   1.189  -0.414  0.00  0.00    +0.008 A 
ATOM     12  C   UNL     1       0.045  -0.086   0.096  0.00  0.00    -0.029 A 
ATOM     13  F   UNL     1       3.700   1.794   0.330  0.00  0.00    -0.205 F 
ENDBRANCH   6  12
BRANCH   6  14
ATOM     14  N   UNL     1      -1.222  -1.861  -0.976  0.00  0.00    -0.290 NA
ATOM     15  C   UNL     1      -0.178  -2.832  -0.616  0.00  0.00    +0.113 C 
ATOM     16  C   UNL     1      -0.179  -3.975  -1.634  0.00  0.00    +0.175 C 
ATOM     17  O   UNL     1       0.009  -3.438  -2.947  0.00  0.00    -0.377 OA
ATOM     18  C   UNL     1      -0.991  -2.490  -3.330  0.00  0.00    +0.175 C 
ATOM     19  C   UNL     1      -0.998  -1.332  -2.329  0.00  0.00    +0.113 C 
ENDBRANCH   6  14
ENDBRANCH   5   6
ENDBRANCH   1   5
BRANCH   2  20
ATOM     20  C   UNL     1      -4.694  -3.518   2.244  0.00  0.00    +0.106 C 
BRANCH  20  21
ATOM     21  C   UNL     1      -5.059  -4.095   3.614  0.00  0.00    +0.079 C 
BRANCH  21  22
ATOM     22  S   UNL     1      -6.596  -5.048   3.478  0.00  0.00    -0.153 S 
BRANCH  22  23
ATOM     23  C   UNL     1      -6.887  -5.655   5.162  0.00  0.00    +0.143 C 
BRANCH  23  24
ATOM     24  C   UNL     1      -8.151  -6.475   5.189  0.00  0.00    +0.121 A 
ATOM     25  N   UNL     1      -8.563  -7.025   6.361  0.00  0.00    -0.310 N 
ATOM     26  H   UNL     1      -8.038  -6.882   7.163  0.00  0.00    +0.170 HD
ATOM     27  C   UNL     1      -9.686  -7.764   6.430  0.00  0.00    +0.260 A 
ATOM     28  O   UNL     1     -10.044  -8.252   7.488  0.00  0.00    -0.267 OA
ATOM     29  C   UNL     1     -10.453  -7.967   5.237  0.00  0.00    +0.075 A 
ATOM     30  C   UNL     1     -11.700  -8.730   5.079  0.00  0.00    -0.023 A 
ATOM     31  C   UNL     1     -12.233  -8.774   3.845  0.00  0.00    -0.004 A 
ATOM     32  S   UNL     1     -11.129  -7.815   2.833  0.00  0.00    -0.073 S 
ATOM     33  C   UNL     1      -9.950  -7.361   4.078  0.00  0.00    +0.116 A 
ATOM     34  N   UNL     1      -8.833  -6.638   4.087  0.00  0.00    -0.226 NA
ATOM     35  C   UNL     1     -13.501  -9.585   3.803  0.00  0.00    +0.043 C 
ATOM     36  C   UNL     1     -13.474 -10.415   5.105  0.00  0.00    +0.010 C 
ATOM     37  C   UNL     1     -12.601  -9.533   6.021  0.00  0.00    +0.037 C 
ENDBRANCH  23  24
ENDBRANCH  22  23
ENDBRANCH  21  22
ENDBRANCH  20  21
ENDBRANCH   2  20
TORSDOF 9
