REMARK  Name = ZINC06070256
REMARK  10 active torsions:
REMARK  status: ('A' for Active; 'I' for Inactive)
REMARK    1  A    between atoms: C_1  and  C_2
REMARK    2  A    between atoms: C_6  and  O_8
REMARK    3  A    between atoms: C_13  and  C_22
REMARK    4  A    between atoms: C_14  and  O_20
REMARK    5  A    between atoms: O_20  and  C_21
REMARK    6  A    between atoms: C_22  and  C_24
REMARK    7  A    between atoms: C_22  and  O_28
REMARK    8  A    between atoms: C_24  and  C_25
REMARK    9  A    between atoms: C_25  and  C_26
REMARK   10  A    between atoms: C_25  and  C_27
REMARK                            x       y       z     vdW  Elec       q    Type
REMARK                         _______ _______ _______ _____ _____    ______ ____
ROOT
ATOM      1  C   UNL     1      -0.259   1.280   1.168  0.00  0.00    +0.044 C 
ATOM      2  C   UNL     1      -0.219  -0.213   0.968  0.00  0.00    -0.046 A 
ATOM      3  C   UNL     1      -0.226  -0.737  -0.313  0.00  0.00    +0.014 A 
ATOM      4  C   UNL     1      -0.166  -2.096  -0.503  0.00  0.00    +0.036 A 
ATOM      5  C   UNL     1      -0.043  -2.950   0.608  0.00  0.00    +0.176 A 
ATOM      6  C   UNL     1      -0.093  -2.427   1.886  0.00  0.00    +0.160 A 
ATOM      7  C   UNL     1      -0.170  -1.053   2.065  0.00  0.00    +0.052 A 
ATOM      8  O   UNL     1       0.262  -4.255   0.363  0.00  0.00    -0.451 OA
ATOM      9  C   UNL     1      -0.644  -4.996  -0.325  0.00  0.00    +0.146 A 
ATOM     10  C   UNL     1      -1.794  -5.480   0.269  0.00  0.00    +0.048 A 
ATOM     11  C   UNL     1      -2.688  -6.232  -0.475  0.00  0.00    +0.013 A 
ATOM     12  C   UNL     1      -2.447  -6.507  -1.808  0.00  0.00    +0.024 A 
ATOM     13  C   UNL     1      -1.297  -6.030  -2.425  0.00  0.00    +0.143 A 
ATOM     14  C   UNL     1      -0.394  -5.272  -1.681  0.00  0.00    +0.143 A 
ATOM     15  C   UNL     1       0.850  -4.723  -2.270  0.00  0.00    +0.347 C 
ATOM     16  O   UNL     1       1.715  -5.428  -2.752  0.00  0.00    -0.245 OA
ATOM     17  O   UNL     1       0.947  -3.357  -2.227  0.00  0.00    -0.456 OA
ATOM     18  C   UNL     1      -0.296  -2.722  -1.870  0.00  0.00    +0.271 C 
ENDROOT
BRANCH   6  19
ATOM     19  O   UNL     1      -0.061  -3.255   2.964  0.00  0.00    -0.503 OA
ATOM     20  H   UNL     1       0.830  -3.443   3.289  0.00  0.00    +0.292 HD
ENDBRANCH   6  19
BRANCH  13  21
ATOM     21  O   UNL     1      -1.057  -6.297  -3.733  0.00  0.00    -0.494 OA
ATOM     22  C   UNL     1      -0.343  -7.499  -4.029  0.00  0.00    +0.277 C 
ENDBRANCH  13  21
BRANCH  12  23
ATOM     23  C   UNL     1      -3.436  -7.327  -2.596  0.00  0.00    +0.148 C 
BRANCH  23  24
ATOM     24  O   UNL     1      -4.169  -8.172  -1.707  0.00  0.00    -0.387 OA
ATOM     25  H   UNL     1      -4.669  -7.693  -1.032  0.00  0.00    +0.210 HD
ENDBRANCH  23  24
BRANCH  23  26
ATOM     26  C   UNL     1      -4.404  -6.395  -3.328  0.00  0.00    +0.039 C 
BRANCH  26  27
ATOM     27  C   UNL     1      -5.359  -7.225  -4.188  0.00  0.00    -0.014 C 
ATOM     28  C   UNL     1      -6.404  -6.305  -4.822  0.00  0.00    +0.007 C 
ATOM     29  C   UNL     1      -4.567  -7.933  -5.290  0.00  0.00    +0.007 C 
ENDBRANCH  26  27
ENDBRANCH  23  26
ENDBRANCH  12  23
TORSDOF 6
