REMARK  Name = ZINC38974933
REMARK  8 active torsions:
REMARK  status: ('A' for Active; 'I' for Inactive)
REMARK    1  A    between atoms: C_1  and  C_2
REMARK    2  A    between atoms: C_2  and  C_3
REMARK    3  A    between atoms: C_3  and  C_5
REMARK    4  A    between atoms: C_3  and  C_6
REMARK    5  A    between atoms: C_9  and  N_12
REMARK    6  A    between atoms: N_12  and  C_13
REMARK    7  A    between atoms: N_16  and  S_17
REMARK    8  A    between atoms: S_17  and  C_20
REMARK                            x       y       z     vdW  Elec       q    Type
REMARK                         _______ _______ _______ _____ _____    ______ ____
ROOT
ATOM      1  C   UNL     1      -0.116  -6.828   2.646  0.00  0.00    +0.237 C 
ATOM      2  C   UNL     1      -1.054  -7.921   2.187  0.00  0.00    +0.192 C 
ATOM      3  N   UNL     1      -2.076  -7.640   1.433  0.00  0.00    -0.110 NA
ATOM      4  N   UNL     1      -0.817  -9.186   2.569  0.00  0.00    -0.226 NA
ATOM      5  C   UNL     1       0.211  -9.496   3.331  0.00  0.00    +0.089 A 
ATOM      6  C   UNL     1       0.431 -10.843   3.715  0.00  0.00    +0.030 A 
ATOM      7  C   UNL     1       1.484 -11.167   4.497  0.00  0.00    +0.002 A 
ATOM      8  C   UNL     1       2.402 -10.213   4.968  0.00  0.00    +0.002 A 
ATOM      9  C   UNL     1       2.285  -8.903   4.662  0.00  0.00    +0.027 A 
ATOM     10  C   UNL     1       1.166  -8.468   3.813  0.00  0.00    +0.063 A 
ATOM     11  N   UNL     1       1.021  -7.212   3.497  0.00  0.00    -0.359 N 
ATOM     12  H   UNL     1       1.650  -6.546   3.815  0.00  0.00    +0.162 HD
ENDROOT
BRANCH   3  13
ATOM     13  S   UNL     1      -3.096  -8.847   0.937  0.00  0.00    +0.103 S 
ATOM     14  O   UNL     1      -2.342  -9.687   0.074  0.00  0.00    -0.146 OA
ATOM     15  O   UNL     1      -3.743  -9.337   2.104  0.00  0.00    -0.146 OA
BRANCH  13  16
ATOM     16  C   UNL     1      -4.345  -8.098  -0.054  0.00  0.00    +0.141 A 
ATOM     17  C   UNL     1      -4.441  -8.408  -1.369  0.00  0.00    +0.031 A 
ATOM     18  C   UNL     1      -5.417  -7.835  -2.184  0.00  0.00    +0.004 A 
ATOM     19  C   UNL     1      -6.312  -6.944  -1.696  0.00  0.00    +0.031 A 
ATOM     20  C   UNL     1      -6.272  -6.571  -0.325  0.00  0.00    +0.102 A 
ATOM     21  C   UNL     1      -5.255  -7.174   0.528  0.00  0.00    +0.127 A 
ATOM     22  N   UNL     1      -5.316  -6.755   1.793  0.00  0.00    -0.189 NA
ATOM     23  S   UNL     1      -6.545  -5.719   1.849  0.00  0.00    +0.117 S 
ATOM     24  N   UNL     1      -7.064  -5.718   0.326  0.00  0.00    -0.191 NA
ENDBRANCH  13  16
ENDBRANCH   3  13
BRANCH   1  25
ATOM     25  N   UNL     1       0.420  -6.169   1.453  0.00  0.00    -0.318 N 
ATOM     26  H   UNL     1       0.816  -6.698   0.743  0.00  0.00    +0.148 HD
BRANCH  25  30
ATOM     27  C   UNL     1       0.249  -2.022   1.110  0.00  0.00    -0.044 A 
ATOM     28  C   UNL     1      -0.097  -2.631   2.303  0.00  0.00    +0.006 A 
ATOM     29  C   UNL     1      -0.042  -4.006   2.420  0.00  0.00    +0.023 A 
ATOM     30  C   UNL     1       0.363  -4.778   1.338  0.00  0.00    +0.029 A 
ATOM     31  C   UNL     1       0.710  -4.163   0.141  0.00  0.00    +0.023 A 
ATOM     32  C   UNL     1       0.647  -2.788   0.029  0.00  0.00    +0.006 A 
BRANCH  27  33
ATOM     33  C   UNL     1       0.188  -0.522   0.986  0.00  0.00    +0.016 C 
ATOM     34  C   UNL     1      -1.243  -0.047   1.249  0.00  0.00    +0.012 C 
BRANCH  33  36
ATOM     35  C   UNL     1       1.164   1.629   1.800  0.00  0.00    +0.004 C 
ATOM     36  C   UNL     1       1.132   0.114   2.009  0.00  0.00    +0.004 C 
ENDBRANCH  33  36
ENDBRANCH  27  33
ENDBRANCH  25  30
ENDBRANCH   1  25
TORSDOF 6
