REMARK  Name = ZINC36365136
REMARK  1 active torsions:
REMARK  status: ('A' for Active; 'I' for Inactive)
REMARK    1  A    between atoms: C_9  and  N_14
REMARK                            x       y       z     vdW  Elec       q    Type
REMARK                         _______ _______ _______ _____ _____    ______ ____
ROOT
ATOM      1  C   UNL     1      -0.017   1.371   0.010  0.00  0.00    +0.000 A 
ATOM      2  C   UNL     1       1.179   2.068   0.002  0.00  0.00    +0.002 A 
ATOM      3  C   UNL     1       2.365   1.376  -0.017  0.00  0.00    +0.023 A 
ATOM      4  C   UNL     1       2.396  -0.029  -0.024  0.00  0.00    +0.037 A 
ATOM      5  C   UNL     1       1.202  -0.717  -0.011  0.00  0.00    -0.026 A 
ATOM      6  C   UNL     1       0.002  -0.004   0.002  0.00  0.00    +0.005 A 
ATOM      7  C   UNL     1       1.065  -2.205  -0.003  0.00  0.00    +0.039 C 
ATOM      8  C   UNL     1       2.104  -2.950   0.776  0.00  0.00    +0.039 C 
ATOM      9  C   UNL     1       3.426  -3.066   0.057  0.00  0.00    +0.178 C 
ATOM     10  C   UNL     1       4.164  -1.776   0.040  0.00  0.00    +0.240 C 
ATOM     11  O   UNL     1       5.372  -1.843   0.129  0.00  0.00    -0.273 OA
ATOM     12  N   UNL     1       3.656  -0.580  -0.060  0.00  0.00    -0.284 N 
ATOM     13  H   UNL     1       4.340   0.093  -0.196  0.00  0.00    +0.155 HD
ENDROOT
BRANCH   9  14
ATOM     14  N   UNL     1       4.248  -4.074   0.731  0.00  0.00    -0.286 N 
ATOM     15  C   UNL     1       4.589  -3.920   2.038  0.00  0.00    +0.203 A 
ATOM     16  N   UNL     1       5.312  -4.775   2.688  0.00  0.00    -0.236 NA
ATOM     17  C   UNL     1       5.795  -5.917   2.097  0.00  0.00    +0.085 A 
ATOM     18  C   UNL     1       6.582  -6.928   2.664  0.00  0.00    +0.036 A 
ATOM     19  C   UNL     1       6.966  -7.988   1.921  0.00  0.00    +0.048 A 
ATOM     20  S   UNL     1       6.233  -7.640   0.330  0.00  0.00    -0.090 S 
ATOM     21  C   UNL     1       5.456  -6.100   0.745  0.00  0.00    +0.102 A 
ATOM     22  C   UNL     1       4.672  -5.172   0.059  0.00  0.00    +0.269 A 
ATOM     23  O   UNL     1       4.380  -5.341  -1.112  0.00  0.00    -0.266 OA
ENDBRANCH   9  14
TORSDOF 1
