REMARK  Name = ZINC63384345
REMARK  11 active torsions:
REMARK  status: ('A' for Active; 'I' for Inactive)
REMARK    1  A    between atoms: C_1  and  C_2
REMARK    2  A    between atoms: C_2  and  C_3
REMARK    3  A    between atoms: C_3  and  C_5
REMARK    4  A    between atoms: C_3  and  N_6
REMARK    5  A    between atoms: C_7  and  C_9
REMARK    6  A    between atoms: C_9  and  C_11
REMARK    7  A    between atoms: C_9  and  N_15
REMARK    8  A    between atoms: C_11  and  C_12
REMARK    9  A    between atoms: C_12  and  S_13
REMARK   10  A    between atoms: S_13  and  C_14
REMARK   11  A    between atoms: C_16  and  C_18
REMARK                            x       y       z     vdW  Elec       q    Type
REMARK                         _______ _______ _______ _____ _____    ______ ____
ROOT
ATOM      1  C   UNL     1      -7.922   0.283  -3.129  0.00  0.00    +0.167 C 
ATOM      2  C   UNL     1      -8.335  -0.830  -2.146  0.00  0.00    +0.065 C 
ATOM      3  C   UNL     1      -9.255  -1.761  -2.895  0.00  0.00    -0.034 C 
ATOM      4  C   UNL     1     -10.462  -2.221  -2.578  0.00  0.00    -0.001 A 
ATOM      5  C   UNL     1     -11.278  -2.066  -1.363  0.00  0.00    +0.010 A 
ATOM      6  C   UNL     1     -12.498  -2.667  -1.381  0.00  0.00    +0.001 A 
ATOM      7  C   UNL     1     -12.979  -3.398  -2.471  0.00  0.00    +0.002 A 
ATOM      8  C   UNL     1     -12.293  -3.598  -3.624  0.00  0.00    +0.026 A 
ATOM      9  C   UNL     1     -10.995  -3.018  -3.723  0.00  0.00    +0.043 A 
ATOM     10  N   UNL     1     -10.124  -3.065  -4.688  0.00  0.00    -0.375 N 
ATOM     11  C   UNL     1      -8.919  -2.355  -4.256  0.00  0.00    +0.131 C 
ATOM     12  C   UNL     1      -8.573  -1.193  -5.185  0.00  0.00    +0.134 C 
ATOM     13  N   UNL     1      -8.626   0.056  -4.398  0.00  0.00    -0.276 N 
ATOM     14  C   UNL     1      -9.433   0.929  -5.031  0.00  0.00    +0.248 C 
ATOM     15  O   UNL     1      -9.592   2.090  -4.710  0.00  0.00    -0.270 OA
ATOM     16  C   UNL     1     -10.091   0.273  -6.163  0.00  0.00    +0.042 A 
ATOM     17  C   UNL     1      -9.570  -1.054  -6.288  0.00  0.00    -0.013 A 
ATOM     18  C   UNL     1      -9.989  -1.929  -7.265  0.00  0.00    +0.006 A 
ATOM     19  C   UNL     1     -10.949  -1.465  -8.160  0.00  0.00    +0.000 A 
ATOM     20  C   UNL     1     -11.461  -0.186  -8.079  0.00  0.00    +0.001 A 
ATOM     21  C   UNL     1     -11.057   0.745  -7.056  0.00  0.00    +0.013 A 
ATOM     22  H   UNL     1     -10.252  -3.496  -5.548  0.00  0.00    +0.160 HD
ENDROOT
BRANCH   1  24
ATOM     23  N   UNL     1      -5.587   0.404  -2.322  0.00  0.00    -0.302 N 
ATOM     24  C   UNL     1      -6.433   0.234  -3.357  0.00  0.00    +0.235 C 
ATOM     25  O   UNL     1      -5.997   0.042  -4.472  0.00  0.00    -0.274 OA
ATOM     26  H   UNL     1      -5.936   0.558  -1.431  0.00  0.00    +0.150 HD
BRANCH  23  27
ATOM     27  C   UNL     1      -4.140   0.357  -2.544  0.00  0.00    +0.160 C 
BRANCH  27  29
ATOM     28  N   UNL     1      -2.105  -0.148  -1.230  0.00  0.00    -0.311 N 
ATOM     29  C   UNL     1      -3.448  -0.040  -1.265  0.00  0.00    +0.234 C 
ATOM     30  O   UNL     1      -4.100  -0.261  -0.267  0.00  0.00    -0.274 OA
ATOM     31  H   UNL     1      -1.584   0.029  -2.029  0.00  0.00    +0.149 HD
BRANCH  28  32
ATOM     32  C   UNL     1      -1.433  -0.534   0.013  0.00  0.00    +0.070 C 
ATOM     33  C   UNL     1      -1.413  -2.059   0.130  0.00  0.00    +0.028 C 
BRANCH  32  35
ATOM     34  C   UNL     1      -0.019   1.526   0.010  0.00  0.00    +0.005 C 
ATOM     35  C   UNL     1       0.002  -0.004   0.002  0.00  0.00    +0.018 C 
ENDBRANCH  32  35
ENDBRANCH  28  32
ENDBRANCH  27  29
BRANCH  27  36
ATOM     36  C   UNL     1      -3.646   1.736  -2.984  0.00  0.00    +0.042 C 
BRANCH  36  37
ATOM     37  C   UNL     1      -4.252   2.085  -4.345  0.00  0.00    +0.071 C 
BRANCH  37  38
ATOM     38  S   UNL     1      -3.667   3.720  -4.867  0.00  0.00    -0.164 S 
ATOM     39  C   UNL     1      -4.466   3.980  -6.475  0.00  0.00    +0.084 C 
ENDBRANCH  37  38
ENDBRANCH  36  37
ENDBRANCH  27  36
ENDBRANCH  23  27
ENDBRANCH   1  24
TORSDOF 8
