REMARK  Name = ZINC43427676
REMARK  3 active torsions:
REMARK  status: ('A' for Active; 'I' for Inactive)
REMARK    1  A    between atoms: C_1  and  C_2
REMARK    2  A    between atoms: C_4  and  C_21
REMARK    3  A    between atoms: C_7  and  C_8
REMARK                            x       y       z     vdW  Elec       q    Type
REMARK                         _______ _______ _______ _____ _____    ______ ____
ROOT
ATOM      1  C   UNL     1      -2.463  -0.463  -1.194  0.00  0.00    +0.045 C 
ATOM      2  C   UNL     1      -1.177  -0.953  -0.580  0.00  0.00    -0.028 A 
ATOM      3  C   UNL     1       0.042  -0.679  -1.174  0.00  0.00    +0.027 A 
ATOM      4  C   UNL     1       1.206  -1.142  -0.586  0.00  0.00    +0.041 A 
ATOM      5  N   UNL     1       1.175  -1.841   0.532  0.00  0.00    -0.236 NA
ATOM      6  C   UNL     1       0.037  -2.132   1.142  0.00  0.00    +0.140 A 
ATOM      7  C   UNL     1      -1.187  -1.692   0.609  0.00  0.00    +0.094 A 
ATOM      8  N   UNL     1       0.053  -2.869   2.313  0.00  0.00    -0.306 N 
ATOM      9  C   UNL     1       0.153  -2.241   3.651  0.00  0.00    +0.135 C 
ATOM     10  C   UNL     1       1.226  -2.930   4.492  0.00  0.00    +0.179 C 
ATOM     11  O   UNL     1       1.136  -4.364   4.408  0.00  0.00    -0.373 OA
ATOM     12  C   UNL     1       1.250  -4.804   3.073  0.00  0.00    +0.139 C 
ATOM     13  C   UNL     1      -0.035  -4.323   2.328  0.00  0.00    +0.104 C 
ATOM     14  C   UNL     1       0.049  -5.049   0.993  0.00  0.00    +0.025 C 
ATOM     15  C   UNL     1       0.794  -6.375   1.296  0.00  0.00    +0.004 C 
ATOM     16  C   UNL     1       1.221  -6.306   2.797  0.00  0.00    +0.033 C 
ATOM     17  C   UNL     1       2.532  -0.843  -1.236  0.00  0.00    +0.065 C 
ENDROOT
BRANCH   7  18
ATOM     18  C   UNL     1      -2.421  -1.998   1.267  0.00  0.00    +0.103 C 
ATOM     19  N   UNL     1      -3.400  -2.240   1.790  0.00  0.00    -0.191 NA
ENDBRANCH   7  18
TORSDOF 1
