REMARK  Name = ZINC13620886
REMARK  11 active torsions:
REMARK  status: ('A' for Active; 'I' for Inactive)
REMARK    1  A    between atoms: C_1  and  C_2
REMARK    2  A    between atoms: C_2  and  O_3
REMARK    3  A    between atoms: O_3  and  C_4
REMARK    4  A    between atoms: C_7  and  C_10
REMARK    5  A    between atoms: C_11  and  C_12
REMARK    6  A    between atoms: N_14  and  C_15
REMARK    7  A    between atoms: C_15  and  N_17
REMARK    8  A    between atoms: N_17  and  C_18
REMARK    9  A    between atoms: C_19  and  C_25
REMARK   10  A    between atoms: C_20  and  C_24
REMARK   11  A    between atoms: C_21  and  C_23
REMARK                            x       y       z     vdW  Elec       q    Type
REMARK                         _______ _______ _______ _____ _____    ______ ____
ROOT
ATOM      1  C   UNL     1       1.196  -2.010  -0.020  0.00  0.00    +0.141 C 
ATOM      2  S   UNL     1      -0.274  -2.886  -0.011  0.00  0.00    -0.018 S 
ENDROOT
BRANCH   1   5
ATOM      3  C   UNL     1       0.002  -0.004   0.002  0.00  0.00    +0.242 C 
ATOM      4  O   UNL     1      -1.044  -0.627   0.009  0.00  0.00    -0.270 OA
ATOM      5  N   UNL     1       1.178  -0.662  -0.013  0.00  0.00    -0.264 N 
ATOM      6  H   UNL     1       2.012  -0.166  -0.018  0.00  0.00    +0.157 HD
BRANCH   3   8
ATOM      7  C   UNL     1      -1.196   2.116   0.019  0.00  0.00    +0.013 C 
ATOM      8  C   UNL     1      -0.018   1.457   0.010  0.00  0.00    +0.068 C 
BRANCH   7  12
ATOM      9  C   UNL     1      -1.254   6.357   0.043  0.00  0.00    +0.121 A 
ATOM     10  C   UNL     1      -2.450   5.648   0.045  0.00  0.00    +0.046 A 
ATOM     11  C   UNL     1      -2.437   4.272   0.037  0.00  0.00    +0.011 A 
ATOM     12  C   UNL     1      -1.216   3.586   0.027  0.00  0.00    -0.025 A 
ATOM     13  C   UNL     1      -0.015   4.305   0.031  0.00  0.00    +0.011 A 
ATOM     14  C   UNL     1      -0.039   5.681   0.035  0.00  0.00    +0.046 A 
BRANCH   9  15
ATOM     15  O   UNL     1      -1.272   7.715   0.051  0.00  0.00    -0.492 OA
BRANCH  15  17
ATOM     16  C   UNL     1      -0.229   9.894   0.059  0.00  0.00    +0.048 C 
ATOM     17  C   UNL     1      -0.008   8.380   0.050  0.00  0.00    +0.225 C 
ENDBRANCH  15  17
ENDBRANCH   9  15
ENDBRANCH   7  12
ENDBRANCH   3   8
ENDBRANCH   1   5
BRANCH   1  18
ATOM     18  N   UNL     1       2.373  -2.667  -0.035  0.00  0.00    -0.291 N 
ATOM     19  H   UNL     1       3.206  -2.171  -0.040  0.00  0.00    +0.154 HD
BRANCH  18  20
ATOM     20  C   UNL     1       2.392  -4.053  -0.043  0.00  0.00    +0.084 A 
ATOM     21  C   UNL     1       3.493  -4.902  -0.058  0.00  0.00    +0.068 A 
ATOM     22  C   UNL     1       3.219  -6.319  -0.062  0.00  0.00    -0.027 A 
ATOM     23  C   UNL     1       1.928  -6.696  -0.051  0.00  0.00    -0.008 A 
ATOM     24  S   UNL     1       1.049  -5.147  -0.028  0.00  0.00    -0.078 S 
ATOM     25  C   UNL     1       1.361  -8.092  -0.052  0.00  0.00    +0.052 C 
ATOM     26  C   UNL     1       4.333  -7.334  -0.078  0.00  0.00    +0.045 C 
BRANCH  21  27
ATOM     27  C   UNL     1       4.863  -4.383  -0.069  0.00  0.00    +0.244 C 
ATOM     28  O   UNL     1       5.443  -4.173   0.980  0.00  0.00    -0.270 OA
ATOM     29  N   UNL     1       5.481  -4.138  -1.242  0.00  0.00    -0.325 N 
ATOM     30  H   UNL     1       5.019  -4.306  -2.078  0.00  0.00    +0.145 HD
ATOM     31  H   UNL     1       6.389  -3.795  -1.249  0.00  0.00    +0.145 HD
ENDBRANCH  21  27
ENDBRANCH  18  20
ENDBRANCH   1  18
TORSDOF 8
