REMARK  Name = ZINC17853586
REMARK  6 active torsions:
REMARK  status: ('A' for Active; 'I' for Inactive)
REMARK    1  A    between atoms: C_1  and  C_2
REMARK    2  A    between atoms: C_2  and  C_4
REMARK    3  A    between atoms: C_2  and  N_14
REMARK    4  A    between atoms: C_7  and  S_10
REMARK    5  A    between atoms: S_10  and  N_13
REMARK    6  A    between atoms: C_15  and  C_17
REMARK                            x       y       z     vdW  Elec       q    Type
REMARK                         _______ _______ _______ _____ _____    ______ ____
ROOT
ATOM      1  N   UNL     1       0.688  -0.476  -1.203  0.00  0.00    -0.308 N 
ATOM      2  C   UNL     1       0.006  -0.608  -2.358  0.00  0.00    +0.220 C 
ATOM      3  O   UNL     1      -1.175  -0.336  -2.400  0.00  0.00    -0.275 OA
ATOM      4  H   UNL     1       1.632  -0.695  -1.170  0.00  0.00    +0.149 HD
ENDROOT
BRANCH   2   5
ATOM      5  C   UNL     1       0.712  -1.094  -3.598  0.00  0.00    +0.117 C 
ATOM      6  C   UNL     1      -0.275  -1.141  -4.768  0.00  0.00    +0.055 C 
ATOM      7  C   UNL     1       0.478  -1.338  -6.059  0.00  0.00    -0.004 A 
ATOM      8  C   UNL     1      -0.215  -1.779  -7.174  0.00  0.00    +0.027 A 
ATOM      9  C   UNL     1       0.442  -1.966  -8.376  0.00  0.00    +0.041 A 
ATOM     10  C   UNL     1       1.800  -1.711  -8.467  0.00  0.00    +0.023 A 
ATOM     11  C   UNL     1       2.495  -1.274  -7.359  0.00  0.00    +0.047 A 
ATOM     12  C   UNL     1       1.836  -1.086  -6.148  0.00  0.00    +0.124 A 
ATOM     13  O   UNL     1       2.557  -0.664  -5.076  0.00  0.00    -0.491 OA
ATOM     14  C   UNL     1       1.845  -0.126  -3.962  0.00  0.00    +0.242 C 
ATOM     15 CL   UNL     1      -0.434  -2.519  -9.768  0.00  0.00    -0.084 Cl
ENDBRANCH   2   5
BRANCH   1  17
ATOM     16  C   UNL     1      -0.019   1.526   0.010  0.00  0.00    +0.033 C 
ATOM     17  C   UNL     1       0.002  -0.004   0.002  0.00  0.00    +0.100 C 
BRANCH  17  18
ATOM     18  C   UNL     1       0.731  -0.503   1.223  0.00  0.00    -0.027 A 
ATOM     19  C   UNL     1       2.113  -0.514   1.247  0.00  0.00    +0.007 A 
ATOM     20  C   UNL     1       2.782  -0.972   2.366  0.00  0.00    +0.029 A 
ATOM     21  C   UNL     1       2.068  -1.419   3.463  0.00  0.00    +0.105 A 
ATOM     22  C   UNL     1       0.686  -1.407   3.439  0.00  0.00    +0.029 A 
ATOM     23  C   UNL     1       0.017  -0.945   2.321  0.00  0.00    +0.007 A 
BRANCH  21  24
ATOM     24  S   UNL     1       2.920  -2.003   4.890  0.00  0.00    +0.056 S 
ATOM     25  O   UNL     1       2.026  -2.874   5.569  0.00  0.00    -0.153 OA
ATOM     26  O   UNL     1       4.206  -2.422   4.452  0.00  0.00    -0.153 OA
BRANCH  24  27
ATOM     27  N   UNL     1       3.159  -0.702   5.885  0.00  0.00    -0.204 NA
ATOM     28  H   UNL     1       3.198  -0.827   6.846  0.00  0.00    +0.144 HD
ATOM     29  H   UNL     1       3.261   0.186   5.507  0.00  0.00    +0.144 HD
ENDBRANCH  24  27
ENDBRANCH  21  24
ENDBRANCH  17  18
ENDBRANCH   1  17
TORSDOF 5
