REMARK  Name = ZINC06493010
REMARK  3 active torsions:
REMARK  status: ('A' for Active; 'I' for Inactive)
REMARK    1  A    between atoms: C_1  and  C_2
REMARK    2  A    between atoms: C_2  and  C_4
REMARK    3  A    between atoms: C_17  and  C_21
REMARK                            x       y       z     vdW  Elec       q    Type
REMARK                         _______ _______ _______ _____ _____    ______ ____
ROOT
ATOM      1  C   UNL     1      -1.272   1.931   0.032  0.00  0.00    +0.129 A 
ATOM      2  C   UNL     1      -1.236   3.327  -0.199  0.00  0.00    +0.199 A 
ATOM      3  C   UNL     1       0.003   3.946  -0.131  0.00  0.00    +0.021 A 
ATOM      4  C   UNL     1       1.100   3.202   0.158  0.00  0.00    +0.044 A 
ATOM      5  N   UNL     1       1.121   1.862   0.273  0.00  0.00    -0.279 N 
ATOM      6  C   UNL     1      -0.071   1.217   0.280  0.00  0.00    +0.270 A 
ATOM      7  O   UNL     1      -0.111   0.018   0.496  0.00  0.00    -0.266 OA
ATOM      8  C   UNL     1       2.443   1.427   0.309  0.00  0.00    +0.054 A 
ATOM      9  C   UNL     1       2.930   0.119   0.333  0.00  0.00    +0.026 A 
ATOM     10  C   UNL     1       4.306  -0.048   0.347  0.00  0.00    +0.002 A 
ATOM     11  C   UNL     1       5.171   1.027   0.339  0.00  0.00    +0.000 A 
ATOM     12  C   UNL     1       4.701   2.336   0.324  0.00  0.00    +0.006 A 
ATOM     13  C   UNL     1       3.333   2.513   0.317  0.00  0.00    -0.012 A 
ATOM     14  C   UNL     1       2.505   3.758   0.346  0.00  0.00    +0.036 C 
ATOM     15  C   UNL     1       2.751   4.689  -0.833  0.00  0.00    +0.018 C 
ATOM     16  C   UNL     1       1.554   5.544  -1.206  0.00  0.00    +0.006 C 
ATOM     17  C   UNL     1       0.313   5.405  -0.332  0.00  0.00    +0.041 C 
ATOM     18  C   UNL     1       2.660   4.498   1.676  0.00  0.00    +0.023 C 
ATOM     19  O   UNL     1      -2.359   4.025  -0.477  0.00  0.00    -0.287 OA
ENDROOT
BRANCH   1  21
ATOM     20  C   UNL     1      -2.803   0.239  -1.063  0.00  0.00    +0.092 C 
ATOM     21  C   UNL     1      -2.510   1.246   0.019  0.00  0.00    +0.169 C 
ATOM     22  O   UNL     1      -3.336   1.469   0.881  0.00  0.00    -0.292 OA
ENDBRANCH   1  21
TORSDOF 1
