REMARK  Name = ZINC23937333
REMARK  9 active torsions:
REMARK  status: ('A' for Active; 'I' for Inactive)
REMARK    1  A    between atoms: C_1  and  C_2
REMARK    2  A    between atoms: C_2  and  C_4
REMARK    3  A    between atoms: C_9  and  N_10
REMARK    4  A    between atoms: C_11  and  C_13
REMARK    5  A    between atoms: C_13  and  S_14
REMARK    6  A    between atoms: S_14  and  C_15
REMARK    7  A    between atoms: C_18  and  C_26
REMARK    8  A    between atoms: N_19  and  C_20
REMARK    9  A    between atoms: C_26  and  N_27
REMARK                            x       y       z     vdW  Elec       q    Type
REMARK                         _______ _______ _______ _____ _____    ______ ____
ROOT
ATOM      1  C   UNL     1       0.211   0.986   2.730  0.00  0.00    +0.197 A 
ATOM      2  N   UNL     1       1.284   0.258   2.525  0.00  0.00    -0.122 NA
ATOM      3  N   UNL     1       1.807  -0.078   3.649  0.00  0.00    -0.135 NA
ATOM      4  C   UNL     1       1.101   0.403   4.634  0.00  0.00    +0.122 A 
ATOM      5  N   UNL     1       0.057   1.099   4.084  0.00  0.00    -0.276 N 
ENDROOT
BRANCH   5   6
ATOM      6  C   UNL     1      -0.958   1.783   4.768  0.00  0.00    +0.050 A 
ATOM      7  C   UNL     1      -0.648   2.889   5.549  0.00  0.00    +0.026 A 
ATOM      8  C   UNL     1      -1.650   3.564   6.217  0.00  0.00    +0.002 A 
ATOM      9  C   UNL     1      -2.961   3.134   6.117  0.00  0.00    +0.000 A 
ATOM     10  C   UNL     1      -3.272   2.030   5.345  0.00  0.00    +0.002 A 
ATOM     11  C   UNL     1      -2.274   1.354   4.670  0.00  0.00    +0.026 A 
ENDBRANCH   5   6
BRANCH   1  12
ATOM     12  S   UNL     1      -0.837   1.680   1.495  0.00  0.00    -0.076 S 
BRANCH  12  13
ATOM     13  C   UNL     1       0.010   1.101   0.003  0.00  0.00    +0.173 C 
BRANCH  13  15
ATOM     14  N   UNL     1      -0.280   1.278  -2.447  0.00  0.00    -0.284 N 
ATOM     15  C   UNL     1      -0.730   1.589  -1.216  0.00  0.00    +0.228 C 
ATOM     16  O   UNL     1      -1.732   2.261  -1.089  0.00  0.00    -0.275 OA
ATOM     17  H   UNL     1       0.668   0.732  -2.564  0.00  0.00    +0.155 HD
BRANCH  14  23
ATOM     18  C   UNL     1      -1.043   0.811  -4.702  0.00  0.00    +0.042 A 
ATOM     19  C   UNL     1      -1.791   1.189  -5.826  0.00  0.00    +0.062 A 
ATOM     20  C   UNL     1      -2.481   2.381  -5.824  0.00  0.00    +0.167 A 
ATOM     21  C   UNL     1      -2.445   3.213  -4.700  0.00  0.00    +0.168 A 
ATOM     22  C   UNL     1      -1.713   2.843  -3.583  0.00  0.00    +0.073 A 
ATOM     23  C   UNL     1      -1.014   1.647  -3.572  0.00  0.00    +0.048 A 
ATOM     24  O   UNL     1      -3.203   4.318  -4.954  0.00  0.00    -0.453 OA
ATOM     25  C   UNL     1      -4.033   3.967  -6.076  0.00  0.00    +0.466 C 
ATOM     26  O   UNL     1      -3.264   2.972  -6.776  0.00  0.00    -0.453 OA
BRANCH  18  28
ATOM     27  C   UNL     1      -0.237  -1.288  -5.955  0.00  0.00    +0.091 C 
ATOM     28  C   UNL     1      -0.301  -0.452  -4.702  0.00  0.00    +0.162 C 
ATOM     29  O   UNL     1       0.262  -0.825  -3.694  0.00  0.00    -0.292 OA
ENDBRANCH  18  28
ENDBRANCH  14  23
ENDBRANCH  13  15
ENDBRANCH  12  13
ENDBRANCH   1  12
BRANCH   4  30
ATOM     30  C   UNL     1       1.381   0.225   6.104  0.00  0.00    -0.001 C 
BRANCH  30  31
ATOM     31  N   UNL     1       0.701  -0.983   6.589  0.00  0.00    +0.384 N 
ATOM     32  C   UNL     1      -0.757  -0.829   6.522  0.00  0.00    -0.078 C 
ATOM     33  C   UNL     1      -1.429  -2.152   6.896  0.00  0.00    -0.019 C 
ATOM     34  C   UNL     1      -1.004  -2.553   8.311  0.00  0.00    -0.004 C 
ATOM     35  C   UNL     1       0.522  -2.660   8.366  0.00  0.00    -0.019 C 
ATOM     36  C   UNL     1       1.137  -1.322   7.950  0.00  0.00    -0.078 C 
ATOM     37  H   UNL     1       0.981  -1.818   5.930  0.00  0.00    -0.081 HD
ENDBRANCH  30  31
ENDBRANCH   4  30
TORSDOF 8
