REMARK  Name = ZINC09788967
REMARK  7 active torsions:
REMARK  status: ('A' for Active; 'I' for Inactive)
REMARK    1  A    between atoms: C_4  and  C_7
REMARK    2  A    between atoms: C_7  and  S_8
REMARK    3  A    between atoms: S_8  and  C_9
REMARK    4  A    between atoms: C_14  and  N_15
REMARK    5  A    between atoms: C_16  and  C_18
REMARK    6  A    between atoms: C_18  and  N_56
REMARK    7  A    between atoms: C_27  and  C_29
REMARK                            x       y       z     vdW  Elec       q    Type
REMARK                         _______ _______ _______ _____ _____    ______ ____
ROOT
ATOM      1  N   UNL     1       1.819   1.218  -1.858  0.00  0.00    -0.286 N 
ATOM      2  C   UNL     1       0.990   1.531  -0.842  0.00  0.00    +0.201 C 
ATOM      3  O   UNL     1       0.078   2.309  -1.022  0.00  0.00    -0.278 OA
ATOM      4  H   UNL     1       2.510   0.549  -1.731  0.00  0.00    +0.155 HD
ENDROOT
BRANCH   1  10
ATOM      5  C   UNL     1       2.786   1.993  -3.940  0.00  0.00    +0.029 A 
ATOM      6  C   UNL     1       2.644   2.630  -5.165  0.00  0.00    +0.016 A 
ATOM      7  C   UNL     1       1.413   3.129  -5.545  0.00  0.00    +0.001 A 
ATOM      8  C   UNL     1       0.320   2.996  -4.709  0.00  0.00    +0.002 A 
ATOM      9  C   UNL     1       0.451   2.359  -3.489  0.00  0.00    +0.024 A 
ATOM     10  C   UNL     1       1.683   1.860  -3.096  0.00  0.00    +0.047 A 
BRANCH   5  11
ATOM     11  S   UNL     1       4.355   1.355  -3.452  0.00  0.00    -0.119 S 
BRANCH  11  12
ATOM     12  C   UNL     1       5.446   1.760  -4.843  0.00  0.00    +0.109 C 
BRANCH  12  16
ATOM     13  C   UNL     1       9.393   0.351  -4.017  0.00  0.00    +0.000 A 
ATOM     14  C   UNL     1       8.487  -0.469  -4.664  0.00  0.00    +0.000 A 
ATOM     15  C   UNL     1       7.210  -0.013  -4.932  0.00  0.00    +0.004 A 
ATOM     16  C   UNL     1       6.838   1.263  -4.552  0.00  0.00    -0.037 A 
ATOM     17  C   UNL     1       7.745   2.085  -3.909  0.00  0.00    +0.004 A 
ATOM     18  C   UNL     1       9.020   1.627  -3.637  0.00  0.00    +0.000 A 
ENDBRANCH  12  16
ENDBRANCH  11  12
ENDBRANCH   5  11
ENDBRANCH   1  10
BRANCH   2  19
ATOM     19  C   UNL     1       1.197   0.913   0.517  0.00  0.00    +0.020 C 
BRANCH  19  29
ATOM     20  C   UNL     1       0.428   2.806   1.811  0.00  0.00    -0.041 C 
ATOM     21  C   UNL     1      -0.574   3.275   2.833  0.00  0.00    -0.061 A 
ATOM     22  C   UNL     1      -0.727   4.639   3.031  0.00  0.00    +0.002 A 
ATOM     23  C   UNL     1      -1.628   5.113   3.964  0.00  0.00    +0.000 A 
ATOM     24  C   UNL     1      -2.382   4.223   4.706  0.00  0.00    +0.000 A 
ATOM     25  C   UNL     1      -2.232   2.865   4.510  0.00  0.00    +0.004 A 
ATOM     26  C   UNL     1      -1.328   2.388   3.572  0.00  0.00    -0.047 A 
ATOM     27  C   UNL     1      -1.202   0.897   3.388  0.00  0.00    +0.029 C 
ATOM     28  C   UNL     1       0.096   0.571   2.648  0.00  0.00    +0.024 C 
ATOM     29  N   UNL     1       0.147   1.411   1.435  0.00  0.00    +0.396 N 
ATOM     30  H   UNL     1      -0.761   1.367   0.958  0.00  0.00    -0.080 HD
BRANCH  28  31
ATOM     31  C   UNL     1       0.101  -0.884   2.254  0.00  0.00    +0.197 C 
ATOM     32  O   UNL     1      -0.419  -1.232   1.215  0.00  0.00    -0.278 OA
ATOM     33  N   UNL     1       0.685  -1.797   3.055  0.00  0.00    -0.331 N 
ATOM     34  H   UNL     1       1.101  -1.518   3.886  0.00  0.00    +0.145 HD
ATOM     35  H   UNL     1       0.688  -2.733   2.801  0.00  0.00    +0.145 HD
ENDBRANCH  28  31
ENDBRANCH  19  29
ENDBRANCH   2  19
TORSDOF 7
