REMARK  Name = ZINC41258520
REMARK  2 active torsions:
REMARK  status: ('A' for Active; 'I' for Inactive)
REMARK    1  A    between atoms: C_6  and  C_7
REMARK    2  A    between atoms: C_9  and  N_12
REMARK                            x       y       z     vdW  Elec       q    Type
REMARK                         _______ _______ _______ _____ _____    ______ ____
ROOT
ATOM      1  C   UNL     1      -0.017   1.389   0.010  0.00  0.00    +0.014 A 
ATOM      2  C   UNL     1       1.169   2.098   0.002  0.00  0.00    +0.050 A 
ATOM      3  C   UNL     1       2.377   1.421  -0.013  0.00  0.00    +0.162 A 
ATOM      4  C   UNL     1       2.402   0.032  -0.021  0.00  0.00    +0.163 A 
ATOM      5  C   UNL     1       1.220  -0.684  -0.014  0.00  0.00    +0.059 A 
ATOM      6  C   UNL     1       0.002  -0.004   0.002  0.00  0.00    +0.007 A 
ATOM      7  O   UNL     1       3.600  -0.622  -0.036  0.00  0.00    -0.488 OA
ATOM      8  C   UNL     1       4.366  -0.496  -1.236  0.00  0.00    +0.232 C 
ATOM      9  C   UNL     1       5.190   0.782  -1.219  0.00  0.00    +0.082 C 
ATOM     10  C   UNL     1       4.321   2.030  -1.221  0.00  0.00    +0.232 C 
ATOM     11  O   UNL     1       3.552   2.115  -0.019  0.00  0.00    -0.488 OA
ENDROOT
BRANCH   6  12
ATOM     12  C   UNL     1      -1.273  -0.764   0.010  0.00  0.00    +0.115 A 
ATOM     13  C   UNL     1      -2.568  -0.212  -0.081  0.00  0.00    +0.096 A 
ATOM     14  C   UNL     1      -3.461  -1.233  -0.039  0.00  0.00    +0.216 A 
ATOM     15  O   UNL     1      -2.774  -2.383   0.072  0.00  0.00    -0.339 OA
ATOM     16  N   UNL     1      -1.394  -2.069   0.096  0.00  0.00    -0.076 NA
BRANCH  14  17
ATOM     17  N   UNL     1      -4.837  -1.111  -0.100  0.00  0.00    -0.327 N 
ATOM     18  H   UNL     1      -5.244  -0.234  -0.180  0.00  0.00    +0.145 HD
ATOM     19  H   UNL     1      -5.396  -1.903  -0.063  0.00  0.00    +0.145 HD
ENDBRANCH  14  17
ENDBRANCH   6  12
TORSDOF 2
