REMARK  Name = ZINC09468883
REMARK  11 active torsions:
REMARK  status: ('A' for Active; 'I' for Inactive)
REMARK    1  A    between atoms: C_1  and  N_2
REMARK    2  A    between atoms: N_2  and  C_3
REMARK    3  A    between atoms: N_2  and  C_4
REMARK    4  A    between atoms: C_4  and  C_10
REMARK    5  A    between atoms: C_10  and  N_11
REMARK    6  A    between atoms: C_12  and  C_14
REMARK    7  A    between atoms: C_17  and  S_20
REMARK    8  A    between atoms: S_20  and  N_23
REMARK    9  A    between atoms: N_23  and  C_24
REMARK   10  A    between atoms: C_29  and  O_30
REMARK   11  A    between atoms: O_30  and  C_31
REMARK                            x       y       z     vdW  Elec       q    Type
REMARK                         _______ _______ _______ _____ _____    ______ ____
ROOT
ATOM      1  C   UNL     1      -3.546   3.474   3.326  0.00  0.00    +0.037 A 
ATOM      2  C   UNL     1      -2.863   4.008   2.232  0.00  0.00    +0.015 A 
ATOM      3  C   UNL     1      -2.897   5.367   1.998  0.00  0.00    +0.029 A 
ATOM      4  C   UNL     1      -3.606   6.200   2.844  0.00  0.00    +0.109 A 
ATOM      5  C   UNL     1      -4.285   5.678   3.930  0.00  0.00    +0.029 A 
ATOM      6  C   UNL     1      -4.264   4.320   4.173  0.00  0.00    +0.015 A 
ENDROOT
BRANCH   1   8
ATOM      7  N   UNL     1      -2.820   1.204   2.764  0.00  0.00    -0.313 N 
ATOM      8  C   UNL     1      -3.514   2.019   3.583  0.00  0.00    +0.244 C 
ATOM      9  O   UNL     1      -4.114   1.556   4.534  0.00  0.00    -0.270 OA
ATOM     10  H   UNL     1      -2.341   1.573   2.005  0.00  0.00    +0.149 HD
BRANCH   7  11
ATOM     11  C   UNL     1      -2.788  -0.238   3.019  0.00  0.00    +0.092 C 
BRANCH  11  12
ATOM     12  C   UNL     1      -2.031  -0.939   1.889  0.00  0.00    -0.050 C 
ATOM     13  C   UNL     1      -2.026  -2.448   2.139  0.00  0.00    -0.010 C 
ATOM     14  C   UNL     1      -1.337  -2.742   3.473  0.00  0.00    -0.001 C 
ATOM     15  C   UNL     1       0.103  -2.228   3.428  0.00  0.00    -0.000 C 
ATOM     16  C   UNL     1       0.098  -0.718   3.179  0.00  0.00    -0.001 C 
ATOM     17  C   UNL     1      -0.591  -0.424   1.844  0.00  0.00    -0.010 C 
BRANCH  12  19
ATOM     18  C   UNL     1      -1.969  -1.335  -0.476  0.00  0.00    -0.096 C 
ATOM     19  N   UNL     1      -2.692  -0.657   0.608  0.00  0.00    +0.381 N 
ATOM     20  C   UNL     1      -4.077  -1.145   0.654  0.00  0.00    -0.096 C 
ATOM     21  H   UNL     1      -2.691   0.338   0.441  0.00  0.00    -0.082 HD
ENDBRANCH  12  19
ENDBRANCH  11  12
ENDBRANCH   7  11
ENDBRANCH   1   8
BRANCH   4  22
ATOM     22  S   UNL     1      -3.644   7.935   2.537  0.00  0.00    +0.072 S 
ATOM     23  O   UNL     1      -3.924   8.562   3.782  0.00  0.00    -0.150 OA
ATOM     24  O   UNL     1      -2.483   8.239   1.776  0.00  0.00    -0.150 OA
BRANCH  22  25
ATOM     25  N   UNL     1      -4.944   8.230   1.556  0.00  0.00    -0.213 N 
ATOM     26  H   UNL     1      -4.811   8.622   0.678  0.00  0.00    +0.174 HD
BRANCH  25  27
ATOM     27  C   UNL     1      -6.236   7.915   1.992  0.00  0.00    +0.090 A 
ATOM     28  C   UNL     1      -6.571   8.051   3.331  0.00  0.00    +0.028 A 
ATOM     29  C   UNL     1      -7.848   7.739   3.760  0.00  0.00    +0.002 A 
ATOM     30  C   UNL     1      -8.793   7.292   2.856  0.00  0.00    +0.004 A 
ATOM     31  C   UNL     1      -8.467   7.154   1.519  0.00  0.00    +0.047 A 
ATOM     32  C   UNL     1      -7.192   7.469   1.081  0.00  0.00    +0.142 A 
BRANCH  32  33
ATOM     33  O   UNL     1      -6.871   7.338  -0.234  0.00  0.00    -0.493 OA
ATOM     34  C   UNL     1      -7.901   6.876  -1.110  0.00  0.00    +0.277 C 
ENDBRANCH  32  33
ENDBRANCH  25  27
ENDBRANCH  22  25
ENDBRANCH   4  22
TORSDOF 8
