REMARK  Name = ZINC38657293
REMARK  6 active torsions:
REMARK  status: ('A' for Active; 'I' for Inactive)
REMARK    1  A    between atoms: C_3  and  C_6
REMARK    2  A    between atoms: C_11  and  O_20
REMARK    3  A    between atoms: C_15  and  N_19
REMARK    4  A    between atoms: C_16  and  C_17
REMARK    5  A    between atoms: O_20  and  C_21
REMARK    6  A    between atoms: C_21  and  C_23
REMARK                            x       y       z     vdW  Elec       q    Type
REMARK                         _______ _______ _______ _____ _____    ______ ____
ROOT
ATOM      1  C   UNL     1       3.615   0.682  -0.002  0.00  0.00    +0.134 C 
ATOM      2  C   UNL     1       4.104  -0.055   1.216  0.00  0.00    +0.011 A 
ATOM      3  C   UNL     1       4.184   0.610   2.427  0.00  0.00    +0.012 A 
ATOM      4  C   UNL     1       4.630  -0.050   3.555  0.00  0.00    +0.047 A 
ATOM      5  C   UNL     1       5.001  -1.385   3.477  0.00  0.00    +0.135 A 
ATOM      6  C   UNL     1       4.922  -2.053   2.266  0.00  0.00    +0.093 A 
ATOM      7  C   UNL     1       4.472  -1.388   1.132  0.00  0.00    +0.138 A 
ATOM      8  O   UNL     1       4.400  -2.057  -0.045  0.00  0.00    -0.441 OA
ATOM      9  C   UNL     1       4.350  -1.374  -1.201  0.00  0.00    +0.199 C 
ATOM     10  C   UNL     1       3.985  -0.074  -1.247  0.00  0.00    +0.101 C 
ENDROOT
BRANCH   1  13
ATOM     11  C   UNL     1       0.063   1.654   0.159  0.00  0.00    +0.041 A 
ATOM     12  C   UNL     1       1.436   1.985   0.091  0.00  0.00    +0.045 A 
ATOM     13  C   UNL     1       2.116   0.824   0.069  0.00  0.00    +0.117 A 
ATOM     14  O   UNL     1       1.233  -0.186   0.119  0.00  0.00    -0.467 OA
ATOM     15  C   UNL     1      -0.014   0.311   0.174  0.00  0.00    +0.195 A 
ENDBRANCH   1  13
BRANCH   9  16
ATOM     16  N   UNL     1       4.679  -2.016  -2.369  0.00  0.00    -0.328 N 
ATOM     17  H   UNL     1       4.943  -2.950  -2.351  0.00  0.00    +0.145 HD
ATOM     18  H   UNL     1       4.648  -1.537  -3.211  0.00  0.00    +0.145 HD
ENDBRANCH   9  16
BRANCH  10  19
ATOM     19  C   UNL     1       3.950   0.596  -2.512  0.00  0.00    +0.101 C 
ATOM     20  N   UNL     1       3.923   1.128  -3.515  0.00  0.00    -0.191 NA
ENDBRANCH  10  19
BRANCH   5  21
ATOM     21  O   UNL     1       5.441  -2.035   4.586  0.00  0.00    -0.422 OA
BRANCH  21  22
ATOM     22  C   UNL     1       4.551  -2.291   5.564  0.00  0.00    +0.344 C 
ATOM     23  O   UNL     1       3.375  -2.036   5.397  0.00  0.00    -0.245 OA
BRANCH  22  24
ATOM     24  C   UNL     1       5.005  -2.880   6.840  0.00  0.00    +0.059 A 
ATOM     25  C   UNL     1       6.358  -3.168   7.037  0.00  0.00    +0.016 A 
ATOM     26  C   UNL     1       6.775  -3.719   8.231  0.00  0.00    +0.016 A 
ATOM     27  C   UNL     1       5.857  -3.985   9.232  0.00  0.00    +0.018 A 
ATOM     28  C   UNL     1       4.515  -3.702   9.043  0.00  0.00    +0.016 A 
ATOM     29  C   UNL     1       4.085  -3.146   7.856  0.00  0.00    +0.016 A 
ATOM     30 BR   UNL     1       6.439  -4.740  10.866  0.00  0.00    -0.050 Br
ENDBRANCH  22  24
ENDBRANCH  21  22
ENDBRANCH   5  21
TORSDOF 6
