REMARK  Name = ZINC49184220
REMARK  5 active torsions:
REMARK  status: ('A' for Active; 'I' for Inactive)
REMARK    1  A    between atoms: C_1  and  C_2
REMARK    2  A    between atoms: C_2  and  C_3
REMARK    3  A    between atoms: C_4  and  C_19
REMARK    4  A    between atoms: N_8  and  S_9
REMARK    5  A    between atoms: S_9  and  C_12
REMARK                            x       y       z     vdW  Elec       q    Type
REMARK                         _______ _______ _______ _____ _____    ______ ____
ROOT
ATOM      1  C   UNL     1       0.731  -0.503   1.223  0.00  0.00    +0.027 A 
ATOM      2  C   UNL     1       0.045  -0.840   2.315  0.00  0.00    +0.009 A 
ATOM      3  S   UNL     1       1.342  -1.349   3.432  0.00  0.00    -0.053 S 
ATOM      4  C   UNL     1       2.728  -1.070   2.339  0.00  0.00    +0.192 A 
ATOM      5  N   UNL     1       2.090  -0.615   1.205  0.00  0.00    -0.336 N 
ATOM      6  N   UNL     1       4.007  -1.254   2.556  0.00  0.00    -0.103 NA
ATOM      7  C   UNL     1      -1.444  -0.800   2.548  0.00  0.00    +0.053 C 
ATOM      8  H   UNL     1       2.597  -0.376   0.413  0.00  0.00    +0.168 HD
ENDROOT
BRANCH   6   9
ATOM      9  S   UNL     1       4.524  -1.825   4.022  0.00  0.00    +0.101 S 
ATOM     10  O   UNL     1       4.226  -0.817   4.979  0.00  0.00    -0.146 OA
ATOM     11  O   UNL     1       4.033  -3.153   4.136  0.00  0.00    -0.146 OA
BRANCH   9  12
ATOM     12  C   UNL     1       6.280  -1.942   3.945  0.00  0.00    +0.117 A 
ATOM     13  C   UNL     1       6.896  -3.105   3.505  0.00  0.00    +0.049 A 
ATOM     14  C   UNL     1       8.275  -3.161   3.458  0.00  0.00    +0.114 A 
ATOM     15  N   UNL     1       9.006  -2.126   3.825  0.00  0.00    -0.243 NA
ATOM     16  C   UNL     1       8.456  -1.004   4.248  0.00  0.00    +0.131 A 
ATOM     17  C   UNL     1       7.080  -0.873   4.316  0.00  0.00    +0.069 A 
ATOM     18 CL   UNL     1       9.469   0.326   4.718  0.00  0.00    -0.062 Cl
ENDBRANCH   9  12
ENDBRANCH   6   9
BRANCH   1  20
ATOM     19  C   UNL     1      -0.019   1.526   0.010  0.00  0.00    +0.010 C 
ATOM     20  C   UNL     1       0.002  -0.004   0.002  0.00  0.00    +0.050 C 
ENDBRANCH   1  20
TORSDOF 3
