REMARK  Name = ZINC12807417
REMARK  15 active torsions:
REMARK  status: ('A' for Active; 'I' for Inactive)
REMARK    1  A    between atoms: C_1  and  C_2
REMARK    2  A    between atoms: C_2  and  C_3
REMARK    3  A    between atoms: C_2  and  C_4
REMARK    4  A    between atoms: C_4  and  C_6
REMARK    5  A    between atoms: C_4  and  N_22
REMARK    6  A    between atoms: N_8  and  C_9
REMARK    7  A    between atoms: C_9  and  C_10
REMARK    8  A    between atoms: C_10  and  C_12
REMARK    9  A    between atoms: C_10  and  N_61
REMARK   10  A    between atoms: C_15  and  O_18
REMARK   11  A    between atoms: O_18  and  C_19
REMARK   12  A    between atoms: C_20  and  N_61
REMARK   13  A    between atoms: C_21  and  N_61
REMARK   14  A    between atoms: N_22  and  S_23
REMARK   15  A    between atoms: S_23  and  C_26
REMARK                            x       y       z     vdW  Elec       q    Type
REMARK                         _______ _______ _______ _____ _____    ______ ____
ROOT
ATOM      1  C   UNL     1      -1.037   1.715   2.743  0.00  0.00    +0.232 C 
ATOM      2  O   UNL     1      -2.205   1.761   3.067  0.00  0.00    -0.274 OA
ATOM      3  N   UNL     1      -0.097   1.397   3.655  0.00  0.00    -0.315 N 
ATOM      4  H   UNL     1       0.842   1.435   3.417  0.00  0.00    +0.149 HD
ENDROOT
BRANCH   1   5
ATOM      5  C   UNL     1      -0.637   2.014   1.321  0.00  0.00    +0.165 C 
BRANCH   5   7
ATOM      6  C   UNL     1       0.486   3.674  -0.171  0.00  0.00    +0.009 C 
ATOM      7  C   UNL     1      -0.030   3.416   1.246  0.00  0.00    +0.010 C 
ATOM      8  C   UNL     1      -1.100   4.453   1.596  0.00  0.00    +0.009 C 
ENDBRANCH   5   7
BRANCH   5   9
ATOM      9  N   UNL     1      -1.817   1.945   0.457  0.00  0.00    -0.178 NA
ATOM     10  H   UNL     1      -2.545   2.574   0.579  0.00  0.00    +0.149 HD
BRANCH   9  11
ATOM     11  S   UNL     1      -1.909   0.792  -0.729  0.00  0.00    +0.059 S 
ATOM     12  O   UNL     1      -3.176   0.952  -1.353  0.00  0.00    -0.153 OA
ATOM     13  O   UNL     1      -0.689   0.858  -1.455  0.00  0.00    -0.153 OA
BRANCH  11  14
ATOM     14  C   UNL     1      -1.935  -0.777   0.071  0.00  0.00    +0.105 A 
ATOM     15  C   UNL     1      -0.750  -1.440   0.330  0.00  0.00    +0.030 A 
ATOM     16  C   UNL     1      -0.770  -2.669   0.963  0.00  0.00    +0.022 A 
ATOM     17  C   UNL     1      -1.976  -3.241   1.326  0.00  0.00    +0.041 A 
ATOM     18  C   UNL     1      -3.162  -2.579   1.061  0.00  0.00    +0.022 A 
ATOM     19  C   UNL     1      -3.141  -1.348   0.433  0.00  0.00    +0.030 A 
ATOM     20 CL   UNL     1      -2.002  -4.787   2.115  0.00  0.00    -0.084 Cl
ENDBRANCH  11  14
ENDBRANCH   9  11
ENDBRANCH   5   9
ENDBRANCH   1   5
BRANCH   3  21
ATOM     21  C   UNL     1      -0.495   0.993   5.006  0.00  0.00    +0.093 C 
BRANCH  21  22
ATOM     22  C   UNL     1       0.741   0.542   5.788  0.00  0.00    -0.021 C 
BRANCH  22  23
ATOM     23  C   UNL     1       0.340   0.176   7.194  0.00  0.00    -0.059 A 
ATOM     24  C   UNL     1       0.112  -1.147   7.525  0.00  0.00    +0.005 A 
ATOM     25  C   UNL     1      -0.250  -1.485   8.814  0.00  0.00    +0.046 A 
ATOM     26  C   UNL     1      -0.397  -0.495   9.775  0.00  0.00    +0.120 A 
ATOM     27  C   UNL     1      -0.174   0.832   9.439  0.00  0.00    +0.046 A 
ATOM     28  C   UNL     1       0.194   1.165   8.150  0.00  0.00    +0.005 A 
BRANCH  26  29
ATOM     29  O   UNL     1      -0.759  -0.825  11.042  0.00  0.00    -0.495 OA
ATOM     30  C   UNL     1      -0.973  -2.211  11.316  0.00  0.00    +0.277 C 
ENDBRANCH  26  29
ENDBRANCH  22  23
BRANCH  22  33
ATOM     31  C   UNL     1       0.303  -1.475   4.522  0.00  0.00    -0.096 C 
ATOM     32  C   UNL     1       2.335  -0.217   4.132  0.00  0.00    -0.096 C 
ATOM     33  N   UNL     1       1.351  -0.643   5.149  0.00  0.00    +0.382 N 
ATOM     34  H   UNL     1       1.832  -1.198   5.867  0.00  0.00    -0.082 HD
ENDBRANCH  22  33
ENDBRANCH  21  22
ENDBRANCH   3  21
TORSDOF 10
