REMARK  Name = ZINC40983934
REMARK  15 active torsions:
REMARK  status: ('A' for Active; 'I' for Inactive)
REMARK    1  A    between atoms: C_1  and  C_2
REMARK    2  A    between atoms: C_2  and  C_3
REMARK    3  A    between atoms: C_3  and  C_4
REMARK    4  A    between atoms: C_4  and  N_5
REMARK    5  A    between atoms: C_6  and  C_8
REMARK    6  A    between atoms: C_8  and  N_9
REMARK    7  A    between atoms: C_15  and  C_17
REMARK    8  A    between atoms: N_20  and  C_23
REMARK    9  A    between atoms: C_23  and  C_24
REMARK   10  A    between atoms: C_25  and  C_39
REMARK   11  A    between atoms: C_27  and  C_29
REMARK   12  A    between atoms: C_32  and  O_35
REMARK   13  A    between atoms: O_35  and  C_36
REMARK   14  A    between atoms: C_36  and  C_37
REMARK   15  A    between atoms: C_36  and  C_38
REMARK                            x       y       z     vdW  Elec       q    Type
REMARK                         _______ _______ _______ _____ _____    ______ ____
ROOT
ATOM      1  C   UNL     1       2.854  -9.764  -6.810  0.00  0.00    +0.072 C 
ATOM      2  C   UNL     1       3.308  -8.627  -7.729  0.00  0.00    -0.006 C 
ATOM      3  C   UNL     1       4.209  -9.196  -8.828  0.00  0.00    -0.078 C 
ATOM      4  N   UNL     1       3.464 -10.191  -9.610  0.00  0.00    +0.383 N 
ATOM      5  C   UNL     1       3.088 -11.319  -8.749  0.00  0.00    -0.078 C 
ATOM      6  C   UNL     1       2.144 -10.832  -7.647  0.00  0.00    -0.006 C 
ATOM      7  H   UNL     1       2.631  -9.765  -9.988  0.00  0.00    -0.081 HD
ENDROOT
BRANCH   1  14
ATOM      8  N   UNL     1       3.371  -7.537  -2.365  0.00  0.00    -0.291 NA
ATOM      9  C   UNL     1       4.247  -8.278  -3.282  0.00  0.00    +0.104 C 
ATOM     10  C   UNL     1       3.784  -8.046  -4.724  0.00  0.00    +0.123 C 
ATOM     11  N   UNL     1       2.356  -8.386  -4.817  0.00  0.00    -0.299 N 
ATOM     12  C   UNL     1       1.433  -7.788  -3.841  0.00  0.00    +0.123 C 
ATOM     13  C   UNL     1       1.989  -8.030  -2.433  0.00  0.00    +0.104 C 
ATOM     14  C   UNL     1       1.905  -9.225  -5.771  0.00  0.00    +0.219 C 
ATOM     15  O   UNL     1       0.735  -9.544  -5.795  0.00  0.00    -0.275 OA
BRANCH   8  16
ATOM     16  C   UNL     1       3.882  -7.593  -0.989  0.00  0.00    +0.180 C 
BRANCH  16  18
ATOM     17  N   UNL     1       5.855  -6.781   0.262  0.00  0.00    -0.314 N 
ATOM     18  C   UNL     1       5.196  -6.860  -0.911  0.00  0.00    +0.227 C 
ATOM     19  O   UNL     1       5.662  -6.343  -1.904  0.00  0.00    -0.274 OA
ATOM     20  H   UNL     1       5.483  -7.195   1.057  0.00  0.00    +0.149 HD
BRANCH  17  21
ATOM     21  C   UNL     1       7.133  -6.068   0.338  0.00  0.00    +0.104 C 
BRANCH  21  22
ATOM     22  C   UNL     1       7.665  -6.127   1.771  0.00  0.00    +0.018 C 
BRANCH  22  24
ATOM     23  C   UNL     1       9.532  -5.441   3.283  0.00  0.00    +0.004 C 
ATOM     24  C   UNL     1       9.000  -5.383   1.850  0.00  0.00    -0.002 C 
ENDBRANCH  22  24
ENDBRANCH  21  22
ENDBRANCH  17  21
ENDBRANCH  16  18
ENDBRANCH   8  16
ENDBRANCH   1  14
BRANCH   4  25
ATOM     25  C   UNL     1       4.307 -10.677 -10.711  0.00  0.00    -0.019 C 
BRANCH  25  26
ATOM     26  C   UNL     1       3.504 -11.605 -11.585  0.00  0.00    +0.066 A 
ATOM     27  C   UNL     1       3.390 -12.937 -11.431  0.00  0.00    +0.124 A 
ATOM     28  O   UNL     1       2.587 -13.386 -12.416  0.00  0.00    -0.440 OA
ATOM     29  C   UNL     1       2.221 -12.328 -13.160  0.00  0.00    +0.228 A 
ATOM     30  N   UNL     1       2.772 -11.250 -12.652  0.00  0.00    -0.216 NA
ATOM     31  C   UNL     1       4.038 -13.771 -10.356  0.00  0.00    +0.088 C 
BRANCH  29  32
ATOM     32  C   UNL     1       1.341 -12.370 -14.347  0.00  0.00    +0.037 A 
ATOM     33  C   UNL     1       1.042 -11.194 -15.038  0.00  0.00    +0.017 A 
ATOM     34  C   UNL     1       0.221 -11.238 -16.144  0.00  0.00    +0.046 A 
ATOM     35  C   UNL     1      -0.308 -12.449 -16.572  0.00  0.00    +0.121 A 
ATOM     36  C   UNL     1      -0.012 -13.621 -15.887  0.00  0.00    +0.046 A 
ATOM     37  C   UNL     1       0.812 -13.586 -14.783  0.00  0.00    +0.017 A 
BRANCH  35  38
ATOM     38  O   UNL     1      -1.117 -12.488 -17.662  0.00  0.00    -0.489 OA
BRANCH  38  39
ATOM     39  C   UNL     1      -1.330 -11.256 -18.355  0.00  0.00    +0.167 C 
ATOM     40  C   UNL     1      -0.182 -11.018 -19.338  0.00  0.00    +0.051 C 
ATOM     41  C   UNL     1      -2.652 -11.326 -19.122  0.00  0.00    +0.051 C 
ENDBRANCH  38  39
ENDBRANCH  35  38
ENDBRANCH  29  32
ENDBRANCH  25  26
ENDBRANCH   4  25
TORSDOF 11
