REMARK  Name = ZINC40114176
REMARK  3 active torsions:
REMARK  status: ('A' for Active; 'I' for Inactive)
REMARK    1  A    between atoms: C_1  and  N_2
REMARK    2  A    between atoms: C_3  and  S_7
REMARK    3  A    between atoms: S_7  and  C_8
REMARK                            x       y       z     vdW  Elec       q    Type
REMARK                         _______ _______ _______ _____ _____    ______ ____
ROOT
ATOM      1  C   UNL     1      -0.046  -1.806  -3.808  0.00  0.00    +0.084 C 
ATOM      2  C   UNL     1       0.162  -1.406  -5.267  0.00  0.00    +0.019 C 
ATOM      3  C   UNL     1      -0.091  -2.636  -6.147  0.00  0.00    +0.006 C 
ATOM      4  C   UNL     1      -1.584  -2.954  -6.112  0.00  0.00    +0.035 C 
ATOM      5  C   UNL     1      -2.076  -3.031  -4.690  0.00  0.00    -0.043 A 
ATOM      6  C   UNL     1      -1.372  -2.500  -3.633  0.00  0.00    -0.031 A 
ATOM      7  C   UNL     1      -1.885  -2.599  -2.347  0.00  0.00    +0.005 A 
ATOM      8  C   UNL     1      -3.093  -3.226  -2.120  0.00  0.00    +0.000 A 
ATOM      9  C   UNL     1      -3.798  -3.762  -3.181  0.00  0.00    +0.000 A 
ATOM     10  C   UNL     1      -3.290  -3.664  -4.459  0.00  0.00    +0.004 A 
ENDROOT
BRANCH   1  11
ATOM     11  S   UNL     1      -0.006  -0.321  -2.768  0.00  0.00    -0.076 S 
BRANCH  11  14
ATOM     12  C   UNL     1       1.446   2.398  -1.589  0.00  0.00    +0.177 C 
ATOM     13  N   UNL     1       2.162   1.386  -2.370  0.00  0.00    -0.223 N 
ATOM     14  C   UNL     1       1.658   0.244  -2.895  0.00  0.00    +0.210 A 
ATOM     15  N   UNL     1       2.645  -0.364  -3.517  0.00  0.00    -0.102 NA
ATOM     16  N   UNL     1       3.728   0.318  -3.416  0.00  0.00    -0.022 NA
ATOM     17  N   UNL     1       3.518   1.396  -2.741  0.00  0.00    -0.043 NA
ENDBRANCH  11  14
ENDBRANCH   1  11
TORSDOF 2
