REMARK  Name = ZINC00985813
REMARK  6 active torsions:
REMARK  status: ('A' for Active; 'I' for Inactive)
REMARK    1  A    between atoms: C_1  and  O_2
REMARK    2  A    between atoms: O_2  and  C_3
REMARK    3  A    between atoms: C_8  and  C_9
REMARK    4  A    between atoms: C_12  and  C_23
REMARK    5  A    between atoms: C_18  and  N_22
REMARK    6  A    between atoms: C_19  and  C_20
REMARK                            x       y       z     vdW  Elec       q    Type
REMARK                         _______ _______ _______ _____ _____    ______ ____
ROOT
ATOM      1  C   UNL     1       0.146  -2.783  -0.354  0.00  0.00    +0.105 C 
ATOM      2  C   UNL     1      -1.055  -3.612  -0.728  0.00  0.00    +0.054 A 
ATOM      3  C   UNL     1      -2.368  -3.204  -0.981  0.00  0.00    +0.102 A 
ATOM      4  N   UNL     1      -3.078  -4.277  -1.272  0.00  0.00    -0.171 NA
ATOM      5  N   UNL     1      -2.233  -5.396  -1.209  0.00  0.00    -0.246 N 
ATOM      6  H   UNL     1      -2.492  -6.316  -1.378  0.00  0.00    +0.192 HD
ATOM      7  C   UNL     1      -0.999  -4.968  -0.874  0.00  0.00    +0.223 A 
ATOM      8  O   UNL     1       0.143  -5.677  -0.692  0.00  0.00    -0.423 OA
ATOM      9  C   UNL     1       1.178  -5.053  -0.093  0.00  0.00    +0.200 C 
ATOM     10  C   UNL     1       1.242  -3.716   0.098  0.00  0.00    +0.098 C 
ENDROOT
BRANCH   3  11
ATOM     11  C   UNL     1      -2.874  -1.809  -0.933  0.00  0.00    +0.021 A 
ATOM     12  C   UNL     1      -2.561  -0.990   0.150  0.00  0.00    +0.011 A 
ATOM     13  C   UNL     1      -3.033   0.307   0.190  0.00  0.00    +0.001 A 
ATOM     14  C   UNL     1      -3.816   0.793  -0.842  0.00  0.00    +0.001 A 
ATOM     15  C   UNL     1      -4.130  -0.015  -1.919  0.00  0.00    +0.020 A 
ATOM     16  C   UNL     1      -3.658  -1.313  -1.972  0.00  0.00    +0.050 A 
ATOM     17 CL   UNL     1      -4.047  -2.325  -3.328  0.00  0.00    -0.083 Cl
ENDBRANCH   3  11
BRANCH   1  23
ATOM     18  C   UNL     1       0.771  -0.620  -1.458  0.00  0.00    +0.124 A 
ATOM     19  C   UNL     1       1.205   0.102  -2.561  0.00  0.00    +0.046 A 
ATOM     20  C   UNL     1       1.472  -0.548  -3.750  0.00  0.00    +0.004 A 
ATOM     21  C   UNL     1       1.307  -1.918  -3.842  0.00  0.00    +0.001 A 
ATOM     22  C   UNL     1       0.874  -2.640  -2.745  0.00  0.00    +0.008 A 
ATOM     23  C   UNL     1       0.612  -1.994  -1.552  0.00  0.00    +0.007 A 
BRANCH  18  25
ATOM     24  C   UNL     1       0.695   1.435  -0.264  0.00  0.00    +0.277 C 
ATOM     25  O   UNL     1       0.509   0.018  -0.287  0.00  0.00    -0.495 OA
ENDBRANCH  18  25
ENDBRANCH   1  23
BRANCH   9  26
ATOM     26  N   UNL     1       2.227  -5.819   0.350  0.00  0.00    -0.328 N 
ATOM     27  H   UNL     1       2.210  -6.782   0.228  0.00  0.00    +0.145 HD
ATOM     28  H   UNL     1       2.985  -5.399   0.784  0.00  0.00    +0.145 HD
ENDBRANCH   9  26
BRANCH  10  29
ATOM     29  C   UNL     1       2.390  -3.165   0.752  0.00  0.00    +0.101 C 
ATOM     30  N   UNL     1       3.302  -2.728   1.271  0.00  0.00    -0.191 NA
ENDBRANCH  10  29
TORSDOF 5
