REMARK  Name = ZINC15943786
REMARK  10 active torsions:
REMARK  status: ('A' for Active; 'I' for Inactive)
REMARK    1  A    between atoms: C_1  and  C_2
REMARK    2  A    between atoms: C_2  and  C_4
REMARK    3  A    between atoms: C_2  and  N_19
REMARK    4  A    between atoms: N_6  and  C_7
REMARK    5  A    between atoms: C_7  and  C_8
REMARK    6  A    between atoms: C_8  and  C_9
REMARK    7  A    between atoms: C_12  and  S_15
REMARK    8  A    between atoms: S_15  and  N_18
REMARK    9  A    between atoms: C_27  and  C_31
REMARK   10  A    between atoms: C_27  and  C_32
REMARK                            x       y       z     vdW  Elec       q    Type
REMARK                         _______ _______ _______ _____ _____    ______ ____
ROOT
ATOM      1  C   UNL     1       0.731  -0.503   1.223  0.00  0.00    +0.234 C 
ATOM      2  O   UNL     1       0.159  -1.213   2.023  0.00  0.00    -0.274 OA
ATOM      3  N   UNL     1       2.019  -0.161   1.426  0.00  0.00    -0.313 N 
ATOM      4  H   UNL     1       2.476   0.406   0.786  0.00  0.00    +0.149 HD
ENDROOT
BRANCH   1   6
ATOM      5  C   UNL     1      -0.019   1.526   0.010  0.00  0.00    +0.038 C 
ATOM      6  C   UNL     1       0.002  -0.004   0.002  0.00  0.00    +0.164 C 
BRANCH   6   7
ATOM      7  N   UNL     1      -1.372  -0.511   0.012  0.00  0.00    -0.259 N 
ATOM      8  C   UNL     1      -1.825  -1.323  -1.039  0.00  0.00    +0.050 A 
ATOM      9  C   UNL     1      -1.096  -2.429  -1.442  0.00  0.00    +0.024 A 
ATOM     10  C   UNL     1      -1.563  -3.218  -2.478  0.00  0.00    +0.002 A 
ATOM     11  C   UNL     1      -2.752  -2.906  -3.113  0.00  0.00    +0.001 A 
ATOM     12  C   UNL     1      -3.485  -1.802  -2.717  0.00  0.00    +0.016 A 
ATOM     13  C   UNL     1      -3.021  -1.008  -1.680  0.00  0.00    +0.030 A 
ATOM     14  S   UNL     1      -3.931   0.410  -1.158  0.00  0.00    -0.117 S 
ATOM     15  C   UNL     1      -4.618  -0.105   0.452  0.00  0.00    +0.024 C 
ATOM     16  C   UNL     1      -3.516  -0.880   1.195  0.00  0.00    +0.113 C 
ATOM     17  C   UNL     1      -2.189  -0.203   1.028  0.00  0.00    +0.222 C 
ATOM     18  O   UNL     1      -1.850   0.646   1.826  0.00  0.00    -0.275 OA
ATOM     19  C   UNL     1      -5.025   1.127   1.262  0.00  0.00    +0.023 C 
ATOM     20  C   UNL     1      -5.832  -1.010   0.233  0.00  0.00    +0.023 C 
ENDBRANCH   6   7
ENDBRANCH   1   6
BRANCH   3  21
ATOM     21  C   UNL     1       2.727  -0.647   2.613  0.00  0.00    +0.109 C 
BRANCH  21  22
ATOM     22  C   UNL     1       4.163  -0.117   2.602  0.00  0.00    +0.054 C 
BRANCH  22  23
ATOM     23  C   UNL     1       4.891  -0.616   3.823  0.00  0.00    -0.046 A 
ATOM     24  C   UNL     1       4.868   0.121   4.992  0.00  0.00    +0.005 A 
ATOM     25  C   UNL     1       5.537  -0.336   6.111  0.00  0.00    +0.029 A 
ATOM     26  C   UNL     1       6.228  -1.532   6.063  0.00  0.00    +0.105 A 
ATOM     27  C   UNL     1       6.251  -2.271   4.894  0.00  0.00    +0.029 A 
ATOM     28  C   UNL     1       5.579  -1.815   3.775  0.00  0.00    +0.005 A 
BRANCH  26  29
ATOM     29  S   UNL     1       7.082  -2.115   7.490  0.00  0.00    +0.056 S 
ATOM     30  O   UNL     1       8.103  -2.987   7.024  0.00  0.00    -0.153 OA
ATOM     31  O   UNL     1       7.360  -0.975   8.291  0.00  0.00    -0.153 OA
BRANCH  29  32
ATOM     32  N   UNL     1       6.017  -3.049   8.349  0.00  0.00    -0.204 NA
ATOM     33  H   UNL     1       5.113  -3.178   8.023  0.00  0.00    +0.144 HD
ATOM     34  H   UNL     1       6.298  -3.467   9.178  0.00  0.00    +0.144 HD
ENDBRANCH  29  32
ENDBRANCH  26  29
ENDBRANCH  22  23
ENDBRANCH  21  22
ENDBRANCH   3  21
TORSDOF 7
