REMARK  Name = ZINC17194710
REMARK  6 active torsions:
REMARK  status: ('A' for Active; 'I' for Inactive)
REMARK    1  A    between atoms: C_1  and  C_2
REMARK    2  A    between atoms: C_7  and  C_14
REMARK    3  A    between atoms: C_14  and  N_15
REMARK    4  A    between atoms: N_15  and  C_16
REMARK    5  A    between atoms: C_22  and  C_24
REMARK    6  A    between atoms: C_27  and  N_30
REMARK                            x       y       z     vdW  Elec       q    Type
REMARK                         _______ _______ _______ _____ _____    ______ ____
ROOT
ATOM      1  N   UNL     1      -0.571   0.880  -2.958  0.00  0.00    -0.290 N 
ATOM      2  C   UNL     1       0.161  -0.197  -2.610  0.00  0.00    +0.247 C 
ATOM      3  O   UNL     1       1.264  -0.364  -3.094  0.00  0.00    -0.270 OA
ENDROOT
BRANCH   1   4
ATOM      4  C   UNL     1      -1.218   1.691  -1.924  0.00  0.00    +0.077 C 
ATOM      5  C   UNL     1      -0.380   1.652  -0.645  0.00  0.00    +0.022 C 
ATOM      6  C   UNL     1      -1.056   2.499   0.434  0.00  0.00    +0.002 C 
ATOM      7  C   UNL     1      -2.450   1.940   0.722  0.00  0.00    +0.000 C 
ATOM      8  C   UNL     1      -3.290   1.979  -0.557  0.00  0.00    +0.002 C 
ATOM      9  C   UNL     1      -2.613   1.132  -1.636  0.00  0.00    +0.022 C 
ENDBRANCH   1   4
BRANCH   2  10
ATOM     10  C   UNL     1      -0.376  -1.174  -1.639  0.00  0.00    +0.037 A 
ATOM     11  C   UNL     1      -1.202  -0.746  -0.599  0.00  0.00    +0.015 A 
ATOM     12  C   UNL     1      -1.706  -1.664   0.300  0.00  0.00    +0.033 A 
ATOM     13  C   UNL     1      -1.383  -3.004   0.178  0.00  0.00    +0.126 A 
ATOM     14  C   UNL     1      -0.560  -3.434  -0.847  0.00  0.00    +0.033 A 
ATOM     15  C   UNL     1      -0.055  -2.527  -1.756  0.00  0.00    +0.015 A 
BRANCH  13  16
ATOM     16  N   UNL     1      -1.921  -3.982   1.150  0.00  0.00    +0.056 N 
ATOM     17  O   UNL     1      -1.639  -5.163   1.046  0.00  0.00    -0.126 OA
ATOM     18  O   UNL     1      -2.646  -3.607   2.054  0.00  0.00    -0.126 OA
ENDBRANCH  13  16
ENDBRANCH   2  10
BRANCH   1  19
ATOM     19  C   UNL     1      -0.719   1.239  -4.371  0.00  0.00    +0.149 C 
BRANCH  19  26
ATOM     20  C   UNL     1       5.628   5.417  -6.794  0.00  0.00    +0.044 C 
ATOM     21  C   UNL     1       4.546   4.440  -6.413  0.00  0.00    -0.048 A 
ATOM     22  C   UNL     1       4.726   3.085  -6.657  0.00  0.00    +0.004 A 
ATOM     23  C   UNL     1       3.757   2.183  -6.319  0.00  0.00    +0.010 A 
ATOM     24  C   UNL     1       2.573   2.628  -5.722  0.00  0.00    -0.001 A 
ATOM     25  C   UNL     1       1.517   1.688  -5.341  0.00  0.00    +0.020 A 
ATOM     26  C   UNL     1       0.389   2.178  -4.769  0.00  0.00    +0.035 A 
ATOM     27  C   UNL     1       0.252   3.564  -4.542  0.00  0.00    +0.254 A 
ATOM     28  O   UNL     1      -0.768   3.983  -4.022  0.00  0.00    -0.268 OA
ATOM     29  N   UNL     1       1.219   4.435  -4.883  0.00  0.00    -0.322 N 
ATOM     30  H   UNL     1       1.092   5.381  -4.712  0.00  0.00    +0.169 HD
ATOM     31  C   UNL     1       2.387   4.001  -5.473  0.00  0.00    +0.049 A 
ATOM     32  C   UNL     1       3.387   4.901  -5.826  0.00  0.00    +0.029 A 
ENDBRANCH  19  26
ENDBRANCH   1  19
TORSDOF 5
