REMARK  Name = ZINC37060035
REMARK  7 active torsions:
REMARK  status: ('A' for Active; 'I' for Inactive)
REMARK    1  A    between atoms: C_1  and  C_2
REMARK    2  A    between atoms: C_2  and  C_3
REMARK    3  A    between atoms: C_3  and  C_5
REMARK    4  A    between atoms: C_3  and  N_12
REMARK    5  A    between atoms: C_8  and  O_11
REMARK    6  A    between atoms: N_12  and  C_13
REMARK    7  A    between atoms: C_15  and  N_20
REMARK                            x       y       z     vdW  Elec       q    Type
REMARK                         _______ _______ _______ _____ _____    ______ ____
ROOT
ATOM      1  N   UNL     1      -0.055  -0.114  -2.441  0.00  0.00    -0.336 N 
ATOM      2  H   UNL     1      -0.683  -0.740  -2.833  0.00  0.00    +0.147 HD
ENDROOT
BRANCH   1   3
ATOM      3  C   UNL     1       0.113   1.154  -3.004  0.00  0.00    +0.048 A 
ATOM      4  C   UNL     1       1.017   2.049  -2.447  0.00  0.00    +0.057 A 
ATOM      5  C   UNL     1       1.181   3.301  -3.006  0.00  0.00    +0.128 A 
ATOM      6  C   UNL     1       0.446   3.664  -4.120  0.00  0.00    +0.034 A 
ATOM      7  C   UNL     1      -0.455   2.776  -4.679  0.00  0.00    +0.024 A 
ATOM      8  C   UNL     1      -0.620   1.520  -4.127  0.00  0.00    +0.062 A 
ATOM      9 CL   UNL     1      -1.746   0.402  -4.832  0.00  0.00    -0.082 Cl
BRANCH   5  10
ATOM     10  N   UNL     1       2.143   4.256  -2.413  0.00  0.00    +0.056 N 
ATOM     11  O   UNL     1       2.786   3.939  -1.439  0.00  0.00    -0.126 OA
ATOM     12  O   UNL     1       2.288   5.352  -2.902  0.00  0.00    -0.126 OA
ENDBRANCH   5  10
ENDBRANCH   1   3
BRANCH   1  13
ATOM     13  C   UNL     1       0.718  -0.497  -1.257  0.00  0.00    +0.100 C 
BRANCH  13  14
ATOM     14  C   UNL     1       0.847  -1.998  -1.206  0.00  0.00    -0.027 A 
ATOM     15  C   UNL     1      -0.228  -2.795  -1.552  0.00  0.00    +0.009 A 
ATOM     16  C   UNL     1      -0.112  -4.171  -1.506  0.00  0.00    +0.046 A 
ATOM     17  C   UNL     1       1.084  -4.753  -1.111  0.00  0.00    +0.117 A 
ATOM     18  C   UNL     1       2.161  -3.950  -0.765  0.00  0.00    +0.046 A 
ATOM     19  C   UNL     1       2.042  -2.575  -0.818  0.00  0.00    +0.009 A 
BRANCH  17  20
ATOM     20  O   UNL     1       1.200  -6.106  -1.065  0.00  0.00    -0.507 OA
ATOM     21  H   UNL     1       1.508  -6.503  -1.891  0.00  0.00    +0.292 HD
ENDBRANCH  17  20
ENDBRANCH  13  14
BRANCH  13  23
ATOM     22  C   UNL     1      -0.019   1.526   0.010  0.00  0.00    +0.006 C 
ATOM     23  C   UNL     1       0.002  -0.004   0.002  0.00  0.00    +0.023 C 
ENDBRANCH  13  23
ENDBRANCH   1  13
TORSDOF 6
