REMARK  Name = ZINC13052155
REMARK  10 active torsions:
REMARK  status: ('A' for Active; 'I' for Inactive)
REMARK    1  A    between atoms: C_1  and  C_2
REMARK    2  A    between atoms: C_7  and  C_14
REMARK    3  A    between atoms: C_11  and  C_12
REMARK    4  A    between atoms: C_14  and  S_15
REMARK    5  A    between atoms: S_15  and  C_16
REMARK    6  A    between atoms: C_20  and  C_32
REMARK    7  A    between atoms: N_26  and  C_27
REMARK    8  A    between atoms: C_27  and  C_28
REMARK    9  A    between atoms: C_28  and  C_30
REMARK   10  A    between atoms: C_28  and  O_31
REMARK                            x       y       z     vdW  Elec       q    Type
REMARK                         _______ _______ _______ _____ _____    ______ ____
ROOT
ATOM      1  C   UNL     1      -5.769   7.314  -0.258  0.00  0.00    +0.173 A 
ATOM      2  N   UNL     1      -5.878   7.541   1.028  0.00  0.00    -0.223 NA
ATOM      3  C   UNL     1      -6.905   8.260   1.536  0.00  0.00    +0.080 A 
ATOM      4  C   UNL     1      -7.016   8.505   2.908  0.00  0.00    +0.043 A 
ATOM      5  C   UNL     1      -8.091   9.245   3.385  0.00  0.00    +0.065 A 
ATOM      6  C   UNL     1      -9.059   9.742   2.502  0.00  0.00    +0.016 A 
ATOM      7  C   UNL     1      -8.960   9.510   1.160  0.00  0.00    +0.016 A 
ATOM      8  C   UNL     1      -7.890   8.770   0.660  0.00  0.00    +0.065 A 
ATOM      9  C   UNL     1      -7.746   8.495  -0.779  0.00  0.00    +0.262 A 
ATOM     10  O   UNL     1      -8.560   8.907  -1.584  0.00  0.00    -0.267 OA
ATOM     11  N   UNL     1      -6.675   7.769  -1.174  0.00  0.00    -0.285 N 
ENDROOT
BRANCH   5  12
ATOM     12  C   UNL     1      -8.216   9.509   4.835  0.00  0.00    +0.387 C 
ATOM     13  O   UNL     1      -7.380   9.080   5.604  0.00  0.00    -0.241 OA
ATOM     14  O   UNL     1      -9.256  10.225   5.302  0.00  0.00    -0.241 OA
ENDBRANCH   5  12
BRANCH   1  15
ATOM     15  S   UNL     1      -4.394   6.373  -0.832  0.00  0.00    -0.083 S 
BRANCH  15  16
ATOM     16  C   UNL     1      -3.558   6.047   0.740  0.00  0.00    +0.115 C 
BRANCH  16  23
ATOM     17  C   UNL     1       2.433   1.005  -0.478  0.00  0.00    +0.044 C 
ATOM     18  C   UNL     1       1.162   1.772  -0.219  0.00  0.00    -0.045 A 
ATOM     19  C   UNL     1      -0.021   1.076   0.021  0.00  0.00    +0.004 A 
ATOM     20  C   UNL     1      -1.187   1.740   0.253  0.00  0.00    +0.010 A 
ATOM     21  C   UNL     1      -1.197   3.144   0.261  0.00  0.00    +0.001 A 
ATOM     22  C   UNL     1      -2.381   3.868   0.501  0.00  0.00    +0.017 A 
ATOM     23  C   UNL     1      -2.317   5.231   0.488  0.00  0.00    +0.000 A 
ATOM     24  C   UNL     1      -1.100   5.868   0.242  0.00  0.00    +0.134 A 
ATOM     25  N   UNL     1       0.000   5.191   0.018  0.00  0.00    -0.235 NA
ATOM     26  C   UNL     1       0.005   3.853   0.017  0.00  0.00    +0.076 A 
ATOM     27  C   UNL     1       1.188   3.132  -0.224  0.00  0.00    -0.022 A 
ATOM     28  C   UNL     1       2.479   3.863  -0.487  0.00  0.00    +0.046 C 
ATOM     29 CL   UNL     1      -1.042   7.603   0.230  0.00  0.00    -0.062 Cl
ENDBRANCH  16  23
ENDBRANCH  15  16
ENDBRANCH   1  15
BRANCH  11  30
ATOM     30  C   UNL     1      -6.485   7.467  -2.595  0.00  0.00    +0.158 C 
BRANCH  30  31
ATOM     31  C   UNL     1      -7.184   6.149  -2.934  0.00  0.00    +0.131 C 
ATOM     32  C   UNL     1      -6.986   5.835  -4.419  0.00  0.00    +0.039 C 
BRANCH  31  33
ATOM     33  O   UNL     1      -6.625   5.097  -2.146  0.00  0.00    -0.390 OA
ATOM     34  H   UNL     1      -5.678   4.962  -2.285  0.00  0.00    +0.210 HD
ENDBRANCH  31  33
ENDBRANCH  30  31
ENDBRANCH  11  30
TORSDOF 7
