REMARK  Name = ZINC08036325
REMARK  4 active torsions:
REMARK  status: ('A' for Active; 'I' for Inactive)
REMARK    1  A    between atoms: C_5  and  C_7
REMARK    2  A    between atoms: C_13  and  C_15
REMARK    3  A    between atoms: C_15  and  S_16
REMARK    4  A    between atoms: S_16  and  C_17
REMARK                            x       y       z     vdW  Elec       q    Type
REMARK                         _______ _______ _______ _____ _____    ______ ____
ROOT
ATOM      1  C   UNL     1       1.264  -0.768  -0.020  0.00  0.00    +0.167 C 
ATOM      2  N   UNL     1       0.002  -0.004   0.002  0.00  0.00    -0.284 N 
ATOM      3  C   UNL     1      -1.226  -0.794   0.009  0.00  0.00    +0.120 C 
ATOM      4  C   UNL     1      -1.028  -2.133  -0.761  0.00  0.00    +0.090 C 
ATOM      5  S   UNL     1       0.696  -2.511  -0.206  0.00  0.00    -0.132 S 
ATOM      6  C   UNL     1      -0.016   1.344   0.009  0.00  0.00    +0.227 C 
ATOM      7  O   UNL     1       1.026   1.964   0.003  0.00  0.00    -0.275 OA
ENDROOT
BRANCH   1  12
ATOM      8  C   UNL     1       2.064   0.097   3.567  0.00  0.00    +0.001 A 
ATOM      9  C   UNL     1       3.395  -0.267   3.650  0.00  0.00    +0.003 A 
ATOM     10  C   UNL     1       4.038  -0.794   2.546  0.00  0.00    +0.039 A 
ATOM     11  C   UNL     1       3.349  -0.956   1.356  0.00  0.00    +0.129 A 
ATOM     12  C   UNL     1       2.016  -0.592   1.274  0.00  0.00    +0.018 A 
ATOM     13  C   UNL     1       1.376  -0.060   2.378  0.00  0.00    +0.009 A 
ATOM     14  F   UNL     1       3.976  -1.471   0.276  0.00  0.00    -0.205 F 
ENDBRANCH   1  12
BRANCH   6  15
ATOM     15  C   UNL     1      -1.331   2.079   0.020  0.00  0.00    +0.173 C 
BRANCH  15  16
ATOM     16  S   UNL     1      -1.025   3.863   0.028  0.00  0.00    -0.077 S 
BRANCH  16  17
ATOM     17  C   UNL     1      -2.683   4.458   0.039  0.00  0.00    +0.195 A 
ATOM     18  N   UNL     1      -3.698   3.599   0.034  0.00  0.00    -0.189 NA
ATOM     19  C   UNL     1      -4.949   4.049   0.047  0.00  0.00    +0.218 A 
ATOM     20  N   UNL     1      -5.186   5.357   0.055  0.00  0.00    -0.181 NA
ATOM     21  C   UNL     1      -4.171   6.216   0.055  0.00  0.00    +0.218 A 
ATOM     22  N   UNL     1      -2.920   5.767   0.047  0.00  0.00    -0.189 NA
ATOM     23  N   UNL     1      -4.417   7.574   0.064  0.00  0.00    -0.327 N 
ATOM     24  N   UNL     1      -6.003   3.157   0.047  0.00  0.00    -0.327 N 
ATOM     25  H   UNL     1      -3.676   8.201   0.064  0.00  0.00    +0.145 HD
ATOM     26  H   UNL     1      -5.330   7.902   0.070  0.00  0.00    +0.145 HD
ATOM     27  H   UNL     1      -6.916   3.485   0.053  0.00  0.00    +0.145 HD
ATOM     28  H   UNL     1      -5.830   2.203   0.041  0.00  0.00    +0.145 HD
ENDBRANCH  16  17
ENDBRANCH  15  16
ENDBRANCH   6  15
TORSDOF 4
