REMARK  Name = ZINC38581267
REMARK  6 active torsions:
REMARK  status: ('A' for Active; 'I' for Inactive)
REMARK    1  A    between atoms: C_1  and  C_2
REMARK    2  A    between atoms: C_5  and  S_8
REMARK    3  A    between atoms: S_8  and  C_11
REMARK    4  A    between atoms: N_23  and  N_27
REMARK    5  A    between atoms: C_24  and  N_26
REMARK    6  A    between atoms: C_28  and  C_29
REMARK                            x       y       z     vdW  Elec       q    Type
REMARK                         _______ _______ _______ _____ _____    ______ ____
ROOT
ATOM      1  C   UNL     1       1.384  -5.096  -0.720  0.00  0.00    +0.224 C 
ATOM      2  C   UNL     1       2.279  -4.755  -1.891  0.00  0.00    +0.111 A 
ATOM      3  C   UNL     1       2.968  -5.919  -2.271  0.00  0.00    +0.166 A 
ATOM      4  N   UNL     1       3.822  -5.873  -3.286  0.00  0.00    -0.227 NA
ATOM      5  C   UNL     1       4.025  -4.728  -3.941  0.00  0.00    +0.091 A 
ATOM      6  C   UNL     1       4.925  -4.658  -5.020  0.00  0.00    +0.030 A 
ATOM      7  C   UNL     1       5.110  -3.477  -5.670  0.00  0.00    +0.002 A 
ATOM      8  C   UNL     1       4.420  -2.329  -5.282  0.00  0.00    +0.002 A 
ATOM      9  C   UNL     1       3.541  -2.359  -4.243  0.00  0.00    +0.030 A 
ATOM     10  C   UNL     1       3.324  -3.560  -3.549  0.00  0.00    +0.090 A 
ATOM     11  N   UNL     1       2.466  -3.621  -2.524  0.00  0.00    -0.245 NA
ATOM     12  N   UNL     1       2.621  -6.997  -1.471  0.00  0.00    -0.186 N 
ATOM     13  C   UNL     1       1.635  -6.591  -0.463  0.00  0.00    +0.195 C 
ENDROOT
BRANCH   1  14
ATOM     14  S   UNL     1      -0.355  -4.810  -1.148  0.00  0.00    +0.008 S 
ATOM     15  O   UNL     1      -1.169  -4.917   0.013  0.00  0.00    -0.169 OA
ATOM     16  O   UNL     1      -0.690  -5.517  -2.334  0.00  0.00    -0.169 OA
BRANCH  14  21
ATOM     17  C   UNL     1      -0.637   1.015  -2.696  0.00  0.00    +0.044 C 
ATOM     18  C   UNL     1      -0.566  -0.440  -2.309  0.00  0.00    -0.050 A 
ATOM     19  C   UNL     1      -0.301  -1.398  -3.269  0.00  0.00    +0.005 A 
ATOM     20  C   UNL     1      -0.236  -2.733  -2.915  0.00  0.00    +0.027 A 
ATOM     21  C   UNL     1      -0.436  -3.109  -1.600  0.00  0.00    +0.089 A 
ATOM     22  C   UNL     1      -0.701  -2.151  -0.639  0.00  0.00    +0.027 A 
ATOM     23  C   UNL     1      -0.761  -0.816  -0.993  0.00  0.00    +0.005 A 
ENDBRANCH  14  21
ENDBRANCH   1  14
BRANCH  13  24
ATOM     24  N   UNL     1       0.390  -7.352  -0.634  0.00  0.00    -0.309 NA
ATOM     25  H   UNL     1       0.563  -8.345  -0.581  0.00  0.00    +0.120 HD
ATOM     26  H   UNL     1      -0.303  -7.069   0.043  0.00  0.00    +0.120 HD
ENDBRANCH  13  24
BRANCH  12  27
ATOM     27  N   UNL     1       3.100  -8.189  -1.593  0.00  0.00    -0.185 NA
ATOM     28  C   UNL     1       2.788  -9.115  -0.717  0.00  0.00    +0.136 C 
BRANCH  28  29
ATOM     29  C   UNL     1       3.208 -10.434  -0.914  0.00  0.00    +0.000 C 
ATOM     30  C   UNL     1       2.959 -11.531  -0.088  0.00  0.00    +0.004 A 
ATOM     31  C   UNL     1       2.255 -11.669   1.127  0.00  0.00    +0.010 A 
ATOM     32  C   UNL     1       2.173 -12.887   1.723  0.00  0.00    +0.001 A 
ATOM     33  C   UNL     1       2.772 -14.018   1.162  0.00  0.00    +0.002 A 
ATOM     34  C   UNL     1       3.463 -13.958  -0.002  0.00  0.00    +0.026 A 
ATOM     35  C   UNL     1       3.592 -12.719  -0.683  0.00  0.00    +0.043 A 
ATOM     36  N   UNL     1       4.201 -12.403  -1.809  0.00  0.00    -0.380 N 
ATOM     37  C   UNL     1       4.024 -10.971  -2.070  0.00  0.00    +0.150 C 
ATOM     38  H   UNL     1       4.687 -13.021  -2.377  0.00  0.00    +0.160 HD
ENDBRANCH  28  29
ENDBRANCH  12  27
TORSDOF 5
