REMARK  Name = ZINC18068245
REMARK  6 active torsions:
REMARK  status: ('A' for Active; 'I' for Inactive)
REMARK    1  A    between atoms: C_1  and  O_2
REMARK    2  A    between atoms: O_2  and  C_3
REMARK    3  A    between atoms: C_5  and  C_10
REMARK    4  A    between atoms: C_8  and  O_9
REMARK    5  A    between atoms: N_18  and  C_21
REMARK    6  A    between atoms: N_32  and  C_33
REMARK                            x       y       z     vdW  Elec       q    Type
REMARK                         _______ _______ _______ _____ _____    ______ ____
ROOT
ATOM      1  C   UNL     1       2.403   0.379  -4.230  0.00  0.00    +0.157 C 
ATOM      2  C   UNL     1       1.554   0.319  -5.494  0.00  0.00    +0.145 C 
ATOM      3  C   UNL     1       2.224  -0.961  -6.124  0.00  0.00    +0.249 C 
ATOM      4  C   UNL     1       1.223  -1.365  -7.091  0.00  0.00    +0.259 C 
ATOM      5  O   UNL     1       1.411  -1.892  -8.167  0.00  0.00    -0.272 OA
ATOM      6  N   UNL     1       0.020  -1.026  -6.530  0.00  0.00    -0.207 N 
ATOM      7  C   UNL     1       0.147  -0.189  -5.443  0.00  0.00    +0.235 C 
ATOM      8  O   UNL     1      -0.695   0.080  -4.614  0.00  0.00    -0.274 OA
ATOM      9  O   UNL     1       3.559  -0.682  -6.029  0.00  0.00    -0.257 OA
ATOM     10  N   UNL     1       3.711  -0.196  -4.657  0.00  0.00    -0.244 N 
ENDROOT
BRANCH   6  11
ATOM     11  C   UNL     1      -1.214  -1.472  -7.017  0.00  0.00    +0.052 A 
ATOM     12  C   UNL     1      -1.767  -2.641  -6.543  0.00  0.00    +0.024 A 
ATOM     13  C   UNL     1      -2.994  -3.093  -7.020  0.00  0.00    +0.002 A 
ATOM     14  C   UNL     1      -3.681  -2.394  -7.965  0.00  0.00    +0.008 A 
ATOM     15  C   UNL     1      -3.152  -1.196  -8.475  0.00  0.00    -0.016 A 
ATOM     16  C   UNL     1      -1.906  -0.724  -7.993  0.00  0.00    +0.004 A 
ATOM     17  C   UNL     1      -1.381   0.476  -8.499  0.00  0.00    +0.010 A 
ATOM     18  C   UNL     1      -2.077   1.171  -9.440  0.00  0.00    +0.001 A 
ATOM     19  C   UNL     1      -3.304   0.710  -9.911  0.00  0.00    +0.001 A 
ATOM     20  C   UNL     1      -3.838  -0.454  -9.451  0.00  0.00    +0.008 A 
ENDBRANCH   6  11
BRANCH   1  23
ATOM     21  C   UNL     1       0.413  -0.627  -1.180  0.00  0.00    +0.162 A 
ATOM     22  C   UNL     1       0.980   0.140  -2.185  0.00  0.00    +0.055 A 
ATOM     23  C   UNL     1       1.787  -0.456  -3.137  0.00  0.00    -0.018 A 
ATOM     24  C   UNL     1       2.030  -1.816  -3.089  0.00  0.00    +0.009 A 
ATOM     25  C   UNL     1       1.467  -2.587  -2.089  0.00  0.00    +0.049 A 
ATOM     26  C   UNL     1       0.662  -1.995  -1.128  0.00  0.00    +0.158 A 
BRANCH  21  28
ATOM     27  C   UNL     1      -0.591   1.366  -0.358  0.00  0.00    +0.277 C 
ATOM     28  O   UNL     1      -0.380  -0.043  -0.243  0.00  0.00    -0.491 OA
ENDBRANCH  21  28
BRANCH  26  29
ATOM     29  O   UNL     1       0.113  -2.751  -0.140  0.00  0.00    -0.503 OA
ATOM     30  H   UNL     1      -0.754  -3.117  -0.361  0.00  0.00    +0.292 HD
ENDBRANCH  26  29
ENDBRANCH   1  23
BRANCH  10  31
ATOM     31  C   UNL     1       4.874  -0.251  -3.885  0.00  0.00    +0.065 A 
ATOM     32  C   UNL     1       4.876   0.255  -2.592  0.00  0.00    +0.028 A 
ATOM     33  C   UNL     1       6.028   0.198  -1.832  0.00  0.00    +0.002 A 
ATOM     34  C   UNL     1       7.178  -0.361  -2.357  0.00  0.00    +0.000 A 
ATOM     35  C   UNL     1       7.180  -0.866  -3.644  0.00  0.00    +0.002 A 
ATOM     36  C   UNL     1       6.030  -0.818  -4.408  0.00  0.00    +0.028 A 
ENDBRANCH  10  31
TORSDOF 5
