REMARK  Name = ZINC12159747
REMARK  13 active torsions:
REMARK  status: ('A' for Active; 'I' for Inactive)
REMARK    1  A    between atoms: C_1  and  C_2
REMARK    2  A    between atoms: C_4  and  C_34
REMARK    3  A    between atoms: C_6  and  C_8
REMARK    4  A    between atoms: C_8  and  N_74
REMARK    5  A    between atoms: C_11  and  C_14
REMARK    6  A    between atoms: C_14  and  C_26
REMARK    7  A    between atoms: N_17  and  C_21
REMARK    8  A    between atoms: C_21  and  C_22
REMARK    9  A    between atoms: C_22  and  C_23
REMARK   10  A    between atoms: C_23  and  N_76
REMARK   11  A    between atoms: C_24  and  N_76
REMARK   12  A    between atoms: C_25  and  N_76
REMARK   13  A    between atoms: C_26  and  C_27
REMARK                            x       y       z     vdW  Elec       q    Type
REMARK                         _______ _______ _______ _____ _____    ______ ____
ROOT
ATOM      1  C   UNL     1      -2.944   0.710   1.463  0.00  0.00    +0.119 C 
ATOM      2  C   UNL     1      -3.145   2.013   2.211  0.00  0.00    +0.247 C 
ATOM      3  O   UNL     1      -3.940   2.891   1.952  0.00  0.00    -0.273 OA
ATOM      4  N   UNL     1      -2.256   1.993   3.223  0.00  0.00    -0.224 N 
ATOM      5  C   UNL     1      -1.529   0.870   3.219  0.00  0.00    +0.309 C 
ATOM      6  O   UNL     1      -0.662   0.623   4.035  0.00  0.00    -0.252 OA
ATOM      7  N   UNL     1      -1.864   0.044   2.211  0.00  0.00    -0.284 N 
ATOM      8  H   UNL     1      -1.470  -0.820   2.015  0.00  0.00    +0.151 HD
ENDROOT
BRANCH   1  11
ATOM      9  C   UNL     1      -6.009  -1.076   2.959  0.00  0.00    -0.078 C 
ATOM     10  C   UNL     1      -4.701  -0.282   2.940  0.00  0.00    -0.013 C 
ATOM     11  C   UNL     1      -4.220  -0.135   1.494  0.00  0.00    +0.018 C 
ATOM     12  C   UNL     1      -5.310   0.554   0.668  0.00  0.00    -0.013 C 
ATOM     13  C   UNL     1      -6.601  -0.263   0.754  0.00  0.00    -0.078 C 
ATOM     14  N   UNL     1      -7.024  -0.347   2.168  0.00  0.00    +0.382 N 
ATOM     15  H   UNL     1      -7.120   0.603   2.544  0.00  0.00    -0.081 HD
BRANCH  14  16
ATOM     16  C   UNL     1      -8.328  -1.035   2.264  0.00  0.00    -0.043 C 
BRANCH  16  22
ATOM     17  C   UNL     1     -11.752   2.593   2.666  0.00  0.00    +0.044 C 
ATOM     18  C   UNL     1     -11.022   1.574   1.829  0.00  0.00    -0.050 A 
ATOM     19  C   UNL     1     -11.323   1.439   0.487  0.00  0.00    +0.006 A 
ATOM     20  C   UNL     1     -10.654   0.503  -0.281  0.00  0.00    -0.050 A 
ATOM     21  C   UNL     1      -9.685  -0.297   0.295  0.00  0.00    +0.005 A 
ATOM     22  C   UNL     1      -9.384  -0.162   1.637  0.00  0.00    -0.063 A 
ATOM     23  C   UNL     1     -10.056   0.770   2.405  0.00  0.00    +0.005 A 
ATOM     24  C   UNL     1     -10.982   0.356  -1.744  0.00  0.00    +0.044 C 
ENDBRANCH  16  22
ENDBRANCH  14  16
ENDBRANCH   1  11
BRANCH   4  25
ATOM     25  C   UNL     1      -2.105   3.067   4.207  0.00  0.00    +0.116 C 
BRANCH  25  26
ATOM     26  C   UNL     1      -1.074   4.079   3.704  0.00  0.00    +0.001 C 
BRANCH  26  27
ATOM     27  C   UNL     1      -0.916   5.202   4.731  0.00  0.00    -0.078 C 
BRANCH  27  30
ATOM     28  C   UNL     1      -0.411   6.865   3.046  0.00  0.00    -0.097 C 
ATOM     29  C   UNL     1       0.427   7.133   5.302  0.00  0.00    -0.097 C 
ATOM     30  N   UNL     1       0.097   6.159   4.241  0.00  0.00    +0.376 N 
ATOM     31  H   UNL     1       0.948   5.642   3.986  0.00  0.00    -0.083 HD
ENDBRANCH  27  30
ENDBRANCH  26  27
ENDBRANCH  25  26
ENDBRANCH   4  25
BRANCH   1  32
ATOM     32  C   UNL     1      -2.513   0.978   0.020  0.00  0.00    +0.070 C 
BRANCH  32  33
ATOM     33  C   UNL     1      -1.219   1.750   0.017  0.00  0.00    -0.045 A 
ATOM     34  C   UNL     1      -0.013   1.076   0.008  0.00  0.00    +0.006 A 
ATOM     35  C   UNL     1       1.175   1.783   0.000  0.00  0.00    +0.038 A 
ATOM     36  C   UNL     1       1.156   3.167   0.008  0.00  0.00    +0.123 A 
ATOM     37  C   UNL     1      -0.053   3.842   0.022  0.00  0.00    +0.038 A 
ATOM     38  C   UNL     1      -1.240   3.133   0.030  0.00  0.00    +0.006 A 
ATOM     39  F   UNL     1       2.316   3.859  -0.000  0.00  0.00    -0.205 F 
ENDBRANCH  32  33
ENDBRANCH   1  32
TORSDOF 9
