REMARK  Name = ZINC21080036
REMARK  8 active torsions:
REMARK  status: ('A' for Active; 'I' for Inactive)
REMARK    1  A    between atoms: C_4  and  O_7
REMARK    2  A    between atoms: O_7  and  C_8
REMARK    3  A    between atoms: C_8  and  C_9
REMARK    4  A    between atoms: C_9  and  S_10
REMARK    5  A    between atoms: S_10  and  C_11
REMARK    6  A    between atoms: N_16  and  N_17
REMARK    7  A    between atoms: C_18  and  C_19
REMARK    8  A    between atoms: C_24  and  O_25
REMARK                            x       y       z     vdW  Elec       q    Type
REMARK                         _______ _______ _______ _____ _____    ______ ____
ROOT
ATOM      1  C   UNL     1       6.577  -4.927  -0.090  0.00  0.00    +0.210 A 
ATOM      2  N   UNL     1       7.020  -6.189  -0.107  0.00  0.00    -0.186 NA
ATOM      3  C   UNL     1       8.337  -6.196  -0.119  0.00  0.00    +0.232 A 
ATOM      4  N   UNL     1       8.760  -4.914  -0.111  0.00  0.00    -0.245 N 
ATOM      5  N   UNL     1       7.606  -4.114  -0.097  0.00  0.00    -0.144 NA
ATOM      6  N   UNL     1       9.144  -7.318  -0.138  0.00  0.00    -0.205 N 
ATOM      7  H   UNL     1      10.109  -7.222  -0.145  0.00  0.00    +0.177 HD
ATOM      8  H   UNL     1       9.680  -4.606  -0.116  0.00  0.00    +0.192 HD
ENDROOT
BRANCH   6   9
ATOM      9  N   UNL     1       8.567  -8.595  -0.145  0.00  0.00    -0.187 NA
ATOM     10  C   UNL     1       9.325  -9.649  -0.162  0.00  0.00    +0.142 C 
BRANCH  10  11
ATOM     11  C   UNL     1       8.719 -10.993  -0.170  0.00  0.00    +0.037 A 
ATOM     12  C   UNL     1       9.530 -12.129  -0.182  0.00  0.00    +0.028 A 
ATOM     13  C   UNL     1       8.956 -13.384  -0.189  0.00  0.00    +0.019 A 
ATOM     14  C   UNL     1       7.578 -13.521  -0.184  0.00  0.00    +0.019 A 
ATOM     15  C   UNL     1       6.764 -12.403  -0.172  0.00  0.00    +0.047 A 
ATOM     16  C   UNL     1       7.325 -11.136  -0.159  0.00  0.00    +0.126 A 
ATOM     17 BR   UNL     1      10.055 -14.923  -0.207  0.00  0.00    -0.050 Br
BRANCH  16  18
ATOM     18  O   UNL     1       6.526 -10.038  -0.141  0.00  0.00    -0.506 OA
ATOM     19  H   UNL     1       6.287  -9.711  -1.020  0.00  0.00    +0.292 HD
ENDBRANCH  16  18
ENDBRANCH  10  11
ENDBRANCH   6   9
BRANCH   1  20
ATOM     20  S   UNL     1       4.885  -4.437  -0.070  0.00  0.00    -0.081 S 
BRANCH  20  21
ATOM     21  C   UNL     1       4.954  -2.624  -0.061  0.00  0.00    +0.118 C 
BRANCH  21  22
ATOM     22  C   UNL     1       3.531  -2.060  -0.044  0.00  0.00    +0.240 C 
BRANCH  22  23
ATOM     23  O   UNL     1       3.586  -0.632  -0.037  0.00  0.00    -0.491 OA
BRANCH  23  27
ATOM     24  C   UNL     1      -0.017   1.378   0.010  0.00  0.00    +0.000 A 
ATOM     25  C   UNL     1       1.170   2.088   0.002  0.00  0.00    +0.004 A 
ATOM     26  C   UNL     1       2.377   1.417  -0.013  0.00  0.00    +0.045 A 
ATOM     27  C   UNL     1       2.399   0.030  -0.021  0.00  0.00    +0.121 A 
ATOM     28  C   UNL     1       1.207  -0.680  -0.013  0.00  0.00    +0.045 A 
ATOM     29  C   UNL     1       0.002  -0.004   0.002  0.00  0.00    +0.004 A 
ENDBRANCH  23  27
ENDBRANCH  22  23
ENDBRANCH  21  22
ENDBRANCH  20  21
ENDBRANCH   1  20
TORSDOF 8
