REMARK  Name = ZINC03363151
REMARK  11 active torsions:
REMARK  status: ('A' for Active; 'I' for Inactive)
REMARK    1  A    between atoms: C_1  and  N_2
REMARK    2  A    between atoms: C_3  and  N_35
REMARK    3  A    between atoms: C_4  and  C_11
REMARK    4  A    between atoms: N_7  and  C_10
REMARK    5  A    between atoms: C_11  and  C_13
REMARK    6  A    between atoms: C_13  and  O_14
REMARK    7  A    between atoms: O_14  and  C_15
REMARK    8  A    between atoms: C_15  and  C_17
REMARK    9  A    between atoms: C_22  and  N_23
REMARK   10  A    between atoms: N_23  and  S_24
REMARK   11  A    between atoms: S_24  and  C_27
REMARK                            x       y       z     vdW  Elec       q    Type
REMARK                         _______ _______ _______ _____ _____    ______ ____
ROOT
ATOM      1  C   UNL     1       3.691   1.556   0.398  0.00  0.00    +0.341 C 
ATOM      2  O   UNL     1       3.966   2.737   0.484  0.00  0.00    -0.245 OA
ENDROOT
BRANCH   1   3
ATOM      3  C   UNL     1       4.749   0.573   0.112  0.00  0.00    +0.081 A 
ATOM      4  C   UNL     1       4.439  -0.787   0.018  0.00  0.00    +0.017 A 
ATOM      5  C   UNL     1       5.432  -1.702  -0.255  0.00  0.00    +0.001 A 
ATOM      6  C   UNL     1       6.742  -1.282  -0.426  0.00  0.00    +0.002 A 
ATOM      7  C   UNL     1       7.066   0.055  -0.330  0.00  0.00    +0.025 A 
ATOM      8  C   UNL     1       6.077   0.994  -0.061  0.00  0.00    +0.062 A 
BRANCH   8   9
ATOM      9  N   UNL     1       6.401   2.340   0.036  0.00  0.00    -0.215 N 
ATOM     10  H   UNL     1       5.940   2.905   0.676  0.00  0.00    +0.174 HD
BRANCH   9  11
ATOM     11  S   UNL     1       7.575   2.982  -0.940  0.00  0.00    +0.072 S 
ATOM     12  O   UNL     1       7.576   4.384  -0.705  0.00  0.00    -0.150 OA
ATOM     13  O   UNL     1       8.734   2.179  -0.763  0.00  0.00    -0.150 OA
BRANCH  11  14
ATOM     14  C   UNL     1       7.051   2.751  -2.606  0.00  0.00    +0.111 A 
ATOM     15  C   UNL     1       7.408   1.602  -3.289  0.00  0.00    +0.032 A 
ATOM     16  C   UNL     1       6.994   1.416  -4.594  0.00  0.00    +0.043 A 
ATOM     17  C   UNL     1       6.231   2.385  -5.223  0.00  0.00    +0.159 A 
ATOM     18  C   UNL     1       5.878   3.539  -4.540  0.00  0.00    +0.160 A 
ATOM     19  C   UNL     1       6.290   3.720  -3.231  0.00  0.00    +0.070 A 
ATOM     20  F   UNL     1       5.133   4.485  -5.152  0.00  0.00    -0.202 F 
ATOM     21  F   UNL     1       5.829   2.205  -6.500  0.00  0.00    -0.202 F 
ENDBRANCH  11  14
ENDBRANCH   9  11
ENDBRANCH   8   9
ENDBRANCH   1   3
BRANCH   1  22
ATOM     22  O   UNL     1       2.418   1.148   0.564  0.00  0.00    -0.453 OA
BRANCH  22  23
ATOM     23  C   UNL     1       1.427   2.172   0.843  0.00  0.00    +0.312 C 
BRANCH  23  24
ATOM     24  C   UNL     1       0.072   1.532   0.996  0.00  0.00    +0.209 C 
ATOM     25  O   UNL     1      -0.048   0.329   0.881  0.00  0.00    -0.288 OA
BRANCH  24  29
ATOM     26  C   UNL     1      -4.763   2.020   1.594  0.00  0.00    +0.155 C 
ATOM     27  N   UNL     1      -3.414   2.590   1.562  0.00  0.00    -0.284 N 
ATOM     28  C   UNL     1      -2.351   1.777   1.290  0.00  0.00    +0.116 A 
ATOM     29  C   UNL     1      -1.059   2.331   1.267  0.00  0.00    +0.123 A 
ATOM     30  C   UNL     1      -0.925   3.770   1.529  0.00  0.00    +0.269 A 
ATOM     31  O   UNL     1       0.168   4.305   1.518  0.00  0.00    -0.267 OA
ATOM     32  N   UNL     1      -2.040   4.487   1.783  0.00  0.00    -0.263 N 
ATOM     33  C   UNL     1      -3.248   3.901   1.796  0.00  0.00    +0.333 A 
ATOM     34  O   UNL     1      -4.227   4.582   2.030  0.00  0.00    -0.246 OA
ATOM     35  C   UNL     1      -1.930   5.924   2.046  0.00  0.00    +0.157 C 
BRANCH  28  36
ATOM     36  N   UNL     1      -2.538   0.451   1.049  0.00  0.00    -0.344 N 
ATOM     37  H   UNL     1      -1.793  -0.100   0.763  0.00  0.00    +0.144 HD
ATOM     38  H   UNL     1      -3.417   0.057   1.163  0.00  0.00    +0.144 HD
ENDBRANCH  28  36
ENDBRANCH  24  29
ENDBRANCH  23  24
ENDBRANCH  22  23
ENDBRANCH   1  22
TORSDOF 9
