REMARK  Name = ZINC66603738
REMARK  10 active torsions:
REMARK  status: ('A' for Active; 'I' for Inactive)
REMARK    1  A    between atoms: C_1  and  C_2
REMARK    2  A    between atoms: C_5  and  C_12
REMARK    3  A    between atoms: C_8  and  C_10
REMARK    4  A    between atoms: C_8  and  C_11
REMARK    5  A    between atoms: C_12  and  C_13
REMARK    6  A    between atoms: N_15  and  C_16
REMARK    7  A    between atoms: C_18  and  S_24
REMARK    8  A    between atoms: C_21  and  O_22
REMARK    9  A    between atoms: O_22  and  C_23
REMARK   10  A    between atoms: S_24  and  N_27
REMARK                            x       y       z     vdW  Elec       q    Type
REMARK                         _______ _______ _______ _____ _____    ______ ____
ROOT
ATOM      1  C   UNL     1       2.227  -0.037  -3.737  0.00  0.00    +0.218 C 
ATOM      2  O   UNL     1       1.478   0.894  -3.531  0.00  0.00    -0.275 OA
ATOM      3  N   UNL     1       2.606  -0.331  -4.997  0.00  0.00    -0.283 N 
ATOM      4  H   UNL     1       3.255  -1.034  -5.156  0.00  0.00    +0.155 HD
ENDROOT
BRANCH   3   5
ATOM      5  C   UNL     1       2.062   0.378  -6.075  0.00  0.00    +0.077 A 
ATOM      6  C   UNL     1       1.756   1.724  -5.939  0.00  0.00    +0.055 A 
ATOM      7  C   UNL     1       1.220   2.422  -7.005  0.00  0.00    +0.107 A 
ATOM      8  C   UNL     1       0.988   1.782  -8.208  0.00  0.00    +0.032 A 
ATOM      9  C   UNL     1       1.291   0.441  -8.352  0.00  0.00    +0.049 A 
ATOM     10  C   UNL     1       1.833  -0.265  -7.290  0.00  0.00    +0.141 A 
BRANCH   7  11
ATOM     11  S   UNL     1       0.832   4.132  -6.830  0.00  0.00    +0.056 S 
ATOM     12  O   UNL     1      -0.165   4.423  -7.801  0.00  0.00    -0.153 OA
ATOM     13  O   UNL     1       0.633   4.363  -5.442  0.00  0.00    -0.153 OA
BRANCH  11  14
ATOM     14  N   UNL     1       2.181   4.988  -7.264  0.00  0.00    -0.204 NA
ATOM     15  H   UNL     1       2.982   4.519  -7.548  0.00  0.00    +0.144 HD
ATOM     16  H   UNL     1       2.170   5.957  -7.236  0.00  0.00    +0.144 HD
ENDBRANCH  11  14
ENDBRANCH   7  11
BRANCH  10  17
ATOM     17  O   UNL     1       2.137  -1.583  -7.431  0.00  0.00    -0.493 OA
ATOM     18  C   UNL     1       1.876  -2.176  -8.704  0.00  0.00    +0.277 C 
ENDBRANCH  10  17
ENDBRANCH   3   5
BRANCH   1  19
ATOM     19  C   UNL     1       2.735  -0.865  -2.585  0.00  0.00    +0.099 C 
BRANCH  19  23
ATOM     20  C   UNL     1       0.000   1.539   0.015  0.00  0.00    +0.007 C 
ATOM     21  C   UNL     1       0.027   0.011   0.014  0.00  0.00    -0.013 C 
ATOM     22  C   UNL     1       0.641  -0.514  -1.276  0.00  0.00    +0.007 C 
ATOM     23  C   UNL     1       2.156  -0.322  -1.272  0.00  0.00    -0.002 C 
ATOM     24  C   UNL     1       2.750  -1.105  -0.102  0.00  0.00    +0.010 C 
ATOM     25  C   UNL     1       2.212  -0.584   1.226  0.00  0.00    -0.034 C 
ATOM     26  C   UNL     1       0.695  -0.538   1.258  0.00  0.00    +0.009 C 
ATOM     27  C   UNL     1       2.810   0.792   1.531  0.00  0.00    +0.011 C 
ATOM     28  C   UNL     1       2.684  -1.550   2.335  0.00  0.00    +0.011 C 
ENDBRANCH  19  23
ENDBRANCH   1  19
TORSDOF 6
