REMARK  Name = ZINC00523458
REMARK  8 active torsions:
REMARK  status: ('A' for Active; 'I' for Inactive)
REMARK    1  A    between atoms: C_1  and  C_2
REMARK    2  A    between atoms: C_2  and  O_3
REMARK    3  A    between atoms: O_3  and  C_4
REMARK    4  A    between atoms: C_4  and  C_6
REMARK    5  A    between atoms: C_7  and  N_17
REMARK    6  A    between atoms: N_20  and  C_21
REMARK    7  A    between atoms: C_21  and  C_22
REMARK    8  A    between atoms: C_21  and  C_23
REMARK                            x       y       z     vdW  Elec       q    Type
REMARK                         _______ _______ _______ _____ _____    ______ ____
ROOT
ATOM      1  C   UNL     1       3.293   2.539   0.352  0.00  0.00    +0.147 A 
ATOM      2  C   UNL     1       2.596   1.397   0.015  0.00  0.00    +0.074 A 
ATOM      3  C   UNL     1       1.241   1.823  -0.344  0.00  0.00    +0.023 A 
ATOM      4  C   UNL     1       0.096   1.138  -0.763  0.00  0.00    +0.031 A 
ATOM      5  C   UNL     1      -1.049   1.832  -1.034  0.00  0.00    +0.042 A 
ATOM      6  C   UNL     1      -1.089   3.213  -0.886  0.00  0.00    +0.022 A 
ATOM      7  C   UNL     1       0.026   3.908  -0.474  0.00  0.00    +0.028 A 
ATOM      8  C   UNL     1       1.207   3.222  -0.198  0.00  0.00    +0.049 A 
ATOM      9  N   UNL     1       2.451   3.635   0.222  0.00  0.00    -0.348 N 
ATOM     10  H   UNL     1       2.702   4.555   0.400  0.00  0.00    +0.166 HD
ATOM     11 CL   UNL     1      -2.467   0.981  -1.562  0.00  0.00    -0.084 Cl
ENDROOT
BRANCH   2  12
ATOM     12  N   UNL     1       3.085   0.095   0.015  0.00  0.00    -0.267 N 
ATOM     13  C   UNL     1       2.301  -0.919   0.432  0.00  0.00    +0.304 C 
ATOM     14  O   UNL     1       1.136  -0.711   0.713  0.00  0.00    -0.253 OA
ATOM     15  N   UNL     1       2.808  -2.163   0.539  0.00  0.00    -0.297 N 
ATOM     16  H   UNL     1       3.990  -0.083  -0.285  0.00  0.00    +0.156 HD
ATOM     17  H   UNL     1       3.737  -2.329   0.315  0.00  0.00    +0.151 HD
BRANCH  15  18
ATOM     18  C   UNL     1       1.956  -3.265   0.992  0.00  0.00    +0.068 C 
ATOM     19  C   UNL     1       2.507  -4.589   0.458  0.00  0.00    +0.027 C 
ATOM     20  C   UNL     1       1.938  -3.300   2.522  0.00  0.00    +0.027 C 
ENDBRANCH  15  18
ENDBRANCH   2  12
BRANCH   1  21
ATOM     21  C   UNL     1       4.648   2.586   0.764  0.00  0.00    +0.358 C 
ATOM     22  O   UNL     1       5.327   1.576   0.740  0.00  0.00    -0.243 OA
BRANCH  21  23
ATOM     23  O   UNL     1       5.186   3.750   1.184  0.00  0.00    -0.460 OA
BRANCH  23  25
ATOM     24  C   UNL     1       6.987   5.125   2.026  0.00  0.00    +0.048 C 
ATOM     25  C   UNL     1       6.557   3.724   1.585  0.00  0.00    +0.229 C 
ENDBRANCH  23  25
ENDBRANCH  21  23
ENDBRANCH   1  21
TORSDOF 5
