REMARK  Name = ZINC61881870
REMARK  6 active torsions:
REMARK  status: ('A' for Active; 'I' for Inactive)
REMARK    1  A    between atoms: C_1  and  C_2
REMARK    2  A    between atoms: C_2  and  C_3
REMARK    3  A    between atoms: C_7  and  C_23
REMARK    4  A    between atoms: N_10  and  S_11
REMARK    5  A    between atoms: S_11  and  C_14
REMARK    6  A    between atoms: C_18  and  N_21
REMARK                            x       y       z     vdW  Elec       q    Type
REMARK                         _______ _______ _______ _____ _____    ______ ____
ROOT
ATOM      1  S   UNL     1      -1.256   1.120  -2.294  0.00  0.00    +0.062 S 
ATOM      2  O   UNL     1      -0.746   2.252  -1.603  0.00  0.00    -0.153 OA
ATOM      3  O   UNL     1      -1.899   1.226  -3.557  0.00  0.00    -0.153 OA
ENDROOT
BRANCH   1   4
ATOM      4  C   UNL     1      -2.405   0.342  -1.208  0.00  0.00    +0.123 A 
ATOM      5  C   UNL     1      -2.615   0.857   0.058  0.00  0.00    +0.049 A 
ATOM      6  C   UNL     1      -3.517   0.249   0.914  0.00  0.00    +0.045 A 
ATOM      7  C   UNL     1      -4.209  -0.876   0.506  0.00  0.00    +0.044 A 
ATOM      8  C   UNL     1      -4.000  -1.395  -0.764  0.00  0.00    +0.042 A 
ATOM      9  C   UNL     1      -3.098  -0.778  -1.624  0.00  0.00    +0.065 A 
ATOM     10 BR   UNL     1      -2.814  -1.477  -3.358  0.00  0.00    -0.046 Br
ATOM     11 CL   UNL     1      -3.777   0.899   2.503  0.00  0.00    -0.083 Cl
BRANCH   8  12
ATOM     12  N   UNL     1      -4.698  -2.531  -1.180  0.00  0.00    -0.357 N 
ATOM     13  H   UNL     1      -5.330  -2.959  -0.581  0.00  0.00    +0.142 HD
ATOM     14  H   UNL     1      -4.551  -2.893  -2.068  0.00  0.00    +0.142 HD
ENDBRANCH   8  12
ENDBRANCH   1   4
BRANCH   1  20
ATOM     15  C   UNL     1       0.973  -0.167  -1.407  0.00  0.00    +0.105 C 
ATOM     16  C   UNL     1       1.117  -1.681  -1.217  0.00  0.00    +0.180 C 
ATOM     17  O   UNL     1       1.418  -2.287  -2.476  0.00  0.00    -0.374 OA
ATOM     18  C   UNL     1       0.394  -2.129  -3.461  0.00  0.00    +0.131 C 
ATOM     19  C   UNL     1       0.213  -0.638  -3.766  0.00  0.00    +0.141 C 
ATOM     20  N   UNL     1       0.013   0.076  -2.495  0.00  0.00    -0.169 NA
ATOM     21  C   UNL     1       0.796  -2.868  -4.739  0.00  0.00    +0.039 C 
BRANCH  15  23
ATOM     22  C   UNL     1       1.469   0.228   1.010  0.00  0.00    +0.005 C 
ATOM     23  C   UNL     1       0.458   0.468  -0.114  0.00  0.00    +0.019 C 
ENDBRANCH  15  23
ENDBRANCH   1  20
TORSDOF 4
