REMARK  Name = ZINC12482608
REMARK  12 active torsions:
REMARK  status: ('A' for Active; 'I' for Inactive)
REMARK    1  A    between atoms: C_1  and  C_2
REMARK    2  A    between atoms: C_2  and  C_3
REMARK    3  A    between atoms: C_2  and  C_4
REMARK    4  A    between atoms: C_2  and  N_5
REMARK    5  A    between atoms: C_6  and  C_8
REMARK    6  A    between atoms: C_8  and  C_9
REMARK    7  A    between atoms: C_14  and  C_16
REMARK    8  A    between atoms: C_16  and  C_17
REMARK    9  A    between atoms: C_19  and  C_22
REMARK   10  A    between atoms: C_22  and  N_23
REMARK   11  A    between atoms: N_23  and  C_24
REMARK   12  A    between atoms: N_23  and  C_25
REMARK                            x       y       z     vdW  Elec       q    Type
REMARK                         _______ _______ _______ _____ _____    ______ ____
ROOT
ATOM      1  C   UNL     1       1.507  -4.080   1.220  0.00  0.00    -0.002 C 
ATOM      2  C   UNL     1       0.813  -4.816   2.370  0.00  0.00    -0.015 C 
ATOM      3  C   UNL     1      -0.702  -4.768   2.159  0.00  0.00    -0.082 C 
ATOM      4  C   UNL     1      -0.530  -2.655   0.985  0.00  0.00    -0.079 C 
ATOM      5  C   UNL     1       0.990  -2.640   1.160  0.00  0.00    -0.019 C 
ATOM      6  N   UNL     1      -1.155  -3.365   2.118  0.00  0.00    +0.379 N 
ATOM      7  H   UNL     1      -0.893  -2.898   2.994  0.00  0.00    -0.086 HD
ATOM      8  H   UNL     1      -2.175  -3.342   2.010  0.00  0.00    -0.086 HD
ENDROOT
BRANCH   1   9
ATOM      9  C   UNL     1       1.198  -4.790  -0.100  0.00  0.00    +0.099 C 
BRANCH   9  11
ATOM     10  N   UNL     1       1.671  -6.978  -1.153  0.00  0.00    -0.311 N 
ATOM     11  C   UNL     1       1.814  -6.165  -0.087  0.00  0.00    +0.214 C 
ATOM     12  O   UNL     1       2.438  -6.541   0.882  0.00  0.00    -0.276 OA
ATOM     13  H   UNL     1       1.172  -6.677  -1.929  0.00  0.00    +0.149 HD
BRANCH  10  15
ATOM     14  C   UNL     1       1.688  -9.123   0.021  0.00  0.00    +0.031 C 
ATOM     15  C   UNL     1       2.270  -8.315  -1.141  0.00  0.00    +0.026 C 
ATOM     16  C   UNL     1       1.961  -9.024  -2.461  0.00  0.00    +0.031 C 
ATOM     17  C   UNL     1       3.785  -8.193  -0.969  0.00  0.00    +0.031 C 
ENDBRANCH  10  15
ENDBRANCH   9  11
ENDBRANCH   1   9
BRANCH   5  18
ATOM     18  C   UNL     1       1.633  -1.916  -0.024  0.00  0.00    +0.061 C 
BRANCH  18  19
ATOM     19  C   UNL     1       1.219  -0.467  -0.012  0.00  0.00    +0.084 A 
ATOM     20  C   UNL     1       2.074   0.659  -0.014  0.00  0.00    +0.072 A 
ATOM     21  C   UNL     1       1.225   1.715  -0.000  0.00  0.00    +0.155 A 
ATOM     22  O   UNL     1      -0.014   1.205   0.009  0.00  0.00    -0.358 OA
ATOM     23  N   UNL     1       0.002  -0.004   0.002  0.00  0.00    -0.083 NA
BRANCH  21  24
ATOM     24  C   UNL     1       1.601   3.174   0.003  0.00  0.00    +0.181 C 
BRANCH  24  25
ATOM     25  N   UNL     1       1.709   3.654  -1.377  0.00  0.00    -0.326 N 
ATOM     26  C   UNL     1       2.992   3.578  -2.080  0.00  0.00    +0.129 C 
BRANCH  25  27
ATOM     27  C   UNL     1       0.590   4.184  -2.022  0.00  0.00    +0.030 A 
ATOM     28  C   UNL     1      -0.629   4.252  -1.358  0.00  0.00    +0.023 A 
ATOM     29  C   UNL     1      -1.733   4.781  -1.997  0.00  0.00    +0.002 A 
ATOM     30  C   UNL     1      -1.629   5.233  -3.300  0.00  0.00    +0.000 A 
ATOM     31  C   UNL     1      -0.419   5.162  -3.965  0.00  0.00    +0.002 A 
ATOM     32  C   UNL     1       0.690   4.639  -3.330  0.00  0.00    +0.023 A 
ENDBRANCH  25  27
ENDBRANCH  24  25
ENDBRANCH  21  24
ENDBRANCH  18  19
ENDBRANCH   5  18
TORSDOF 8
