REMARK  Name = ZINC25728353
REMARK  13 active torsions:
REMARK  status: ('A' for Active; 'I' for Inactive)
REMARK    1  A    between atoms: C_1  and  C_2
REMARK    2  A    between atoms: C_2  and  C_3
REMARK    3  A    between atoms: C_2  and  N_4
REMARK    4  A    between atoms: C_5  and  C_7
REMARK    5  A    between atoms: C_7  and  C_8
REMARK    6  A    between atoms: C_11  and  N_14
REMARK    7  A    between atoms: N_14  and  C_15
REMARK    8  A    between atoms: C_15  and  C_16
REMARK    9  A    between atoms: N_18  and  C_19
REMARK   10  A    between atoms: C_22  and  C_25
REMARK   11  A    between atoms: C_25  and  C_26
REMARK   12  A    between atoms: C_25  and  C_27
REMARK   13  A    between atoms: C_25  and  C_28
REMARK                            x       y       z     vdW  Elec       q    Type
REMARK                         _______ _______ _______ _____ _____    ______ ____
ROOT
ATOM      1  N   UNL     1       3.809  -4.703  -0.371  0.00  0.00    -0.335 N 
ATOM      2  H   UNL     1       4.637  -3.978  -0.358  0.00  0.00    +0.147 HD
ENDROOT
BRANCH   1   6
ATOM      3  C   UNL     1       4.611  -8.772  -0.740  0.00  0.00    -0.039 A 
ATOM      4  C   UNL     1       5.653  -7.862  -0.724  0.00  0.00    +0.006 A 
ATOM      5  C   UNL     1       5.390  -6.512  -0.602  0.00  0.00    +0.023 A 
ATOM      6  C   UNL     1       4.078  -6.068  -0.495  0.00  0.00    +0.028 A 
ATOM      7  C   UNL     1       3.035  -6.985  -0.506  0.00  0.00    +0.023 A 
ATOM      8  C   UNL     1       3.304  -8.333  -0.633  0.00  0.00    +0.006 A 
BRANCH   3   9
ATOM      9  C   UNL     1       4.902 -10.245  -0.874  0.00  0.00    +0.130 C 
BRANCH   9  11
ATOM     10  N   UNL     1       5.345 -12.163   0.623  0.00  0.00    -0.313 N 
ATOM     11  C   UNL     1       5.076 -10.849   0.496  0.00  0.00    +0.218 C 
ATOM     12  O   UNL     1       4.974 -10.152   1.483  0.00  0.00    -0.275 OA
ATOM     13  H   UNL     1       5.437 -12.795  -0.273  0.00  0.00    +0.149 HD
BRANCH  10  15
ATOM     14  C   UNL     1       4.145 -13.125   2.525  0.00  0.00    +0.027 C 
ATOM     15  C   UNL     1       5.514 -12.751   1.954  0.00  0.00    +0.067 C 
ATOM     16  C   UNL     1       6.384 -14.005   1.851  0.00  0.00    +0.027 C 
ENDBRANCH  10  15
ENDBRANCH   9  11
ENDBRANCH   3   9
ENDBRANCH   1   6
BRANCH   1  17
ATOM     17  C   UNL     1       2.425  -4.236  -0.258  0.00  0.00    +0.198 C 
BRANCH  17  18
ATOM     18  C   UNL     1       2.410  -2.734  -0.137  0.00  0.00    +0.234 C 
ATOM     19  O   UNL     1       3.452  -2.114  -0.144  0.00  0.00    -0.274 OA
ATOM     20  N   UNL     1       1.237  -2.079  -0.020  0.00  0.00    -0.284 N 
ATOM     21  H   UNL     1       0.298  -2.645   0.073  0.00  0.00    +0.155 HD
BRANCH  20  22
ATOM     22  C   UNL     1       1.214  -0.680  -0.019  0.00  0.00    +0.033 A 
ATOM     23  C   UNL     1       2.137   0.031  -0.774  0.00  0.00    +0.023 A 
ATOM     24  C   UNL     1       2.111   1.412  -0.771  0.00  0.00    +0.006 A 
ATOM     25  C   UNL     1       1.168   2.086  -0.017  0.00  0.00    -0.042 A 
ATOM     26  C   UNL     1       0.248   1.380   0.736  0.00  0.00    +0.006 A 
ATOM     27  C   UNL     1       0.268  -0.001   0.737  0.00  0.00    +0.023 A 
BRANCH  25  28
ATOM     28  C   UNL     1       1.143   3.593  -0.015  0.00  0.00    -0.013 C 
ATOM     29  C   UNL     1       0.910   4.100  -1.440  0.00  0.00    +0.015 C 
ATOM     30  C   UNL     1       0.013   4.083   0.892  0.00  0.00    +0.015 C 
ATOM     31  C   UNL     1       2.481   4.125   0.503  0.00  0.00    +0.015 C 
ENDBRANCH  25  28
ENDBRANCH  20  22
ENDBRANCH  17  18
ENDBRANCH   1  17
TORSDOF 8
