REMARK  Name = ZINC03294443
REMARK  6 active torsions:
REMARK  status: ('A' for Active; 'I' for Inactive)
REMARK    1  A    between atoms: C_4  and  C_7
REMARK    2  A    between atoms: C_7  and  C_30
REMARK    3  A    between atoms: N_10  and  C_14
REMARK    4  A    between atoms: C_14  and  C_15
REMARK    5  A    between atoms: N_17  and  C_18
REMARK    6  A    between atoms: C_19  and  C_28
REMARK                            x       y       z     vdW  Elec       q    Type
REMARK                         _______ _______ _______ _____ _____    ______ ____
ROOT
ATOM      1  C   UNL     1      -1.235   2.107   0.018  0.00  0.00    +0.164 C 
ATOM      2  C   UNL     1      -0.243   1.246  -0.738  0.00  0.00    +0.256 C 
ATOM      3  O   UNL     1      -0.473   0.213  -1.331  0.00  0.00    -0.272 OA
ATOM      4  N   UNL     1       0.946   1.869  -0.620  0.00  0.00    -0.215 N 
ATOM      5  C   UNL     1       0.845   2.991   0.103  0.00  0.00    +0.310 C 
ATOM      6  O   UNL     1       1.783   3.724   0.347  0.00  0.00    -0.252 OA
ATOM      7  N   UNL     1      -0.411   3.216   0.530  0.00  0.00    -0.278 N 
ATOM      8  H   UNL     1      -0.715   3.965   1.066  0.00  0.00    +0.152 HD
ENDROOT
BRANCH   1  12
ATOM      9  C   UNL     1      -4.268   3.568  -2.611  0.00  0.00    +0.000 A 
ATOM     10  C   UNL     1      -3.612   4.439  -1.760  0.00  0.00    +0.000 A 
ATOM     11  C   UNL     1      -2.631   3.966  -0.910  0.00  0.00    +0.006 A 
ATOM     12  C   UNL     1      -2.305   2.623  -0.909  0.00  0.00    -0.011 A 
ATOM     13  C   UNL     1      -2.957   1.753  -1.763  0.00  0.00    +0.006 A 
ATOM     14  C   UNL     1      -3.942   2.224  -2.610  0.00  0.00    +0.000 A 
ENDBRANCH   1  12
BRANCH   1  15
ATOM     15  C   UNL     1      -1.846   1.335   1.159  0.00  0.00    -0.011 A 
ATOM     16  C   UNL     1      -2.405   0.091   0.930  0.00  0.00    +0.006 A 
ATOM     17  C   UNL     1      -2.962  -0.620   1.977  0.00  0.00    +0.000 A 
ATOM     18  C   UNL     1      -2.968  -0.082   3.251  0.00  0.00    +0.000 A 
ATOM     19  C   UNL     1      -2.415   1.164   3.478  0.00  0.00    +0.000 A 
ATOM     20  C   UNL     1      -1.854   1.872   2.432  0.00  0.00    +0.006 A 
ENDBRANCH   1  15
BRANCH   4  21
ATOM     21  C   UNL     1       2.194   1.379  -1.209  0.00  0.00    +0.214 C 
BRANCH  21  22
ATOM     22  C   UNL     1       2.353   1.949  -2.595  0.00  0.00    +0.236 C 
ATOM     23  O   UNL     1       1.507   2.692  -3.046  0.00  0.00    -0.274 OA
ATOM     24  N   UNL     1       3.436   1.634  -3.333  0.00  0.00    -0.278 N 
ATOM     25  H   UNL     1       4.113   1.040  -2.972  0.00  0.00    +0.155 HD
BRANCH  24  26
ATOM     26  C   UNL     1       3.583   2.159  -4.609  0.00  0.00    +0.090 A 
ATOM     27  C   UNL     1       4.617   1.959  -5.509  0.00  0.00    +0.084 A 
ATOM     28  C   UNL     1       4.530   2.625  -6.801  0.00  0.00    -0.018 A 
ATOM     29  C   UNL     1       3.432   3.394  -6.972  0.00  0.00    -0.004 A 
ATOM     30  S   UNL     1       2.521   3.229  -5.462  0.00  0.00    -0.077 S 
ATOM     31  C   UNL     1       3.070   4.219  -8.168  0.00  0.00    +0.043 C 
ATOM     32  C   UNL     1       3.220   3.366  -9.435  0.00  0.00    +0.005 C 
ATOM     33  C   UNL     1       4.649   3.514  -9.949  0.00  0.00    +0.001 C 
ATOM     34  C   UNL     1       5.612   3.697  -8.779  0.00  0.00    +0.005 C 
ATOM     35  C   UNL     1       5.596   2.467  -7.878  0.00  0.00    +0.037 C 
BRANCH  27  36
ATOM     36  C   UNL     1       5.731   1.122  -5.181  0.00  0.00    +0.102 C 
ATOM     37  N   UNL     1       6.616   0.458  -4.921  0.00  0.00    -0.191 NA
ENDBRANCH  27  36
ENDBRANCH  24  26
ENDBRANCH  21  22
ENDBRANCH   4  21
TORSDOF 6
