REMARK  Name = ZINC06933660
REMARK  8 active torsions:
REMARK  status: ('A' for Active; 'I' for Inactive)
REMARK    1  A    between atoms: C_1  and  C_2
REMARK    2  A    between atoms: C_5  and  C_28
REMARK    3  A    between atoms: C_9  and  C_10
REMARK    4  A    between atoms: C_9  and  N_63
REMARK    5  A    between atoms: C_10  and  C_11
REMARK    6  A    between atoms: C_11  and  N_12
REMARK    7  A    between atoms: C_13  and  C_15
REMARK    8  A    between atoms: C_16  and  C_27
REMARK                            x       y       z     vdW  Elec       q    Type
REMARK                         _______ _______ _______ _____ _____    ______ ____
ROOT
ATOM      1  N   UNL     1       2.207   0.779  -6.082  0.00  0.00    -0.312 N 
ATOM      2  C   UNL     1       2.668   0.623  -7.339  0.00  0.00    +0.244 C 
ATOM      3  O   UNL     1       3.608  -0.118  -7.553  0.00  0.00    -0.270 OA
ATOM      4  H   UNL     1       1.457   1.370  -5.911  0.00  0.00    +0.149 HD
ENDROOT
BRANCH   2   5
ATOM      5  C   UNL     1       2.032   1.351  -8.455  0.00  0.00    +0.067 C 
ATOM      6  C   UNL     1       2.387   1.297  -9.746  0.00  0.00    +0.045 C 
ATOM      7  C   UNL     1       1.499   2.167 -10.531  0.00  0.00    +0.336 C 
ATOM      8  O   UNL     1       1.566   2.330 -11.732  0.00  0.00    -0.245 OA
ATOM      9  O   UNL     1       0.605   2.759  -9.722  0.00  0.00    -0.450 OA
ATOM     10  C   UNL     1       0.858   2.307  -8.355  0.00  0.00    +0.144 C 
ATOM     11  C   UNL     1       1.328   3.536  -7.540  0.00  0.00    +0.053 C 
ATOM     12  C   UNL     1       0.442   4.706  -7.861  0.00  0.00    +0.004 C 
ATOM     13  C   UNL     1      -0.727   4.859  -6.867  0.00  0.00    +0.000 C 
ATOM     14  C   UNL     1      -1.379   3.513  -6.499  0.00  0.00    +0.000 C 
ATOM     15  C   UNL     1      -1.534   2.612  -7.695  0.00  0.00    +0.004 C 
ATOM     16  C   UNL     1      -0.314   1.676  -7.758  0.00  0.00    +0.053 C 
ATOM     17  C   UNL     1       3.517   0.471 -10.306  0.00  0.00    +0.052 C 
ENDBRANCH   2   5
BRANCH   1  18
ATOM     18  C   UNL     1       2.837   0.057  -4.975  0.00  0.00    +0.102 C 
BRANCH  18  19
ATOM     19  C   UNL     1       2.128   0.410  -3.666  0.00  0.00    +0.000 C 
BRANCH  19  20
ATOM     20  C   UNL     1       2.787  -0.345  -2.509  0.00  0.00    -0.077 C 
BRANCH  20  28
ATOM     21  C   UNL     1      -0.019   1.526   0.010  0.00  0.00    +0.005 C 
ATOM     22  C   UNL     1       0.002  -0.004   0.002  0.00  0.00    -0.031 C 
ATOM     23  C   UNL     1       0.743  -0.512   1.242  0.00  0.00    +0.003 C 
ATOM     24  C   UNL     1       2.194  -0.026   1.196  0.00  0.00    -0.031 C 
ATOM     25  C   UNL     1       2.851  -0.519  -0.096  0.00  0.00    -0.076 C 
ATOM     26  C   UNL     1       0.723  -0.498  -1.254  0.00  0.00    -0.076 C 
ATOM     27  C   UNL     1       2.957  -0.579   2.401  0.00  0.00    +0.005 C 
ATOM     28  N   UNL     1       2.106   0.024  -1.251  0.00  0.00    +0.380 N 
ATOM     29  H   UNL     1       2.075   1.047  -1.176  0.00  0.00    -0.082 HD
ENDBRANCH  20  28
ENDBRANCH  19  20
ENDBRANCH  18  19
ENDBRANCH   1  18
TORSDOF 5
