REMARK  Name = ZINC38682952
REMARK  12 active torsions:
REMARK  status: ('A' for Active; 'I' for Inactive)
REMARK    1  A    between atoms: C_1  and  C_2
REMARK    2  A    between atoms: C_2  and  C_3
REMARK    3  A    between atoms: C_3  and  C_4
REMARK    4  A    between atoms: C_4  and  O_5
REMARK    5  A    between atoms: O_5  and  C_6
REMARK    6  A    between atoms: C_11  and  C_12
REMARK    7  A    between atoms: C_17  and  O_26
REMARK    8  A    between atoms: C_21  and  N_25
REMARK    9  A    between atoms: C_22  and  C_23
REMARK   10  A    between atoms: O_26  and  C_27
REMARK   11  A    between atoms: C_27  and  C_29
REMARK   12  A    between atoms: C_29  and  C_30
REMARK                            x       y       z     vdW  Elec       q    Type
REMARK                         _______ _______ _______ _____ _____    ______ ____
ROOT
ATOM      1  C   UNL     1       2.854  -3.522   4.682  0.00  0.00    +0.101 C 
ATOM      2  C   UNL     1       2.203  -3.781   6.014  0.00  0.00    +0.008 A 
ATOM      3  C   UNL     1       0.970  -3.218   6.290  0.00  0.00    +0.012 A 
ATOM      4  C   UNL     1       0.357  -3.445   7.507  0.00  0.00    +0.047 A 
ATOM      5  C   UNL     1       0.979  -4.240   8.459  0.00  0.00    +0.135 A 
ATOM      6  C   UNL     1       2.214  -4.806   8.186  0.00  0.00    +0.093 A 
ATOM      7  C   UNL     1       2.828  -4.578   6.961  0.00  0.00    +0.138 A 
ATOM      8  O   UNL     1       4.037  -5.138   6.710  0.00  0.00    -0.441 OA
ATOM      9  C   UNL     1       4.816  -4.642   5.734  0.00  0.00    +0.199 C 
ATOM     10  C   UNL     1       4.315  -3.871   4.744  0.00  0.00    +0.098 C 
ENDROOT
BRANCH   1  16
ATOM     11  C   UNL     1       1.562  -3.758   2.546  0.00  0.00    +0.125 A 
ATOM     12  C   UNL     1       0.951  -4.537   1.574  0.00  0.00    +0.046 A 
ATOM     13  C   UNL     1       0.960  -5.913   1.686  0.00  0.00    +0.004 A 
ATOM     14  C   UNL     1       1.577  -6.516   2.767  0.00  0.00    +0.001 A 
ATOM     15  C   UNL     1       2.186  -5.742   3.738  0.00  0.00    +0.008 A 
ATOM     16  C   UNL     1       2.185  -4.365   3.627  0.00  0.00    +0.007 A 
BRANCH  11  17
ATOM     17  O   UNL     1       1.555  -2.403   2.437  0.00  0.00    -0.492 OA
BRANCH  17  18
ATOM     18  C   UNL     1       0.894  -1.848   1.298  0.00  0.00    +0.229 C 
BRANCH  18  19
ATOM     19  C   UNL     1       0.990  -0.321   1.348  0.00  0.00    +0.041 C 
BRANCH  19  21
ATOM     20  C   UNL     1       0.379   1.800   0.178  0.00  0.00    +0.004 C 
ATOM     21  C   UNL     1       0.283   0.274   0.128  0.00  0.00    -0.000 C 
ENDBRANCH  19  21
ENDBRANCH  18  19
ENDBRANCH  17  18
ENDBRANCH  11  17
ENDBRANCH   1  16
BRANCH   9  22
ATOM     22  N   UNL     1       6.158  -4.928   5.743  0.00  0.00    -0.328 N 
ATOM     23  H   UNL     1       6.531  -5.481   6.447  0.00  0.00    +0.145 HD
ATOM     24  H   UNL     1       6.733  -4.577   5.045  0.00  0.00    +0.145 HD
ENDBRANCH   9  22
BRANCH  10  25
ATOM     25  C   UNL     1       5.199  -3.375   3.733  0.00  0.00    +0.101 C 
ATOM     26  N   UNL     1       5.900  -2.981   2.930  0.00  0.00    -0.191 NA
ENDBRANCH  10  25
BRANCH   5  27
ATOM     27  O   UNL     1       0.378  -4.464   9.657  0.00  0.00    -0.425 OA
BRANCH  27  28
ATOM     28  C   UNL     1       0.927  -3.912  10.751  0.00  0.00    +0.317 C 
ATOM     29  O   UNL     1       1.863  -3.156  10.640  0.00  0.00    -0.250 OA
BRANCH  28  30
ATOM     30  C   UNL     1       0.376  -4.234  12.116  0.00  0.00    +0.156 C 
BRANCH  30  31
ATOM     31  C   UNL     1       1.163  -3.491  13.164  0.00  0.00    -0.029 A 
ATOM     32  C   UNL     1       2.206  -4.098  13.794  0.00  0.00    +0.005 A 
ATOM     33  C   UNL     1       2.945  -3.427  14.766  0.00  0.00    +0.001 A 
ATOM     34  C   UNL     1       2.646  -2.146  15.114  0.00  0.00    +0.008 A 
ATOM     35  C   UNL     1       1.577  -1.486  14.485  0.00  0.00    -0.018 A 
ATOM     36  C   UNL     1       0.828  -2.167  13.492  0.00  0.00    -0.014 A 
ATOM     37  C   UNL     1      -0.238  -1.505  12.858  0.00  0.00    +0.009 A 
ATOM     38  C   UNL     1      -0.533  -0.222  13.202  0.00  0.00    +0.001 A 
ATOM     39  C   UNL     1       0.207   0.449  14.174  0.00  0.00    +0.001 A 
ATOM     40  C   UNL     1       1.238  -0.164  14.817  0.00  0.00    +0.008 A 
ENDBRANCH  30  31
ENDBRANCH  28  30
ENDBRANCH  27  28
ENDBRANCH   5  27
TORSDOF 11
