REMARK  Name = ZINC36486069
REMARK  15 active torsions:
REMARK  status: ('A' for Active; 'I' for Inactive)
REMARK    1  A    between atoms: C_1  and  C_2
REMARK    2  A    between atoms: C_2  and  C_4
REMARK    3  A    between atoms: C_2  and  C_33
REMARK    4  A    between atoms: C_4  and  C_5
REMARK    5  A    between atoms: N_7  and  C_8
REMARK    6  A    between atoms: N_7  and  C_15
REMARK    7  A    between atoms: C_15  and  C_17
REMARK    8  A    between atoms: C_15  and  C_26
REMARK    9  A    between atoms: C_18  and  O_25
REMARK   10  A    between atoms: C_20  and  O_24
REMARK   11  A    between atoms: C_22  and  O_23
REMARK   12  A    between atoms: N_28  and  C_29
REMARK   13  A    between atoms: C_29  and  C_30
REMARK   14  A    between atoms: C_29  and  C_31
REMARK   15  A    between atoms: C_29  and  C_32
REMARK                            x       y       z     vdW  Elec       q    Type
REMARK                         _______ _______ _______ _____ _____    ______ ____
ROOT
ATOM      1  C   UNL     1       4.371   0.182   2.161  0.00  0.00    +0.204 C 
ENDROOT
BRANCH   1   2
ATOM      2  C   UNL     1       5.011   0.042   3.518  0.00  0.00    +0.065 A 
ATOM      3  C   UNL     1       4.989  -1.180   4.173  0.00  0.00    +0.129 A 
ATOM      4  C   UNL     1       5.578  -1.309   5.421  0.00  0.00    +0.091 A 
ATOM      5  C   UNL     1       6.189  -0.215   6.015  0.00  0.00    +0.124 A 
ATOM      6  C   UNL     1       6.213   1.007   5.360  0.00  0.00    +0.091 A 
ATOM      7  C   UNL     1       5.628   1.134   4.109  0.00  0.00    +0.129 A 
BRANCH   7   8
ATOM      8  O   UNL     1       5.654   2.331   3.465  0.00  0.00    -0.506 OA
ATOM      9  H   UNL     1       4.898   2.901   3.662  0.00  0.00    +0.292 HD
ENDBRANCH   7   8
BRANCH   5  10
ATOM     10  O   UNL     1       6.766  -0.341   7.239  0.00  0.00    -0.507 OA
ATOM     11  H   UNL     1       7.698  -0.597   7.211  0.00  0.00    +0.292 HD
ENDBRANCH   5  10
BRANCH   3  12
ATOM     12  O   UNL     1       4.389  -2.252   3.591  0.00  0.00    -0.506 OA
ATOM     13  H   UNL     1       4.996  -2.825   3.103  0.00  0.00    +0.292 HD
ENDBRANCH   3  12
ENDBRANCH   1   2
BRANCH   1  14
ATOM     14  C   UNL     1       5.057  -0.739   1.185  0.00  0.00    +0.239 C 
ATOM     15  O   UNL     1       4.423  -1.605   0.620  0.00  0.00    -0.273 OA
ATOM     16  N   UNL     1       6.375  -0.599   0.939  0.00  0.00    -0.309 N 
ATOM     17  H   UNL     1       6.882   0.094   1.390  0.00  0.00    +0.149 HD
BRANCH  16  18
ATOM     18  C   UNL     1       7.042  -1.494  -0.010  0.00  0.00    +0.026 C 
ATOM     19  C   UNL     1       6.392  -1.352  -1.388  0.00  0.00    +0.031 C 
ATOM     20  C   UNL     1       8.524  -1.124  -0.105  0.00  0.00    +0.031 C 
ATOM     21  C   UNL     1       6.907  -2.940   0.471  0.00  0.00    +0.031 C 
ENDBRANCH  16  18
ENDBRANCH   1  14
BRANCH   1  24
ATOM     22  C   UNL     1       2.163  -0.076   1.163  0.00  0.00    +0.221 C 
ATOM     23  O   UNL     1       2.643   0.221   0.089  0.00  0.00    -0.275 OA
ATOM     24  N   UNL     1       2.952  -0.172   2.251  0.00  0.00    -0.255 N 
BRANCH  24  25
ATOM     25  C   UNL     1       2.417  -0.610   3.467  0.00  0.00    +0.039 A 
ATOM     26  C   UNL     1       1.905  -1.896   3.579  0.00  0.00    +0.023 A 
ATOM     27  C   UNL     1       1.377  -2.326   4.781  0.00  0.00    +0.003 A 
ATOM     28  C   UNL     1       1.357  -1.477   5.873  0.00  0.00    +0.020 A 
ATOM     29  C   UNL     1       1.866  -0.195   5.765  0.00  0.00    +0.043 A 
ATOM     30  C   UNL     1       2.401   0.239   4.566  0.00  0.00    +0.043 A 
ATOM     31 CL   UNL     1       1.839   0.867   7.138  0.00  0.00    -0.083 Cl
ENDBRANCH  24  25
BRANCH  22  32
ATOM     32  C   UNL     1       0.683  -0.337   1.280  0.00  0.00    +0.104 C 
BRANCH  32  34
ATOM     33  C   UNL     1       0.126   1.490  -0.331  0.00  0.00    +0.013 C 
ATOM     34  C   UNL     1       0.001  -0.009  -0.050  0.00  0.00    +0.025 C 
BRANCH  34  35
ATOM     35  C   UNL     1      -1.456  -0.385   0.027  0.00  0.00    -0.044 A 
ATOM     36  C   UNL     1      -2.274   0.206   0.972  0.00  0.00    +0.004 A 
ATOM     37  C   UNL     1      -3.611  -0.139   1.042  0.00  0.00    +0.000 A 
ATOM     38  C   UNL     1      -4.130  -1.075   0.168  0.00  0.00    +0.000 A 
ATOM     39  C   UNL     1      -3.312  -1.666  -0.778  0.00  0.00    +0.000 A 
ATOM     40  C   UNL     1      -1.976  -1.317  -0.851  0.00  0.00    +0.004 A 
ENDBRANCH  34  35
ENDBRANCH  32  34
ENDBRANCH  22  32
ENDBRANCH   1  24
TORSDOF 11
