REMARK  Name = ZINC39324405
REMARK  8 active torsions:
REMARK  status: ('A' for Active; 'I' for Inactive)
REMARK    1  A    between atoms: C_1  and  C_2
REMARK    2  A    between atoms: C_2  and  C_3
REMARK    3  A    between atoms: C_2  and  C_4
REMARK    4  A    between atoms: C_2  and  C_5
REMARK    5  A    between atoms: C_9  and  C_10
REMARK    6  A    between atoms: C_19  and  C_27
REMARK    7  A    between atoms: C_21  and  C_25
REMARK    8  A    between atoms: C_22  and  N_24
REMARK                            x       y       z     vdW  Elec       q    Type
REMARK                         _______ _______ _______ _____ _____    ______ ____
ROOT
ATOM      1  C   UNL     1       0.432  -0.288  -1.675  0.00  0.00    +0.003 C 
ATOM      2  C   UNL     1       0.489  -1.812  -1.492  0.00  0.00    +0.043 C 
ATOM      3  C   UNL     1       1.312  -2.361  -2.636  0.00  0.00    -0.004 C 
ATOM      4  C   UNL     1       0.944  -3.487  -3.272  0.00  0.00    +0.015 C 
ATOM      5  C   UNL     1       2.530  -1.628  -3.036  0.00  0.00    +0.133 C 
ATOM      6  C   UNL     1       2.777  -0.411  -2.555  0.00  0.00    -0.014 C 
ATOM      7  C   UNL     1       1.847   0.274  -1.586  0.00  0.00    +0.039 C 
ATOM      8  C   UNL     1       4.021   0.336  -2.979  0.00  0.00    +0.094 C 
ATOM      9  C   UNL     1       5.035  -0.613  -3.551  0.00  0.00    +0.098 C 
ATOM     10  C   UNL     1       4.660  -1.844  -3.981  0.00  0.00    +0.199 C 
ATOM     11  O   UNL     1       3.378  -2.237  -3.904  0.00  0.00    -0.441 OA
ENDROOT
BRANCH   4  12
ATOM     12  C   UNL     1      -0.174  -4.295  -2.754  0.00  0.00    -0.025 A 
ATOM     13  C   UNL     1      -1.002  -4.997  -3.635  0.00  0.00    +0.008 A 
ATOM     14  C   UNL     1      -2.046  -5.751  -3.141  0.00  0.00    +0.001 A 
ATOM     15  C   UNL     1      -2.276  -5.812  -1.778  0.00  0.00    +0.000 A 
ATOM     16  C   UNL     1      -1.461  -5.120  -0.900  0.00  0.00    +0.001 A 
ATOM     17  C   UNL     1      -0.409  -4.367  -1.378  0.00  0.00    +0.008 A 
ENDBRANCH   4  12
BRANCH   8  18
ATOM     18  C   UNL     1       3.657   1.359  -4.024  0.00  0.00    -0.035 A 
ATOM     19  C   UNL     1       3.080   0.955  -5.214  0.00  0.00    +0.004 A 
ATOM     20  C   UNL     1       2.746   1.893  -6.173  0.00  0.00    +0.000 A 
ATOM     21  C   UNL     1       2.988   3.234  -5.942  0.00  0.00    +0.000 A 
ATOM     22  C   UNL     1       3.564   3.638  -4.752  0.00  0.00    +0.000 A 
ATOM     23  C   UNL     1       3.895   2.700  -3.791  0.00  0.00    +0.004 A 
ENDBRANCH   8  18
BRANCH   1  25
ATOM     24  C   UNL     1      -0.484   1.847  -0.755  0.00  0.00    +0.011 C 
ATOM     25  C   UNL     1      -0.434   0.329  -0.574  0.00  0.00    -0.034 C 
ATOM     26  C   UNL     1       0.166  -0.003   0.793  0.00  0.00    +0.011 C 
ATOM     27  C   UNL     1      -1.851  -0.241  -0.661  0.00  0.00    +0.011 C 
ENDBRANCH   1  25
BRANCH  10  28
ATOM     28  N   UNL     1       5.602  -2.698  -4.499  0.00  0.00    -0.328 N 
ATOM     29  H   UNL     1       6.530  -2.420  -4.557  0.00  0.00    +0.145 HD
ATOM     30  H   UNL     1       5.340  -3.579  -4.808  0.00  0.00    +0.145 HD
ENDBRANCH  10  28
BRANCH   9  31
ATOM     31  C   UNL     1       6.407  -0.216  -3.643  0.00  0.00    +0.101 C 
ATOM     32  N   UNL     1       7.497   0.099  -3.716  0.00  0.00    -0.191 NA
ENDBRANCH   9  31
TORSDOF 5
