REMARK  Name = ZINC07984382
REMARK  10 active torsions:
REMARK  status: ('A' for Active; 'I' for Inactive)
REMARK    1  A    between atoms: C_1  and  C_2
REMARK    2  A    between atoms: C_4  and  C_17
REMARK    3  A    between atoms: C_5  and  C_16
REMARK    4  A    between atoms: N_6  and  C_7
REMARK    5  A    between atoms: C_17  and  N_58
REMARK    6  A    between atoms: C_18  and  N_58
REMARK    7  A    between atoms: C_20  and  C_25
REMARK    8  A    between atoms: C_20  and  C_26
REMARK    9  A    between atoms: C_21  and  C_23
REMARK   10  A    between atoms: C_21  and  C_24
REMARK                            x       y       z     vdW  Elec       q    Type
REMARK                         _______ _______ _______ _____ _____    ______ ____
ROOT
ATOM      1  C   UNL     1       3.170   6.375  -7.846  0.00  0.00    +0.064 C 
ATOM      2  C   UNL     1       2.214   5.526  -7.046  0.00  0.00    +0.021 A 
ATOM      3  C   UNL     1       2.044   5.572  -5.709  0.00  0.00    +0.024 A 
ATOM      4  C   UNL     1       1.064   4.617  -5.374  0.00  0.00    -0.043 A 
ATOM      5  C   UNL     1       0.663   4.029  -6.520  0.00  0.00    +0.022 A 
ATOM      6  N   UNL     1       1.366   4.583  -7.552  0.00  0.00    -0.317 N 
ATOM      7  C   UNL     1      -0.379   2.948  -6.641  0.00  0.00    +0.064 C 
ENDROOT
BRANCH   6   8
ATOM      8  C   UNL     1       1.238   4.239  -8.906  0.00  0.00    +0.050 A 
ATOM      9  C   UNL     1       0.047   4.485  -9.575  0.00  0.00    +0.030 A 
ATOM     10  C   UNL     1      -0.081   4.147 -10.909  0.00  0.00    +0.051 A 
ATOM     11  C   UNL     1       0.980   3.563 -11.582  0.00  0.00    +0.166 A 
ATOM     12  C   UNL     1       2.176   3.315 -10.914  0.00  0.00    +0.168 A 
ATOM     13  C   UNL     1       2.305   3.659  -9.578  0.00  0.00    +0.075 A 
ATOM     14  O   UNL     1       3.054   2.741 -11.787  0.00  0.00    -0.453 OA
ATOM     15  C   UNL     1       2.250   2.266 -12.883  0.00  0.00    +0.466 C 
ATOM     16  O   UNL     1       1.109   3.144 -12.876  0.00  0.00    -0.453 OA
ENDBRANCH   6   8
BRANCH   4  17
ATOM     17  C   UNL     1       0.552   4.313  -3.990  0.00  0.00    -0.045 C 
BRANCH  17  18
ATOM     18  N   UNL     1       1.212   3.093  -3.487  0.00  0.00    +0.384 N 
ATOM     19  H   UNL     1       2.227   3.245  -3.458  0.00  0.00    -0.085 HD
ATOM     20  H   UNL     1       1.000   2.310  -4.117  0.00  0.00    -0.085 HD
BRANCH  18  21
ATOM     21  C   UNL     1       0.727   2.770  -2.128  0.00  0.00    -0.074 C 
ATOM     22  C   UNL     1       1.795   1.952  -1.403  0.00  0.00    -0.029 C 
ATOM     23  C   UNL     1       1.318   1.579  -0.002  0.00  0.00    -0.075 C 
ATOM     24  C   UNL     1      -1.048   1.551  -0.843  0.00  0.00    -0.075 C 
ATOM     25  C   UNL     1      -0.543   1.927  -2.233  0.00  0.00    -0.029 C 
ATOM     26  C   UNL     1      -2.143   0.475  -1.020  0.00  0.00    -0.010 C 
ATOM     27  C   UNL     1      -1.713   2.771  -0.192  0.00  0.00    -0.010 C 
ATOM     28  C   UNL     1       1.397   2.808   0.911  0.00  0.00    -0.010 C 
ATOM     29  C   UNL     1       2.301   0.528   0.560  0.00  0.00    -0.010 C 
ATOM     30  N   UNL     1      -0.027   0.945   0.053  0.00  0.00    +0.386 N 
ATOM     31  H   UNL     1      -0.371   1.013   1.018  0.00  0.00    -0.084 HD
ATOM     32  H   UNL     1       0.076  -0.043  -0.205  0.00  0.00    -0.084 HD
ENDBRANCH  18  21
ENDBRANCH  17  18
ENDBRANCH   4  17
TORSDOF 4
