REMARK  Name = ZINC28717762
REMARK  5 active torsions:
REMARK  status: ('A' for Active; 'I' for Inactive)
REMARK    1  A    between atoms: C_6  and  S_7
REMARK    2  A    between atoms: S_7  and  N_10
REMARK    3  A    between atoms: C_13  and  C_16
REMARK    4  A    between atoms: N_18  and  N_19
REMARK    5  A    between atoms: C_20  and  C_22
REMARK                            x       y       z     vdW  Elec       q    Type
REMARK                         _______ _______ _______ _____ _____    ______ ____
ROOT
ATOM      1  N   UNL     1       1.154   4.329   1.596  0.00  0.00    -0.177 NA
ATOM      2  C   UNL     1      -0.107   4.535   2.322  0.00  0.00    +0.110 C 
ATOM      3  C   UNL     1      -0.106   5.935   2.932  0.00  0.00    +0.030 C 
ATOM      4  C   UNL     1       1.149   6.116   3.788  0.00  0.00    +0.079 C 
ATOM      5  C   UNL     1       2.394   5.970   2.909  0.00  0.00    +0.030 C 
ATOM      6  C   UNL     1       2.422   4.565   2.300  0.00  0.00    +0.110 C 
ENDROOT
BRANCH   4   7
ATOM      7  C   UNL     1       1.136   7.486   4.416  0.00  0.00    +0.232 C 
ATOM      8  O   UNL     1       2.033   8.268   4.184  0.00  0.00    -0.274 OA
ATOM      9  N   UNL     1       0.128   7.841   5.236  0.00  0.00    -0.234 N 
ATOM     10  H   UNL     1      -0.686   7.132   5.447  0.00  0.00    +0.173 HD
BRANCH   9  11
ATOM     11  N   UNL     1       0.115   9.115   5.820  0.00  0.00    -0.229 N 
ATOM     12  C   UNL     1      -0.893   9.471   6.640  0.00  0.00    +0.276 C 
ATOM     13  O   UNL     1      -1.794   8.686   6.873  0.00  0.00    -0.267 OA
ATOM     14  H   UNL     1       0.929   9.825   5.609  0.00  0.00    +0.173 HD
BRANCH  12  15
ATOM     15  C   UNL     1      -0.906  10.804   7.251  0.00  0.00    +0.104 A 
ATOM     16  C   UNL     1      -1.872  11.302   8.100  0.00  0.00    +0.047 A 
ATOM     17  C   UNL     1      -1.487  12.602   8.443  0.00  0.00    +0.036 A 
ATOM     18  C   UNL     1      -0.323  12.873   7.805  0.00  0.00    +0.098 A 
ATOM     19  N   UNL     1       0.040  11.788   7.077  0.00  0.00    -0.356 N 
ATOM     20  H   UNL     1       0.909  11.606   6.427  0.00  0.00    +0.166 HD
ATOM     21 BR   UNL     1      -2.427  13.776   9.589  0.00  0.00    -0.049 Br
ENDBRANCH  12  15
ENDBRANCH   9  11
ENDBRANCH   4   7
BRANCH   1  22
ATOM     22  S   UNL     1       1.146   3.847   0.011  0.00  0.00    +0.061 S 
ATOM     23  O   UNL     1       2.380   4.274  -0.549  0.00  0.00    -0.153 OA
ATOM     24  O   UNL     1      -0.110   4.239  -0.526  0.00  0.00    -0.153 OA
BRANCH  22  30
ATOM     25  C   UNL     1      -0.017   1.378   0.010  0.00  0.00    +0.030 A 
ATOM     26  C   UNL     1       0.002  -0.004   0.002  0.00  0.00    +0.022 A 
ATOM     27  C   UNL     1       1.210  -0.679  -0.013  0.00  0.00    +0.041 A 
ATOM     28  C   UNL     1       2.398   0.030  -0.021  0.00  0.00    +0.022 A 
ATOM     29  C   UNL     1       2.378   1.412  -0.013  0.00  0.00    +0.030 A 
ATOM     30  C   UNL     1       1.171   2.086   0.002  0.00  0.00    +0.106 A 
ATOM     31 CL   UNL     1       1.234  -2.415  -0.022  0.00  0.00    -0.084 Cl
ENDBRANCH  22  30
ENDBRANCH   1  22
TORSDOF 5
