REMARK  Name = ZINC18330536
REMARK  9 active torsions:
REMARK  status: ('A' for Active; 'I' for Inactive)
REMARK    1  A    between atoms: C_1  and  C_2
REMARK    2  A    between atoms: C_2  and  O_3
REMARK    3  A    between atoms: O_3  and  C_4
REMARK    4  A    between atoms: C_9  and  N_10
REMARK    5  A    between atoms: C_14  and  S_16
REMARK    6  A    between atoms: S_16  and  C_17
REMARK    7  A    between atoms: C_17  and  C_19
REMARK    8  A    between atoms: C_17  and  C_20
REMARK    9  A    between atoms: C_26  and  C_31
REMARK                            x       y       z     vdW  Elec       q    Type
REMARK                         _______ _______ _______ _____ _____    ______ ____
ROOT
ATOM      1  C   UNL     1      -5.880  -0.429   3.164  0.00  0.00    +0.116 C 
ATOM      2  C   UNL     1      -5.811  -1.627   4.113  0.00  0.00    +0.027 C 
ENDROOT
BRANCH   1   3
ATOM      3  C   UNL     1      -4.673  -0.433   2.261  0.00  0.00    +0.124 A 
ATOM      4  N   UNL     1      -3.585   0.305   2.599  0.00  0.00    -0.309 N 
ATOM      5  H   UNL     1      -3.599   0.826   3.417  0.00  0.00    +0.170 HD
ATOM      6  C   UNL     1      -2.487   0.329   1.821  0.00  0.00    +0.260 A 
ATOM      7  O   UNL     1      -1.518   0.996   2.139  0.00  0.00    -0.267 OA
ATOM      8  C   UNL     1      -2.473  -0.446   0.618  0.00  0.00    +0.083 A 
ATOM      9  C   UNL     1      -1.418  -0.579  -0.382  0.00  0.00    +0.039 A 
ATOM     10  C   UNL     1      -1.638  -1.376  -1.458  0.00  0.00    +0.059 A 
ATOM     11  S   UNL     1      -3.289  -1.991  -1.185  0.00  0.00    -0.076 S 
ATOM     12  C   UNL     1      -3.644  -1.173   0.348  0.00  0.00    +0.116 A 
ATOM     13  N   UNL     1      -4.692  -1.146   1.168  0.00  0.00    -0.225 NA
BRANCH   9  14
ATOM     14  C   UNL     1      -0.136   0.136  -0.223  0.00  0.00    +0.136 A 
ATOM     15  C   UNL     1       1.103  -0.416  -0.321  0.00  0.00    +0.050 A 
ATOM     16  C   UNL     1       2.030   0.623  -0.100  0.00  0.00    +0.042 A 
ATOM     17  C   UNL     1       1.319   1.746   0.119  0.00  0.00    +0.196 A 
ATOM     18  O   UNL     1       0.010   1.448   0.044  0.00  0.00    -0.463 OA
ENDBRANCH   9  14
ENDBRANCH   1   3
BRANCH   1  19
ATOM     19  S   UNL     1      -5.908   1.106   4.130  0.00  0.00    -0.086 S 
BRANCH  19  24
ATOM     20  N   UNL     1     -10.684   1.643   7.373  0.00  0.00    -0.289 N 
ATOM     21  C   UNL     1      -9.637   1.302   6.524  0.00  0.00    +0.187 A 
ATOM     22  N   UNL     1      -9.487   0.230   5.771  0.00  0.00    -0.125 NA
ATOM     23  N   UNL     1      -8.362   0.092   4.992  0.00  0.00    -0.133 NA
ATOM     24  C   UNL     1      -7.432   1.028   5.011  0.00  0.00    +0.161 A 
ATOM     25  S   UNL     1      -8.135   2.198   6.163  0.00  0.00    -0.024 S 
ATOM     26  H   UNL     1     -10.697   2.513   7.801  0.00  0.00    +0.154 HD
BRANCH  20  32
ATOM     27  C   UNL     1     -12.853   1.128   8.314  0.00  0.00    +0.142 A 
ATOM     28  C   UNL     1     -13.876   0.222   8.540  0.00  0.00    +0.047 A 
ATOM     29  C   UNL     1     -13.767  -1.075   8.075  0.00  0.00    +0.004 A 
ATOM     30  C   UNL     1     -12.640  -1.472   7.379  0.00  0.00    +0.002 A 
ATOM     31  C   UNL     1     -11.617  -0.573   7.145  0.00  0.00    +0.027 A 
ATOM     32  C   UNL     1     -11.719   0.731   7.609  0.00  0.00    +0.075 A 
BRANCH  27  33
ATOM     33  O   UNL     1     -12.956   2.403   8.776  0.00  0.00    -0.490 OA
BRANCH  33  35
ATOM     34  C   UNL     1     -14.082   4.204   9.929  0.00  0.00    +0.048 C 
ATOM     35  C   UNL     1     -14.147   2.739   9.492  0.00  0.00    +0.226 C 
ENDBRANCH  33  35
ENDBRANCH  27  33
ENDBRANCH  20  32
ENDBRANCH  19  24
ENDBRANCH   1  19
TORSDOF 7
