REMARK  Name = ZINC13065030
REMARK  16 active torsions:
REMARK  status: ('A' for Active; 'I' for Inactive)
REMARK    1  A    between atoms: C_1  and  C_2
REMARK    2  A    between atoms: C_2  and  C_3
REMARK    3  A    between atoms: C_3  and  C_5
REMARK    4  A    between atoms: C_3  and  N_74
REMARK    5  A    between atoms: N_9  and  C_10
REMARK    6  A    between atoms: C_10  and  C_11
REMARK    7  A    between atoms: C_10  and  C_12
REMARK    8  A    between atoms: C_10  and  C_13
REMARK    9  A    between atoms: C_13  and  C_14
REMARK   10  A    between atoms: C_15  and  C_16
REMARK   11  A    between atoms: C_15  and  N_74
REMARK   12  A    between atoms: C_16  and  C_17
REMARK   13  A    between atoms: C_23  and  C_24
REMARK   14  A    between atoms: C_23  and  N_74
REMARK   15  A    between atoms: C_29  and  C_37
REMARK   16  A    between atoms: C_30  and  C_36
REMARK                            x       y       z     vdW  Elec       q    Type
REMARK                         _______ _______ _______ _____ _____    ______ ____
ROOT
ATOM      1  N   UNL     1       0.747  -0.858   3.889  0.00  0.00    +0.389 N 
ATOM      2  H   UNL     1      -0.006  -1.447   3.515  0.00  0.00    -0.080 HD
ENDROOT
BRANCH   1   3
ATOM      3  C   UNL     1       1.033   0.225   2.923  0.00  0.00    +0.003 C 
BRANCH   3   4
ATOM      4  C   UNL     1      -0.257   0.630   2.259  0.00  0.00    +0.139 A 
ATOM      5  N   UNL     1      -1.440   0.692   2.820  0.00  0.00    -0.115 NA
ATOM      6  N   UNL     1      -2.285   1.074   1.926  0.00  0.00    -0.023 NA
ATOM      7  N   UNL     1      -1.671   1.262   0.810  0.00  0.00    -0.043 NA
ATOM      8  N   UNL     1      -0.418   1.002   0.976  0.00  0.00    -0.225 N 
BRANCH   8   9
ATOM      9  C   UNL     1       0.630   1.089  -0.043  0.00  0.00    +0.061 C 
ATOM     10  C   UNL     1       1.157  -0.314  -0.354  0.00  0.00    +0.036 C 
ATOM     11  C   UNL     1       1.775   1.960   0.476  0.00  0.00    +0.036 C 
BRANCH   9  12
ATOM     12  C   UNL     1       0.054   1.710  -1.317  0.00  0.00    +0.026 C 
ATOM     13  C   UNL     1       1.149   1.801  -2.381  0.00  0.00    +0.006 C 
ENDBRANCH   9  12
ENDBRANCH   8   9
ENDBRANCH   3   4
BRANCH   3  15
ATOM     14  C   UNL     1       2.890   0.997   4.406  0.00  0.00    +0.002 C 
ATOM     15  C   UNL     1       1.640   1.433   3.639  0.00  0.00    -0.011 C 
ENDBRANCH   3  15
ENDBRANCH   1   3
BRANCH   1  16
ATOM     16  C   UNL     1       1.953  -1.688   4.089  0.00  0.00    -0.073 C 
BRANCH  16  17
ATOM     17  C   UNL     1       2.155  -2.567   2.853  0.00  0.00    +0.016 C 
BRANCH  17  18
ATOM     18  C   UNL     1       3.271  -3.546   3.109  0.00  0.00    -0.049 A 
ATOM     19  C   UNL     1       4.573  -3.209   2.791  0.00  0.00    +0.003 A 
ATOM     20  C   UNL     1       5.598  -4.106   3.031  0.00  0.00    +0.000 A 
ATOM     21  C   UNL     1       5.319  -5.343   3.580  0.00  0.00    +0.000 A 
ATOM     22  C   UNL     1       4.016  -5.683   3.894  0.00  0.00    +0.000 A 
ATOM     23  C   UNL     1       2.992  -4.784   3.659  0.00  0.00    +0.003 A 
ENDBRANCH  17  18
ENDBRANCH  16  17
ENDBRANCH   1  16
BRANCH   1  24
ATOM     24  C   UNL     1       0.311  -0.281   5.178  0.00  0.00    -0.037 C 
BRANCH  24  25
ATOM     25  C   UNL     1      -1.170  -0.010   5.107  0.00  0.00    +0.001 A 
ATOM     26  C   UNL     1      -2.046  -1.045   5.085  0.00  0.00    +0.017 A 
ATOM     27  C   UNL     1      -3.478  -0.748   5.020  0.00  0.00    -0.001 A 
ATOM     28  C   UNL     1      -4.429  -1.773   5.000  0.00  0.00    +0.010 A 
ATOM     29  C   UNL     1      -5.758  -1.463   4.934  0.00  0.00    +0.004 A 
ATOM     30  C   UNL     1      -6.173  -0.138   4.887  0.00  0.00    -0.046 A 
ATOM     31  C   UNL     1      -5.253   0.888   4.907  0.00  0.00    -0.024 A 
ATOM     32  C   UNL     1      -3.894   0.596   4.973  0.00  0.00    +0.052 A 
ATOM     33  N   UNL     1      -2.952   1.602   4.994  0.00  0.00    -0.322 N 
ATOM     34  H   UNL     1      -3.241   2.528   4.962  0.00  0.00    +0.169 HD
ATOM     35  C   UNL     1      -1.639   1.320   5.058  0.00  0.00    +0.251 A 
ATOM     36  O   UNL     1      -0.835   2.235   5.075  0.00  0.00    -0.268 OA
ATOM     37  C   UNL     1      -5.717   2.321   4.856  0.00  0.00    +0.046 C 
ATOM     38  C   UNL     1      -7.644   0.180   4.815  0.00  0.00    +0.044 C 
ENDBRANCH  24  25
ENDBRANCH   1  24
TORSDOF 10
