REMARK  Name = ZINC40035330
REMARK  8 active torsions:
REMARK  status: ('A' for Active; 'I' for Inactive)
REMARK    1  A    between atoms: C_1  and  C_2
REMARK    2  A    between atoms: C_2  and  C_3
REMARK    3  A    between atoms: C_3  and  C_32
REMARK    4  A    between atoms: N_15  and  C_30
REMARK    5  A    between atoms: N_18  and  N_19
REMARK    6  A    between atoms: C_20  and  C_21
REMARK    7  A    between atoms: C_25  and  N_27
REMARK    8  A    between atoms: C_30  and  C_31
REMARK                            x       y       z     vdW  Elec       q    Type
REMARK                         _______ _______ _______ _____ _____    ______ ____
ROOT
ATOM      1  C   UNL     1      -1.433  -0.534   0.013  0.00  0.00    +0.004 C 
ATOM      2  C   UNL     1      -1.082  -2.005  -0.196  0.00  0.00    +0.047 C 
ATOM      3  C   UNL     1      -0.548  -2.606   1.076  0.00  0.00    -0.037 A 
ATOM      4  C   UNL     1       0.450  -3.558   1.034  0.00  0.00    +0.004 A 
ATOM      5  C   UNL     1       0.932  -4.109   2.207  0.00  0.00    +0.000 A 
ATOM      6  C   UNL     1       0.420  -3.713   3.430  0.00  0.00    +0.001 A 
ATOM      7  C   UNL     1      -0.577  -2.760   3.486  0.00  0.00    +0.010 A 
ATOM      8  C   UNL     1      -1.064  -2.201   2.308  0.00  0.00    +0.004 A 
ATOM      9  C   UNL     1      -2.126  -1.170   2.337  0.00  0.00    +0.084 A 
ATOM     10  C   UNL     1      -2.309  -0.365   1.222  0.00  0.00    +0.049 A 
ATOM     11  C   UNL     1      -3.320   0.605   1.248  0.00  0.00    +0.260 A 
ATOM     12  O   UNL     1      -3.512   1.331   0.287  0.00  0.00    -0.267 OA
ATOM     13  N   UNL     1      -4.078   0.718   2.361  0.00  0.00    -0.280 N 
ATOM     14  C   UNL     1      -3.853  -0.095   3.430  0.00  0.00    +0.219 A 
ATOM     15  N   UNL     1      -2.904  -1.009   3.412  0.00  0.00    -0.214 NA
ATOM     16  N   UNL     1      -4.631   0.041   4.550  0.00  0.00    -0.206 N 
ATOM     17  C   UNL     1      -2.172  -0.013  -1.221  0.00  0.00    +0.016 C 
ATOM     18  H   UNL     1      -5.333   0.710   4.575  0.00  0.00    +0.177 HD
ENDROOT
BRANCH   1  20
ATOM     19  C   UNL     1      -0.490   1.750   0.387  0.00  0.00    +0.005 C 
ATOM     20  C   UNL     1      -0.146   0.270   0.206  0.00  0.00    +0.008 C 
ENDBRANCH   1  20
BRANCH  16  21
ATOM     21  N   UNL     1      -4.414  -0.788   5.659  0.00  0.00    -0.188 NA
ATOM     22  C   UNL     1      -5.151  -0.659   6.719  0.00  0.00    +0.138 C 
BRANCH  22  23
ATOM     23  C   UNL     1      -4.922  -1.532   7.886  0.00  0.00    -0.003 A 
ATOM     24  C   UNL     1      -3.909  -2.493   7.856  0.00  0.00    +0.009 A 
ATOM     25  C   UNL     1      -3.700  -3.305   8.951  0.00  0.00    +0.003 A 
ATOM     26  C   UNL     1      -4.491  -3.168  10.079  0.00  0.00    +0.033 A 
ATOM     27  C   UNL     1      -5.496  -2.219  10.116  0.00  0.00    +0.127 A 
ATOM     28  C   UNL     1      -5.713  -1.396   9.030  0.00  0.00    +0.042 A 
BRANCH  27  29
ATOM     29  N   UNL     1      -6.338  -2.081  11.325  0.00  0.00    +0.056 N 
ATOM     30  O   UNL     1      -6.146  -2.799  12.280  0.00  0.00    -0.126 OA
ATOM     31  O   UNL     1      -7.217  -1.252  11.359  0.00  0.00    -0.126 OA
ENDBRANCH  27  29
ENDBRANCH  22  23
ENDBRANCH  16  21
BRANCH  13  32
ATOM     32  C   UNL     1      -5.145   1.720   2.417  0.00  0.00    +0.125 C 
ATOM     33  C   UNL     1      -6.448   1.106   1.901  0.00  0.00    +0.027 C 
ENDBRANCH  13  32
TORSDOF 5
