REMARK  Name = ZINC05537852
REMARK  7 active torsions:
REMARK  status: ('A' for Active; 'I' for Inactive)
REMARK    1  A    between atoms: C_1  and  C_2
REMARK    2  A    between atoms: N_5  and  C_7
REMARK    3  A    between atoms: C_14  and  N_28
REMARK    4  A    between atoms: C_15  and  C_26
REMARK    5  A    between atoms: C_16  and  C_18
REMARK    6  A    between atoms: C_21  and  O_25
REMARK    7  A    between atoms: C_22  and  O_24
REMARK                            x       y       z     vdW  Elec       q    Type
REMARK                         _______ _______ _______ _____ _____    ______ ____
ROOT
ATOM      1  C   UNL     1       5.856  -3.425   0.866  0.00  0.00    +0.068 C 
ATOM      2  C   UNL     1       5.149  -2.192   0.364  0.00  0.00    +0.068 A 
ATOM      3  C   UNL     1       5.708  -1.202  -0.433  0.00  0.00    +0.050 A 
ATOM      4  C   UNL     1       4.749  -0.257  -0.670  0.00  0.00    +0.230 A 
ATOM      5  N   UNL     1       3.623  -0.652  -0.036  0.00  0.00    -0.200 N 
ATOM      6  N   UNL     1       3.902  -1.867   0.611  0.00  0.00    -0.168 NA
ATOM      7  O   UNL     1       4.979   0.850  -1.419  0.00  0.00    -0.423 OA
ATOM      8  C   UNL     1       6.261   1.149  -1.712  0.00  0.00    +0.200 C 
ATOM      9  C   UNL     1       7.293   0.295  -1.534  0.00  0.00    +0.098 C 
ATOM     10  C   UNL     1       7.105  -1.099  -0.989  0.00  0.00    +0.101 C 
ENDROOT
BRANCH   5  11
ATOM     11  C   UNL     1       2.399   0.031  -0.021  0.00  0.00    +0.069 A 
ATOM     12  C   UNL     1       1.207  -0.680  -0.013  0.00  0.00    +0.028 A 
ATOM     13  C   UNL     1       0.002  -0.004   0.002  0.00  0.00    +0.002 A 
ATOM     14  C   UNL     1      -0.017   1.379   0.010  0.00  0.00    +0.000 A 
ATOM     15  C   UNL     1       1.170   2.089   0.002  0.00  0.00    +0.002 A 
ATOM     16  C   UNL     1       2.377   1.419  -0.013  0.00  0.00    +0.028 A 
ENDBRANCH   5  11
BRANCH  10  17
ATOM     17  C   UNL     1       7.289  -2.108  -2.093  0.00  0.00    -0.031 A 
ATOM     18  C   UNL     1       6.482  -2.058  -3.214  0.00  0.00    +0.008 A 
ATOM     19  C   UNL     1       6.648  -2.980  -4.230  0.00  0.00    +0.049 A 
ATOM     20  C   UNL     1       7.624  -3.958  -4.126  0.00  0.00    +0.158 A 
ATOM     21  C   UNL     1       8.436  -4.009  -2.996  0.00  0.00    +0.159 A 
ATOM     22  C   UNL     1       8.268  -3.078  -1.984  0.00  0.00    +0.053 A 
BRANCH  21  23
ATOM     23  O   UNL     1       9.395  -4.967  -2.889  0.00  0.00    -0.503 OA
ATOM     24  H   UNL     1      10.253  -4.707  -3.251  0.00  0.00    +0.292 HD
ENDBRANCH  21  23
BRANCH  20  25
ATOM     25  O   UNL     1       7.789  -4.867  -5.124  0.00  0.00    -0.503 OA
ATOM     26  H   UNL     1       8.417  -4.592  -5.806  0.00  0.00    +0.292 HD
ENDBRANCH  20  25
ENDBRANCH  10  17
BRANCH   8  27
ATOM     27  N   UNL     1       6.534   2.396  -2.219  0.00  0.00    -0.328 N 
ATOM     28  H   UNL     1       7.446   2.640  -2.440  0.00  0.00    +0.145 HD
ATOM     29  H   UNL     1       5.814   3.031  -2.358  0.00  0.00    +0.145 HD
ENDBRANCH   8  27
BRANCH   9  30
ATOM     30  C   UNL     1       8.614   0.728  -1.877  0.00  0.00    +0.101 C 
ATOM     31  N   UNL     1       9.662   1.072  -2.150  0.00  0.00    -0.191 NA
ENDBRANCH   9  30
TORSDOF 6
