REMARK  Name = ZINC66368454
REMARK  6 active torsions:
REMARK  status: ('A' for Active; 'I' for Inactive)
REMARK    1  A    between atoms: C_1  and  C_2
REMARK    2  A    between atoms: C_2  and  C_3
REMARK    3  A    between atoms: C_3  and  C_5
REMARK    4  A    between atoms: C_3  and  N_8
REMARK    5  A    between atoms: C_5  and  C_6
REMARK    6  A    between atoms: C_5  and  C_7
REMARK                            x       y       z     vdW  Elec       q    Type
REMARK                         _______ _______ _______ _____ _____    ______ ____
ROOT
ATOM      1  N   UNL     1      -2.082  -0.166   1.274  0.00  0.00    -0.296 N 
ATOM      2  C   UNL     1      -3.424  -0.053   1.334  0.00  0.00    +0.302 C 
ATOM      3  O   UNL     1      -4.090  -0.171   0.324  0.00  0.00    -0.253 OA
ATOM      4  N   UNL     1      -4.027   0.189   2.515  0.00  0.00    -0.285 N 
ATOM      5  C   UNL     1      -5.492   0.196   2.619  0.00  0.00    +0.114 C 
ATOM      6  C   UNL     1      -5.936   1.521   3.247  0.00  0.00    +0.084 C 
ATOM      7  C   UNL     1      -5.207   1.720   4.577  0.00  0.00    +0.173 C 
ATOM      8  C   UNL     1      -3.696   1.775   4.340  0.00  0.00    +0.084 C 
ATOM      9  C   UNL     1      -3.232   0.447   3.723  0.00  0.00    +0.114 C 
ATOM     10  O   UNL     1      -5.643   2.943   5.185  0.00  0.00    -0.346 OA
ATOM     11  C   UNL     1      -6.213   2.604   6.465  0.00  0.00    +0.191 C 
ATOM     12  C   UNL     1      -5.582   1.224   6.777  0.00  0.00    +0.191 C 
ATOM     13  O   UNL     1      -5.513   0.628   5.459  0.00  0.00    -0.346 OA
ATOM     14  H   UNL     1      -1.545   0.003   2.064  0.00  0.00    +0.151 HD
ENDROOT
BRANCH   1  15
ATOM     15  C   UNL     1      -1.434  -0.543   0.015  0.00  0.00    +0.077 C 
BRANCH  15  16
ATOM     16  C   UNL     1      -1.421  -2.068  -0.115  0.00  0.00    +0.003 C 
ATOM     17  C   UNL     1      -2.858  -2.593  -0.103  0.00  0.00    +0.009 C 
ATOM     18  C   UNL     1      -0.745  -2.462  -1.429  0.00  0.00    +0.009 C 
ENDBRANCH  15  16
BRANCH  15  20
ATOM     19  C   UNL     1      -0.014   1.512   0.007  0.00  0.00    +0.006 C 
ATOM     20  C   UNL     1       0.003  -0.018   0.003  0.00  0.00    +0.019 C 
ENDBRANCH  15  20
ENDBRANCH   1  15
TORSDOF 3
