REMARK  Name = ZINC19859368
REMARK  7 active torsions:
REMARK  status: ('A' for Active; 'I' for Inactive)
REMARK    1  A    between atoms: C_4  and  C_7
REMARK    2  A    between atoms: C_15  and  N_17
REMARK    3  A    between atoms: N_19  and  C_20
REMARK    4  A    between atoms: C_20  and  C_22
REMARK    5  A    between atoms: C_20  and  C_30
REMARK    6  A    between atoms: C_22  and  C_23
REMARK    7  A    between atoms: C_23  and  C_24
REMARK                            x       y       z     vdW  Elec       q    Type
REMARK                         _______ _______ _______ _____ _____    ______ ____
ROOT
ATOM      1  N   UNL     1       6.811  -0.153  -1.474  0.00  0.00    -0.177 NA
ATOM      2  C   UNL     1       8.002  -0.703  -1.593  0.00  0.00    +0.199 C 
ATOM      3  N   UNL     1       9.015  -0.015  -2.204  0.00  0.00    -0.344 N 
ATOM      4  N   UNL     1       8.226  -1.962  -1.105  0.00  0.00    -0.370 N 
ATOM      5  H   UNL     1       7.537  -2.414  -0.593  0.00  0.00    +0.159 HD
ATOM      6  H   UNL     1       9.074  -2.403  -1.272  0.00  0.00    +0.159 HD
ATOM      7  H   UNL     1       8.857   0.877  -2.549  0.00  0.00    +0.163 HD
ENDROOT
BRANCH   1  16
ATOM      8  C   UNL     1       4.747  -1.065   1.257  0.00  0.00    +0.084 A 
ATOM      9  C   UNL     1       3.892  -2.061   0.612  0.00  0.00    +0.028 A 
ATOM     10  C   UNL     1       2.880  -2.733   1.302  0.00  0.00    +0.032 A 
ATOM     11  C   UNL     1       2.114  -3.652   0.644  0.00  0.00    +0.042 A 
ATOM     12  C   UNL     1       2.329  -3.928  -0.705  0.00  0.00    +0.022 A 
ATOM     13  C   UNL     1       3.308  -3.289  -1.406  0.00  0.00    +0.030 A 
ATOM     14  C   UNL     1       4.113  -2.339  -0.761  0.00  0.00    +0.077 A 
ATOM     15  N   UNL     1       5.088  -1.682  -1.401  0.00  0.00    -0.211 NA
ATOM     16  C   UNL     1       5.835  -0.789  -0.772  0.00  0.00    +0.254 A 
ATOM     17  N   UNL     1       5.676  -0.477   0.516  0.00  0.00    -0.210 NA
ATOM     18 CL   UNL     1       0.856  -4.489   1.499  0.00  0.00    -0.084 Cl
BRANCH   8  22
ATOM     19  C   UNL     1       4.261  -0.079   5.362  0.00  0.00    +0.000 A 
ATOM     20  C   UNL     1       4.227  -1.403   4.963  0.00  0.00    +0.001 A 
ATOM     21  C   UNL     1       4.384  -1.730   3.632  0.00  0.00    +0.010 A 
ATOM     22  C   UNL     1       4.577  -0.722   2.687  0.00  0.00    +0.001 A 
ATOM     23  C   UNL     1       4.610   0.612   3.095  0.00  0.00    +0.010 A 
ATOM     24  C   UNL     1       4.452   0.926   4.430  0.00  0.00    +0.001 A 
ENDBRANCH   8  22
ENDBRANCH   1  16
BRANCH   3  25
ATOM     25  C   UNL     1      10.340  -0.627  -2.335  0.00  0.00    +0.193 C 
BRANCH  25  26
ATOM     26  C   UNL     1      11.143  -0.384  -1.056  0.00  0.00    +0.410 C 
ATOM     27  F   UNL     1      10.473  -0.954   0.031  0.00  0.00    -0.168 F 
ATOM     28  F   UNL     1      12.409  -0.968  -1.182  0.00  0.00    -0.168 F 
ATOM     29  F   UNL     1      11.284   0.992  -0.848  0.00  0.00    -0.168 F 
ENDBRANCH  25  26
BRANCH  25  30
ATOM     30  C   UNL     1      11.074  -0.003  -3.524  0.00  0.00    +0.113 C 
BRANCH  30  31
ATOM     31  C   UNL     1      10.348  -0.347  -4.799  0.00  0.00    +0.172 C 
ATOM     32  O   UNL     1       9.341  -1.025  -4.761  0.00  0.00    -0.291 OA
BRANCH  31  33
ATOM     33  C   UNL     1      10.838   0.119  -6.039  0.00  0.00    +0.055 A 
ATOM     34  C   UNL     1      10.322  -0.077  -7.316  0.00  0.00    +0.019 A 
ATOM     35  C   UNL     1      11.026   0.507  -8.338  0.00  0.00    +0.008 A 
ATOM     36  C   UNL     1      12.147   1.216  -8.047  0.00  0.00    +0.046 A 
ATOM     37  S   UNL     1      12.275   1.119  -6.375  0.00  0.00    -0.094 S 
ENDBRANCH  31  33
ENDBRANCH  30  31
ENDBRANCH  25  30
ENDBRANCH   3  25
TORSDOF 7
