REMARK  Name = ZINC19794328
REMARK  5 active torsions:
REMARK  status: ('A' for Active; 'I' for Inactive)
REMARK    1  A    between atoms: C_1  and  S_2
REMARK    2  A    between atoms: S_2  and  C_3
REMARK    3  A    between atoms: C_3  and  N_18
REMARK    4  A    between atoms: C_5  and  C_12
REMARK    5  A    between atoms: C_6  and  C_10
REMARK                            x       y       z     vdW  Elec       q    Type
REMARK                         _______ _______ _______ _____ _____    ______ ____
ROOT
ATOM      1  C   UNL     1       1.980   2.426   0.086  0.00  0.00    +0.208 C 
ATOM      2  N   UNL     1       2.647   1.750   1.203  0.00  0.00    -0.301 N 
ATOM      3  C   UNL     1       2.654   0.377   1.238  0.00  0.00    +0.060 C 
ATOM      4  C   UNL     1       2.662  -0.307   0.017  0.00  0.00    +0.135 C 
ATOM      5  C   UNL     1       2.671   0.482  -1.222  0.00  0.00    +0.259 C 
ATOM      6  O   UNL     1       2.953  -0.046  -2.282  0.00  0.00    -0.269 OA
ATOM      7  N   UNL     1       2.368   1.794  -1.177  0.00  0.00    -0.269 N 
ATOM      8  H   UNL     1       3.131   2.341   1.994  0.00  0.00    +0.150 HD
ATOM      9  H   UNL     1       2.413   2.390  -2.100  0.00  0.00    +0.153 HD
ENDROOT
BRANCH   3  10
ATOM     10  C   UNL     1       2.651  -0.352   2.520  0.00  0.00    -0.003 A 
ATOM     11  C   UNL     1       1.757   0.008   3.531  0.00  0.00    +0.010 A 
ATOM     12  C   UNL     1       1.756  -0.683   4.725  0.00  0.00    +0.001 A 
ATOM     13  C   UNL     1       2.647  -1.723   4.927  0.00  0.00    +0.000 A 
ATOM     14  C   UNL     1       3.540  -2.081   3.932  0.00  0.00    +0.001 A 
ATOM     15  C   UNL     1       3.548  -1.404   2.731  0.00  0.00    +0.010 A 
ENDBRANCH   3  10
BRANCH   1  16
ATOM     16  N   UNL     1       2.375   3.841   0.065  0.00  0.00    -0.258 NA
ATOM     17  C   UNL     1       2.090   4.486   1.353  0.00  0.00    +0.089 C 
ATOM     18  C   UNL     1       2.644   5.912   1.344  0.00  0.00    +0.015 C 
ATOM     19  C   UNL     1       1.995   6.700   0.203  0.00  0.00    +0.002 C 
ATOM     20  C   UNL     1       2.266   5.981  -1.122  0.00  0.00    +0.015 C 
ATOM     21  C   UNL     1       1.723   4.553  -1.042  0.00  0.00    +0.089 C 
ENDBRANCH   1  16
BRANCH   1  23
ATOM     22  C   UNL     1      -0.140   0.519   0.300  0.00  0.00    +0.089 C 
ATOM     23  S   UNL     1       0.182   2.305   0.294  0.00  0.00    -0.103 S 
ENDBRANCH   1  23
BRANCH   4  24
ATOM     24  C   UNL     1       2.660  -1.738  -0.024  0.00  0.00    +0.106 C 
ATOM     25  N   UNL     1       2.659  -2.874  -0.056  0.00  0.00    -0.191 NA
ENDBRANCH   4  24
TORSDOF 4
