REMARK  Name = ZINC59146725
REMARK  9 active torsions:
REMARK  status: ('A' for Active; 'I' for Inactive)
REMARK    1  A    between atoms: C_4  and  C_7
REMARK    2  A    between atoms: C_7  and  N_8
REMARK    3  A    between atoms: N_8  and  C_9
REMARK    4  A    between atoms: N_8  and  C_16
REMARK    5  A    between atoms: C_9  and  C_10
REMARK    6  A    between atoms: C_16  and  C_17
REMARK    7  A    between atoms: N_19  and  N_20
REMARK    8  A    between atoms: C_21  and  C_22
REMARK    9  A    between atoms: C_31  and  O_32
REMARK                            x       y       z     vdW  Elec       q    Type
REMARK                         _______ _______ _______ _____ _____    ______ ____
ROOT
ATOM      1  C   UNL     1       5.706  -1.570   2.849  0.00  0.00    +0.216 C 
ATOM      2  O   UNL     1       5.003  -1.376   3.819  0.00  0.00    -0.276 OA
ATOM      3  N   UNL     1       6.957  -2.047   3.008  0.00  0.00    -0.209 N 
ATOM      4  H   UNL     1       7.519  -2.202   2.233  0.00  0.00    +0.177 HD
ENDROOT
BRANCH   3   5
ATOM      5  N   UNL     1       7.445  -2.318   4.293  0.00  0.00    -0.188 NA
ATOM      6  C   UNL     1       8.651  -2.777   4.447  0.00  0.00    +0.142 C 
BRANCH   6   7
ATOM      7  C   UNL     1       9.163  -3.062   5.795  0.00  0.00    +0.044 A 
ATOM      8  C   UNL     1      10.519  -3.573   5.986  0.00  0.00    -0.006 A 
ATOM      9  C   UNL     1      11.371  -3.808   4.900  0.00  0.00    +0.009 A 
ATOM     10  C   UNL     1      12.629  -4.285   5.122  0.00  0.00    +0.001 A 
ATOM     11  C   UNL     1      13.079  -4.542   6.414  0.00  0.00    +0.001 A 
ATOM     12  C   UNL     1      12.276  -4.325   7.492  0.00  0.00    +0.008 A 
ATOM     13  C   UNL     1      10.973  -3.833   7.302  0.00  0.00    -0.017 A 
ATOM     14  C   UNL     1      10.116  -3.596   8.391  0.00  0.00    +0.012 A 
ATOM     15  C   UNL     1       8.858  -3.120   8.195  0.00  0.00    +0.046 A 
ATOM     16  C   UNL     1       8.368  -2.844   6.920  0.00  0.00    +0.126 A 
BRANCH  16  17
ATOM     17  O   UNL     1       7.106  -2.365   6.771  0.00  0.00    -0.506 OA
ATOM     18  H   UNL     1       6.433  -3.052   6.671  0.00  0.00    +0.292 HD
ENDBRANCH  16  17
ENDBRANCH   6   7
ENDBRANCH   3   5
BRANCH   1  19
ATOM     19  C   UNL     1       5.181  -1.278   1.467  0.00  0.00    +0.021 C 
BRANCH  19  20
ATOM     20  N   UNL     1       3.755  -0.933   1.548  0.00  0.00    +0.391 N 
ATOM     21  H   UNL     1       3.587  -0.395   2.384  0.00  0.00    -0.080 HD
BRANCH  20  22
ATOM     22  C   UNL     1       3.376  -0.140   0.370  0.00  0.00    -0.042 C 
BRANCH  22  26
ATOM     23  C   UNL     1      -0.673   1.159   0.770  0.00  0.00    +0.000 A 
ATOM     24  C   UNL     1       0.356   1.944   1.256  0.00  0.00    +0.000 A 
ATOM     25  C   UNL     1       1.666   1.523   1.127  0.00  0.00    +0.002 A 
ATOM     26  C   UNL     1       1.948   0.318   0.512  0.00  0.00    -0.064 A 
ATOM     27  C   UNL     1       0.919  -0.468   0.027  0.00  0.00    +0.002 A 
ATOM     28  C   UNL     1      -0.392  -0.046   0.154  0.00  0.00    +0.000 A 
ENDBRANCH  22  26
ENDBRANCH  20  22
BRANCH  20  29
ATOM     29  C   UNL     1       2.955  -2.164   1.588  0.00  0.00    -0.042 C 
BRANCH  29  30
ATOM     30  C   UNL     1       3.232  -2.902   2.872  0.00  0.00    -0.064 A 
ATOM     31  C   UNL     1       4.166  -3.921   2.896  0.00  0.00    +0.002 A 
ATOM     32  C   UNL     1       4.421  -4.598   4.074  0.00  0.00    +0.000 A 
ATOM     33  C   UNL     1       3.740  -4.256   5.228  0.00  0.00    +0.000 A 
ATOM     34  C   UNL     1       2.807  -3.237   5.204  0.00  0.00    +0.000 A 
ATOM     35  C   UNL     1       2.555  -2.557   4.027  0.00  0.00    +0.002 A 
ENDBRANCH  29  30
ENDBRANCH  20  29
ENDBRANCH  19  20
ENDBRANCH   1  19
TORSDOF 9
