REMARK  Name = ZINC20704298
REMARK  5 active torsions:
REMARK  status: ('A' for Active; 'I' for Inactive)
REMARK    1  A    between atoms: C_1  and  N_2
REMARK    2  A    between atoms: N_5  and  S_8
REMARK    3  A    between atoms: S_8  and  C_11
REMARK    4  A    between atoms: C_24  and  C_27
REMARK    5  A    between atoms: C_31  and  N_33
REMARK                            x       y       z     vdW  Elec       q    Type
REMARK                         _______ _______ _______ _____ _____    ______ ____
ROOT
ATOM      1  C   UNL     1       1.278   5.326  -1.369  0.00  0.00    +0.106 A 
ATOM      2  C   UNL     1       2.580   5.468  -1.813  0.00  0.00    +0.030 A 
ATOM      3  C   UNL     1       3.475   4.425  -1.683  0.00  0.00    +0.025 A 
ATOM      4  C   UNL     1       3.075   3.226  -1.105  0.00  0.00    +0.031 A 
ATOM      5  C   UNL     1       1.759   3.094  -0.647  0.00  0.00    -0.018 A 
ATOM      6  C   UNL     1       0.871   4.139  -0.788  0.00  0.00    +0.034 A 
ATOM      7  C   UNL     1       1.385   1.817  -0.001  0.00  0.00    +0.049 C 
ATOM      8  C   UNL     1      -0.016   1.323   0.009  0.00  0.00    -0.023 C 
ATOM      9  C   UNL     1       0.002  -0.004   0.002  0.00  0.00    -0.030 C 
ATOM     10  C   UNL     1       1.446  -0.507  -0.049  0.00  0.00    +0.033 C 
ATOM     11  C   UNL     1       2.160   0.673  -0.721  0.00  0.00    +0.029 C 
ATOM     12  C   UNL     1       3.621   0.890  -0.369  0.00  0.00    +0.105 C 
ATOM     13  N   UNL     1       3.995   2.176  -0.997  0.00  0.00    -0.336 N 
ATOM     14  H   UNL     1       5.012   2.321  -1.391  0.00  0.00    +0.147 HD
ENDROOT
BRANCH  12  15
ATOM     15  C   UNL     1       4.463  -0.227  -0.928  0.00  0.00    -0.025 A 
ATOM     16  C   UNL     1       4.828  -0.216  -2.262  0.00  0.00    +0.007 A 
ATOM     17  C   UNL     1       5.601  -1.241  -2.775  0.00  0.00    +0.022 A 
ATOM     18  C   UNL     1       6.008  -2.278  -1.955  0.00  0.00    +0.071 A 
ATOM     19  C   UNL     1       5.643  -2.288  -0.621  0.00  0.00    +0.145 A 
ATOM     20  C   UNL     1       4.875  -1.260  -0.107  0.00  0.00    +0.039 A 
ATOM     21 CL   UNL     1       6.979  -3.565  -2.599  0.00  0.00    -0.081 Cl
BRANCH  19  22
ATOM     22  N   UNL     1       6.078  -3.397   0.258  0.00  0.00    +0.058 N 
ATOM     23  O   UNL     1       5.756  -3.406   1.432  0.00  0.00    -0.126 OA
ATOM     24  O   UNL     1       6.758  -4.300  -0.194  0.00  0.00    -0.126 OA
ENDBRANCH  19  22
ENDBRANCH  12  15
BRANCH   1  25
ATOM     25  S   UNL     1       0.138   6.657  -1.546  0.00  0.00    +0.061 S 
ATOM     26  O   UNL     1      -0.867   6.465  -0.558  0.00  0.00    -0.153 OA
ATOM     27  O   UNL     1       0.911   7.847  -1.624  0.00  0.00    -0.153 OA
BRANCH  25  32
ATOM     28  C   UNL     1      -1.210   4.458  -6.645  0.00  0.00    -0.096 C 
ATOM     29  N   UNL     1      -1.232   5.373  -5.496  0.00  0.00    +0.380 N 
ATOM     30  C   UNL     1      -1.657   4.675  -4.275  0.00  0.00    -0.062 C 
ATOM     31  C   UNL     1      -1.842   5.694  -3.146  0.00  0.00    +0.091 C 
ATOM     32  N   UNL     1      -0.603   6.476  -3.015  0.00  0.00    -0.180 NA
ATOM     33  C   UNL     1      -0.043   7.099  -4.225  0.00  0.00    +0.091 C 
ATOM     34  C   UNL     1       0.074   6.020  -5.313  0.00  0.00    -0.062 C 
ATOM     35  H   UNL     1      -1.970   6.162  -5.704  0.00  0.00    -0.082 HD
ENDBRANCH  25  32
ENDBRANCH   1  25
TORSDOF 4
