REMARK  Name = ZINC36051327
REMARK  13 active torsions:
REMARK  status: ('A' for Active; 'I' for Inactive)
REMARK    1  A    between atoms: C_1  and  C_2
REMARK    2  A    between atoms: C_5  and  C_8
REMARK    3  A    between atoms: N_10  and  C_32
REMARK    4  A    between atoms: N_13  and  C_14
REMARK    5  A    between atoms: C_14  and  C_16
REMARK    6  A    between atoms: C_16  and  N_17
REMARK    7  A    between atoms: N_17  and  C_18
REMARK    8  A    between atoms: C_18  and  C_19
REMARK    9  A    between atoms: C_19  and  N_20
REMARK   10  A    between atoms: N_20  and  C_21
REMARK   11  A    between atoms: N_20  and  C_22
REMARK   12  A    between atoms: C_23  and  C_25
REMARK   13  A    between atoms: C_35  and  C_38
REMARK                            x       y       z     vdW  Elec       q    Type
REMARK                         _______ _______ _______ _____ _____    ______ ____
ROOT
ATOM      1  C   UNL     1       1.548  -6.604   0.847  0.00  0.00    +0.066 A 
ATOM      2  C   UNL     1       1.323  -7.667   1.639  0.00  0.00    +0.120 A 
ATOM      3  N   UNL     1       0.883  -8.707   0.846  0.00  0.00    -0.287 N 
ATOM      4  C   UNL     1       0.842  -8.270  -0.442  0.00  0.00    +0.205 A 
ATOM      5  N   UNL     1       1.243  -6.973  -0.458  0.00  0.00    -0.326 N 
ATOM      6  N   UNL     1       0.467  -8.987  -1.501  0.00  0.00    -0.145 NA
ATOM      7  H   UNL     1       1.308  -6.405  -1.242  0.00  0.00    +0.169 HD
ENDROOT
BRANCH   1  12
ATOM      8  C   UNL     1       3.419  -1.438   2.560  0.00  0.00    +0.044 C 
ATOM      9  C   UNL     1       2.930  -2.791   2.111  0.00  0.00    -0.050 A 
ATOM     10  C   UNL     1       2.666  -3.019   0.772  0.00  0.00    +0.004 A 
ATOM     11  C   UNL     1       2.217  -4.255   0.355  0.00  0.00    +0.010 A 
ATOM     12  C   UNL     1       2.030  -5.276   1.287  0.00  0.00    -0.000 A 
ATOM     13  C   UNL     1       2.298  -5.040   2.636  0.00  0.00    +0.010 A 
ATOM     14  C   UNL     1       2.752  -3.801   3.039  0.00  0.00    +0.004 A 
ENDBRANCH   1  12
BRANCH   3  15
ATOM     15  C   UNL     1       0.539  -9.990   1.289  0.00  0.00    +0.049 A 
ATOM     16  C   UNL     1       0.115 -10.950   0.380  0.00  0.00    +0.026 A 
ATOM     17  C   UNL     1      -0.223 -12.215   0.820  0.00  0.00    +0.005 A 
ATOM     18  C   UNL     1      -0.139 -12.526   2.165  0.00  0.00    -0.050 A 
ATOM     19  C   UNL     1       0.283 -11.572   3.073  0.00  0.00    +0.005 A 
ATOM     20  C   UNL     1       0.627 -10.307   2.638  0.00  0.00    +0.026 A 
ATOM     21  C   UNL     1      -0.509 -13.906   2.642  0.00  0.00    +0.044 C 
ENDBRANCH   3  15
BRANCH   6  22
ATOM     22  C   UNL     1       0.472  -8.438  -2.710  0.00  0.00    +0.256 C 
ATOM     23  O   UNL     1       0.819  -7.281  -2.851  0.00  0.00    -0.272 OA
BRANCH  22  24
ATOM     24  C   UNL     1       0.049  -9.249  -3.907  0.00  0.00    +0.205 C 
BRANCH  24  25
ATOM     25  N   UNL     1       0.142  -8.424  -5.114  0.00  0.00    -0.290 N 
ATOM     26  C   UNL     1      -0.970  -7.873  -5.641  0.00  0.00    +0.247 C 
ATOM     27  O   UNL     1      -0.898  -7.218  -6.662  0.00  0.00    -0.270 OA
BRANCH  26  28
ATOM     28  C   UNL     1      -2.276  -8.065  -4.976  0.00  0.00    +0.037 A 
ATOM     29  C   UNL     1      -2.331  -8.376  -3.616  0.00  0.00    +0.014 A 
ATOM     30  C   UNL     1      -3.553  -8.553  -3.002  0.00  0.00    +0.021 A 
ATOM     31  C   UNL     1      -4.723  -8.424  -3.731  0.00  0.00    +0.041 A 
ATOM     32  C   UNL     1      -4.675  -8.115  -5.080  0.00  0.00    +0.021 A 
ATOM     33  C   UNL     1      -3.459  -7.930  -5.705  0.00  0.00    +0.014 A 
ATOM     34 CL   UNL     1      -6.258  -8.649  -2.951  0.00  0.00    -0.084 Cl
ENDBRANCH  26  28
BRANCH  25  35
ATOM     35  C   UNL     1       1.443  -8.197  -5.748  0.00  0.00    +0.090 C 
BRANCH  35  36
ATOM     36  C   UNL     1       1.649  -9.219  -6.868  0.00  0.00    -0.060 C 
BRANCH  36  37
ATOM     37  N   UNL     1       2.907  -8.928  -7.570  0.00  0.00    +0.377 N 
ATOM     38  C   UNL     1       3.181  -9.993  -8.544  0.00  0.00    -0.097 C 
ATOM     39  C   UNL     1       2.791  -7.642  -8.270  0.00  0.00    -0.097 C 
ATOM     40  H   UNL     1       3.662  -8.881  -6.902  0.00  0.00    -0.083 HD
ENDBRANCH  36  37
ENDBRANCH  35  36
ENDBRANCH  25  35
ENDBRANCH  24  25
ENDBRANCH  22  24
ENDBRANCH   6  22
TORSDOF 9
