REMARK  Name = ZINC08815842
REMARK  7 active torsions:
REMARK  status: ('A' for Active; 'I' for Inactive)
REMARK    1  A    between atoms: C_1  and  C_2
REMARK    2  A    between atoms: C_7  and  N_8
REMARK    3  A    between atoms: N_10  and  C_29
REMARK    4  A    between atoms: C_13  and  C_16
REMARK    5  A    between atoms: C_16  and  C_17
REMARK    6  A    between atoms: N_19  and  C_20
REMARK    7  A    between atoms: C_25  and  N_26
REMARK                            x       y       z     vdW  Elec       q    Type
REMARK                         _______ _______ _______ _____ _____    ______ ____
ROOT
ATOM      1  N   UNL     1       2.542  -0.100  -0.291  0.00  0.00    -0.226 NA
ATOM      2  C   UNL     1       1.379  -0.641  -0.014  0.00  0.00    +0.164 C 
ATOM      3  N   UNL     1       0.216  -0.008   0.375  0.00  0.00    -0.253 N 
ATOM      4  C   UNL     1      -0.898  -0.672   0.632  0.00  0.00    +0.235 C 
ATOM      5  O   UNL     1      -1.916  -0.112   0.979  0.00  0.00    -0.274 OA
ATOM      6  C   UNL     1      -0.824  -2.181   0.462  0.00  0.00    +0.149 C 
ATOM      7  S   UNL     1       0.929  -2.369  -0.052  0.00  0.00    -0.077 S 
ATOM      8  C   UNL     1       0.218   1.450   0.514  0.00  0.00    +0.140 C 
ENDROOT
BRANCH   1  15
ATOM      9  C   UNL     1       2.089   1.482  -2.608  0.00  0.00    +0.046 C 
ATOM     10  C   UNL     1       2.502   2.080  -1.287  0.00  0.00    -0.024 A 
ATOM     11  C   UNL     1       2.673   3.444  -1.170  0.00  0.00    +0.025 A 
ATOM     12  C   UNL     1       3.051   3.995   0.043  0.00  0.00    +0.041 A 
ATOM     13  C   UNL     1       3.260   3.182   1.144  0.00  0.00    +0.022 A 
ATOM     14  C   UNL     1       3.087   1.817   1.041  0.00  0.00    +0.029 A 
ATOM     15  C   UNL     1       2.711   1.255  -0.181  0.00  0.00    +0.069 A 
ATOM     16 CL   UNL     1       3.266   5.712   0.183  0.00  0.00    -0.084 Cl
ENDBRANCH   1  15
BRANCH   6  17
ATOM     17  C   UNL     1      -1.094  -2.897   1.786  0.00  0.00    +0.120 C 
BRANCH  17  18
ATOM     18  C   UNL     1      -0.947  -4.385   1.592  0.00  0.00    +0.219 C 
ATOM     19  O   UNL     1      -0.656  -4.827   0.501  0.00  0.00    -0.275 OA
ATOM     20  N   UNL     1      -1.140  -5.222   2.630  0.00  0.00    -0.284 N 
ATOM     21  H   UNL     1      -1.304  -4.866   3.517  0.00  0.00    +0.155 HD
BRANCH  20  22
ATOM     22  C   UNL     1      -1.102  -6.606   2.428  0.00  0.00    +0.064 A 
ATOM     23  C   UNL     1      -0.220  -7.151   1.504  0.00  0.00    +0.025 A 
ATOM     24  C   UNL     1      -0.182  -8.518   1.310  0.00  0.00    +0.002 A 
ATOM     25  C   UNL     1      -1.028  -9.343   2.028  0.00  0.00    +0.002 A 
ATOM     26  C   UNL     1      -1.911  -8.804   2.946  0.00  0.00    +0.034 A 
ATOM     27  C   UNL     1      -1.950  -7.438   3.147  0.00  0.00    +0.147 A 
BRANCH  27  28
ATOM     28  N   UNL     1      -2.896  -6.861   4.129  0.00  0.00    +0.058 N 
ATOM     29  O   UNL     1      -3.564  -7.595   4.835  0.00  0.00    -0.126 OA
ATOM     30  O   UNL     1      -3.006  -5.652   4.231  0.00  0.00    -0.126 OA
ENDBRANCH  27  28
ENDBRANCH  20  22
ENDBRANCH  17  18
ENDBRANCH   6  17
TORSDOF 5
