REMARK  Name = ZINC38671126
REMARK  10 active torsions:
REMARK  status: ('A' for Active; 'I' for Inactive)
REMARK    1  A    between atoms: C_1  and  C_2
REMARK    2  A    between atoms: C_4  and  C_33
REMARK    3  A    between atoms: C_5  and  S_9
REMARK    4  A    between atoms: C_7  and  C_8
REMARK    5  A    between atoms: S_9  and  N_12
REMARK    6  A    between atoms: N_12  and  C_13
REMARK    7  A    between atoms: C_13  and  C_14
REMARK    8  A    between atoms: C_14  and  C_16
REMARK    9  A    between atoms: C_14  and  N_27
REMARK   10  A    between atoms: N_25  and  C_26
REMARK                            x       y       z     vdW  Elec       q    Type
REMARK                         _______ _______ _______ _____ _____    ______ ____
ROOT
ATOM      1  C   UNL     1      -2.757  -5.682  -2.287  0.00  0.00    -0.022 C 
ENDROOT
BRANCH   1   2
ATOM      2  C   UNL     1      -2.914  -5.726  -3.785  0.00  0.00    -0.059 A 
ATOM      3  C   UNL     1      -2.100  -6.550  -4.540  0.00  0.00    +0.004 A 
ATOM      4  C   UNL     1      -2.243  -6.589  -5.913  0.00  0.00    +0.023 A 
ATOM      5  C   UNL     1      -3.205  -5.801  -6.535  0.00  0.00    +0.033 A 
ATOM      6  C   UNL     1      -4.024  -4.978  -5.777  0.00  0.00    -0.026 A 
ATOM      7  C   UNL     1      -3.876  -4.947  -4.401  0.00  0.00    +0.007 A 
ATOM      8  C   UNL     1      -5.084  -4.120  -6.415  0.00  0.00    +0.038 C 
ATOM      9  C   UNL     1      -4.777  -3.903  -7.897  0.00  0.00    +0.024 C 
ATOM     10  C   UNL     1      -4.523  -5.266  -8.555  0.00  0.00    +0.105 C 
ATOM     11  N   UNL     1      -3.331  -5.852  -7.928  0.00  0.00    -0.333 N 
ATOM     12  C   UNL     1      -2.291  -6.479  -8.746  0.00  0.00    +0.129 C 
ENDBRANCH   1   2
BRANCH   1  13
ATOM     13  N   UNL     1      -2.507  -7.038  -1.781  0.00  0.00    +0.385 N 
ATOM     14  C   UNL     1      -3.589  -7.928  -2.216  0.00  0.00    -0.078 C 
ATOM     15  C   UNL     1      -3.292  -9.359  -1.760  0.00  0.00    -0.019 C 
ATOM     16  C   UNL     1      -3.186  -9.390  -0.233  0.00  0.00    -0.004 C 
ATOM     17  C   UNL     1      -2.104  -8.402   0.214  0.00  0.00    -0.019 C 
ATOM     18  C   UNL     1      -2.445  -7.007  -0.315  0.00  0.00    -0.078 C 
ATOM     19  H   UNL     1      -1.629  -7.375  -2.147  0.00  0.00    -0.081 HD
ENDBRANCH   1  13
BRANCH   1  20
ATOM     20  C   UNL     1      -1.579  -4.776  -1.924  0.00  0.00    +0.095 C 
BRANCH  20  21
ATOM     21  N   UNL     1      -1.879  -3.399  -2.326  0.00  0.00    -0.191 NA
ATOM     22  H   UNL     1      -2.595  -3.223  -2.956  0.00  0.00    +0.148 HD
BRANCH  21  23
ATOM     23  S   UNL     1      -0.996  -2.144  -1.704  0.00  0.00    +0.059 S 
ATOM     24  O   UNL     1      -0.959  -2.332  -0.296  0.00  0.00    -0.153 OA
ATOM     25  O   UNL     1      -1.501  -0.957  -2.301  0.00  0.00    -0.153 OA
BRANCH  23  30
ATOM     26  C   UNL     1       4.668  -2.792  -3.680  0.00  0.00    +0.044 C 
ATOM     27  C   UNL     1       3.253  -2.631  -3.186  0.00  0.00    -0.047 A 
ATOM     28  C   UNL     1       2.228  -2.406  -4.087  0.00  0.00    +0.009 A 
ATOM     29  C   UNL     1       0.931  -2.258  -3.634  0.00  0.00    -0.024 A 
ATOM     30  C   UNL     1       0.658  -2.334  -2.281  0.00  0.00    +0.108 A 
ATOM     31  C   UNL     1       1.682  -2.559  -1.381  0.00  0.00    +0.032 A 
ATOM     32  C   UNL     1       2.979  -2.712  -1.834  0.00  0.00    -0.046 A 
ATOM     33  C   UNL     1       4.096  -2.963  -0.853  0.00  0.00    +0.044 C 
ATOM     34  C   UNL     1      -0.186  -2.012  -4.615  0.00  0.00    +0.046 C 
ENDBRANCH  23  30
ENDBRANCH  21  23
ENDBRANCH  20  21
ENDBRANCH   1  20
TORSDOF 6
