REMARK  Name = ZINC25497342
REMARK  6 active torsions:
REMARK  status: ('A' for Active; 'I' for Inactive)
REMARK    1  A    between atoms: C_1  and  C_2
REMARK    2  A    between atoms: C_2  and  C_3
REMARK    3  A    between atoms: C_3  and  C_4
REMARK    4  A    between atoms: C_4  and  C_5
REMARK    5  A    between atoms: C_6  and  C_23
REMARK    6  A    between atoms: N_12  and  C_13
REMARK                            x       y       z     vdW  Elec       q    Type
REMARK                         _______ _______ _______ _____ _____    ______ ____
ROOT
ATOM      1  C   UNL     1      -2.791  -2.685   0.016  0.00  0.00    +0.038 A 
ATOM      2  C   UNL     1      -3.491  -2.808  -1.149  0.00  0.00    +0.050 A 
ATOM      3  N   UNL     1      -4.749  -3.241  -1.130  0.00  0.00    -0.221 NA
ATOM      4  C   UNL     1      -5.347  -3.560   0.000  0.00  0.00    +0.200 A 
ATOM      5  N   UNL     1      -4.700  -3.457   1.193  0.00  0.00    -0.295 N 
ATOM      6  C   UNL     1      -3.420  -3.028   1.226  0.00  0.00    +0.256 A 
ATOM      7  O   UNL     1      -2.822  -2.935   2.285  0.00  0.00    -0.267 OA
ATOM      8  N   UNL     1      -6.644  -4.002  -0.026  0.00  0.00    -0.283 N 
ATOM      9  C   UNL     1      -2.838  -2.452  -2.460  0.00  0.00    +0.066 C 
ATOM     10  H   UNL     1      -7.122  -4.154   0.805  0.00  0.00    +0.155 HD
ATOM     11  H   UNL     1      -5.154  -3.695   2.016  0.00  0.00    +0.172 HD
ENDROOT
BRANCH   8  12
ATOM     12  C   UNL     1      -7.279  -4.233  -1.248  0.00  0.00    +0.060 A 
ATOM     13  C   UNL     1      -6.557  -4.688  -2.329  0.00  0.00    +0.025 A 
ATOM     14  C   UNL     1      -7.177  -4.922  -3.553  0.00  0.00    +0.003 A 
ATOM     15  C   UNL     1      -8.512  -4.708  -3.714  0.00  0.00    +0.010 A 
ATOM     16  C   UNL     1      -9.283  -4.244  -2.636  0.00  0.00    +0.002 A 
ATOM     17  C   UNL     1      -8.666  -4.007  -1.383  0.00  0.00    +0.092 A 
ATOM     18  N   UNL     1      -9.397  -3.570  -0.354  0.00  0.00    -0.253 NA
ATOM     19  C   UNL     1     -10.685  -3.358  -0.473  0.00  0.00    +0.111 A 
ATOM     20  C   UNL     1     -11.355  -3.577  -1.675  0.00  0.00    +0.020 A 
ATOM     21  C   UNL     1     -10.665  -4.012  -2.770  0.00  0.00    +0.011 A 
ENDBRANCH   8  12
BRANCH   1  22
ATOM     22  C   UNL     1      -1.365  -2.196   0.005  0.00  0.00    +0.042 C 
BRANCH  22  23
ATOM     23  C   UNL     1      -1.341  -0.690   0.269  0.00  0.00    +0.005 C 
BRANCH  23  25
ATOM     24  C   UNL     1       0.131   1.313   0.523  0.00  0.00    +0.004 C 
ATOM     25  C   UNL     1       0.106  -0.193   0.259  0.00  0.00    -0.003 C 
ENDBRANCH  23  25
ENDBRANCH  22  23
ENDBRANCH   1  22
TORSDOF 4
