REMARK  Name = ZINC09292257
REMARK  10 active torsions:
REMARK  status: ('A' for Active; 'I' for Inactive)
REMARK    1  A    between atoms: C_1  and  C_2
REMARK    2  A    between atoms: C_2  and  O_3
REMARK    3  A    between atoms: O_3  and  C_4
REMARK    4  A    between atoms: C_7  and  C_12
REMARK    5  A    between atoms: C_9  and  O_10
REMARK    6  A    between atoms: O_10  and  C_11
REMARK    7  A    between atoms: C_19  and  N_33
REMARK    8  A    between atoms: C_20  and  C_31
REMARK    9  A    between atoms: C_21  and  C_23
REMARK   10  A    between atoms: C_28  and  O_29
REMARK                            x       y       z     vdW  Elec       q    Type
REMARK                         _______ _______ _______ _____ _____    ______ ____
ROOT
ATOM      1  C   UNL     1       1.249  -6.554   1.645  0.00  0.00    +0.100 A 
ATOM      2  C   UNL     1       0.077  -7.273   1.391  0.00  0.00    +0.054 A 
ATOM      3  C   UNL     1       0.329  -8.592   1.637  0.00  0.00    +0.223 A 
ATOM      4  N   UNL     1       1.615  -8.698   2.030  0.00  0.00    -0.246 N 
ATOM      5  H   UNL     1       2.072  -9.519   2.270  0.00  0.00    +0.192 HD
ATOM      6  N   UNL     1       2.178  -7.412   2.024  0.00  0.00    -0.171 NA
ATOM      7  O   UNL     1      -0.612  -9.558   1.486  0.00  0.00    -0.423 OA
ATOM      8  C   UNL     1      -1.894  -9.164   1.349  0.00  0.00    +0.200 C 
ATOM      9  C   UNL     1      -2.267  -7.890   1.093  0.00  0.00    +0.098 C 
ATOM     10  C   UNL     1      -1.266  -6.773   0.928  0.00  0.00    +0.105 C 
ENDROOT
BRANCH  10  11
ATOM     11  C   UNL     1      -1.187  -6.372  -0.522  0.00  0.00    +0.008 A 
ATOM     12  C   UNL     1      -0.710  -7.265  -1.462  0.00  0.00    +0.028 A 
ATOM     13  C   UNL     1      -0.637  -6.897  -2.793  0.00  0.00    +0.041 A 
ATOM     14  C   UNL     1      -1.041  -5.633  -3.187  0.00  0.00    +0.023 A 
ATOM     15  C   UNL     1      -1.518  -4.737  -2.251  0.00  0.00    +0.047 A 
ATOM     16  C   UNL     1      -1.598  -5.107  -0.916  0.00  0.00    +0.121 A 
ATOM     17 CL   UNL     1      -0.037  -8.022  -3.972  0.00  0.00    -0.084 Cl
BRANCH  16  18
ATOM     18  O   UNL     1      -2.072  -4.228   0.006  0.00  0.00    -0.506 OA
ATOM     19  H   UNL     1      -1.407  -3.611   0.341  0.00  0.00    +0.292 HD
ENDBRANCH  16  18
ENDBRANCH  10  11
BRANCH   1  23
ATOM     20  C   UNL     1       1.736  -2.343   1.252  0.00  0.00    +0.162 A 
ATOM     21  C   UNL     1       0.589  -2.857   1.838  0.00  0.00    +0.050 A 
ATOM     22  C   UNL     1       0.429  -4.222   1.967  0.00  0.00    +0.014 A 
ATOM     23  C   UNL     1       1.421  -5.087   1.507  0.00  0.00    +0.006 A 
ATOM     24  C   UNL     1       2.573  -4.572   0.918  0.00  0.00    +0.059 A 
ATOM     25  C   UNL     1       2.727  -3.203   0.786  0.00  0.00    +0.162 A 
BRANCH  25  26
ATOM     26  O   UNL     1       3.849  -2.697   0.206  0.00  0.00    -0.491 OA
ATOM     27  C   UNL     1       4.824  -3.637  -0.249  0.00  0.00    +0.277 C 
ENDBRANCH  25  26
BRANCH  20  28
ATOM     28  O   UNL     1       1.890  -0.998   1.127  0.00  0.00    -0.489 OA
BRANCH  28  30
ATOM     29  C   UNL     1       1.184   1.297   1.400  0.00  0.00    +0.048 C 
ATOM     30  C   UNL     1       0.834  -0.175   1.627  0.00  0.00    +0.226 C 
ENDBRANCH  28  30
ENDBRANCH  20  28
ENDBRANCH   1  23
BRANCH   8  31
ATOM     31  N   UNL     1      -2.879 -10.112   1.478  0.00  0.00    -0.328 N 
ATOM     32  H   UNL     1      -2.643 -11.034   1.662  0.00  0.00    +0.145 HD
ATOM     33  H   UNL     1      -3.811  -9.859   1.385  0.00  0.00    +0.145 HD
ENDBRANCH   8  31
BRANCH   9  34
ATOM     34  C   UNL     1      -3.662  -7.590   0.972  0.00  0.00    +0.101 C 
ATOM     35  N   UNL     1      -4.768  -7.353   0.877  0.00  0.00    -0.191 NA
ENDBRANCH   9  34
TORSDOF 8
