REMARK  Name = ZINC43746738
REMARK  5 active torsions:
REMARK  status: ('A' for Active; 'I' for Inactive)
REMARK    1  A    between atoms: C_1  and  C_2
REMARK    2  A    between atoms: C_12  and  C_14
REMARK    3  A    between atoms: C_23  and  O_33
REMARK    4  A    between atoms: C_24  and  C_31
REMARK    5  A    between atoms: C_27  and  O_30
REMARK                            x       y       z     vdW  Elec       q    Type
REMARK                         _______ _______ _______ _____ _____    ______ ____
ROOT
ATOM      1  C   UNL     1      -0.100   1.454  -0.555  0.00  0.00    +0.016 C 
ATOM      2  C   UNL     1      -0.060  -0.059  -0.327  0.00  0.00    -0.004 C 
ATOM      3  C   UNL     1       0.377  -0.769  -1.609  0.00  0.00    +0.012 C 
ATOM      4  C   UNL     1       1.838  -0.410  -1.910  0.00  0.00    +0.006 C 
ATOM      5  C   UNL     1       2.750  -0.925  -0.804  0.00  0.00    +0.012 C 
ATOM      6  C   UNL     1       2.432  -0.206   0.517  0.00  0.00    +0.019 C 
ATOM      7  C   UNL     1       0.949  -0.394   0.757  0.00  0.00    -0.064 C 
ATOM      8  C   UNL     1       0.369  -0.875   1.810  0.00  0.00    -0.026 C 
ATOM      9  C   UNL     1      -1.119  -1.011   1.621  0.00  0.00    +0.036 C 
ATOM     10  C   UNL     1      -1.417  -0.549   0.182  0.00  0.00    +0.036 C 
ATOM     11  C   UNL     1       3.265  -0.840   1.628  0.00  0.00    +0.011 C 
ATOM     12  C   UNL     1       4.749  -0.641   1.305  0.00  0.00    +0.036 C 
ATOM     13  C   UNL     1       5.087  -1.291  -0.036  0.00  0.00    +0.081 C 
ATOM     14  C   UNL     1       4.222  -0.693  -1.130  0.00  0.00    +0.058 C 
ATOM     15  C   UNL     1       4.571  -1.361  -2.462  0.00  0.00    +0.020 C 
ATOM     16  C   UNL     1       6.050  -1.130  -2.775  0.00  0.00    +0.032 C 
ATOM     17  C   UNL     1       6.909  -1.734  -1.661  0.00  0.00    +0.117 C 
ATOM     18  C   UNL     1       6.562  -1.056  -0.365  0.00  0.00    +0.067 C 
ENDROOT
BRANCH  10  19
ATOM     19  C   UNL     1      -2.420   0.576   0.184  0.00  0.00    -0.008 A 
ATOM     20  C   UNL     1      -2.274   1.647   1.083  0.00  0.00    +0.014 A 
ATOM     21  C   UNL     1      -3.195   2.654   1.066  0.00  0.00    +0.092 A 
ATOM     22  C   UNL     1      -4.261   2.589   0.151  0.00  0.00    +0.337 A 
ATOM     23  O   UNL     1      -5.093   3.480   0.121  0.00  0.00    -0.245 OA
ATOM     24  O   UNL     1      -4.363   1.547  -0.691  0.00  0.00    -0.430 OA
ATOM     25  C   UNL     1      -3.456   0.559  -0.680  0.00  0.00    +0.203 A 
ENDBRANCH  10  19
BRANCH  17  26
ATOM     26  O   UNL     1       6.657  -3.138  -1.575  0.00  0.00    -0.392 OA
ATOM     27  H   UNL     1       6.859  -3.625  -2.386  0.00  0.00    +0.210 HD
ENDBRANCH  17  26
BRANCH  14  28
ATOM     28  C   UNL     1       4.492   0.787  -1.217  0.00  0.00    +0.233 C 
ATOM     29  O   UNL     1       5.296   1.299  -0.475  0.00  0.00    -0.300 OA
ENDBRANCH  14  28
BRANCH  13  30
ATOM     30  O   UNL     1       4.838  -2.696   0.043  0.00  0.00    -0.388 OA
ATOM     31  H   UNL     1       5.358  -3.150   0.720  0.00  0.00    +0.210 HD
ENDBRANCH  13  30
TORSDOF 4
