REMARK  Name = ZINC23857816
REMARK  7 active torsions:
REMARK  status: ('A' for Active; 'I' for Inactive)
REMARK    1  A    between atoms: C_1  and  N_2
REMARK    2  A    between atoms: C_9  and  C_11
REMARK    3  A    between atoms: C_11  and  C_13
REMARK    4  A    between atoms: C_11  and  N_26
REMARK    5  A    between atoms: C_13  and  N_14
REMARK    6  A    between atoms: C_15  and  C_17
REMARK    7  A    between atoms: C_21  and  N_23
REMARK                            x       y       z     vdW  Elec       q    Type
REMARK                         _______ _______ _______ _____ _____    ______ ____
ROOT
ATOM      1  C   UNL     1       2.499   8.007   0.143  0.00  0.00    -0.020 C 
ENDROOT
BRANCH   1  10
ATOM      2  C   UNL     1       2.407  14.428  -0.587  0.00  0.00    +0.129 C 
ATOM      3  N   UNL     1       3.179  13.631   0.376  0.00  0.00    -0.332 N 
ATOM      4  C   UNL     1       2.750  13.913   1.763  0.00  0.00    +0.109 C 
ATOM      5  C   UNL     1       2.998  12.564   2.475  0.00  0.00    +0.056 C 
ATOM      6  C   UNL     1       2.904  11.562   1.341  0.00  0.00    -0.025 A 
ATOM      7  C   UNL     1       3.008  12.260   0.143  0.00  0.00    +0.033 A 
ATOM      8  C   UNL     1       2.939  11.558  -1.058  0.00  0.00    +0.023 A 
ATOM      9  C   UNL     1       2.780  10.188  -1.053  0.00  0.00    +0.004 A 
ATOM     10  C   UNL     1       2.676   9.503   0.143  0.00  0.00    -0.059 A 
ATOM     11  C   UNL     1       2.740  10.193   1.340  0.00  0.00    +0.007 A 
ENDBRANCH   1  10
BRANCH   1  12
ATOM     12  N   UNL     1       3.505   7.395  -0.736  0.00  0.00    +0.385 N 
ATOM     13  C   UNL     1       4.766   8.146  -0.695  0.00  0.00    -0.078 C 
ATOM     14  C   UNL     1       5.831   7.402  -1.504  0.00  0.00    -0.019 C 
ATOM     15  C   UNL     1       5.352   7.250  -2.950  0.00  0.00    -0.004 C 
ATOM     16  C   UNL     1       4.013   6.507  -2.961  0.00  0.00    -0.019 C 
ATOM     17  C   UNL     1       3.001   7.277  -2.110  0.00  0.00    -0.078 C 
ATOM     18  H   UNL     1       3.707   6.379  -0.365  0.00  0.00    -0.081 HD
ENDBRANCH   1  12
BRANCH   1  19
ATOM     19  C   UNL     1       1.098   7.658  -0.365  0.00  0.00    +0.094 C 
BRANCH  19  20
ATOM     20  N   UNL     1       0.923   6.204  -0.355  0.00  0.00    -0.313 N 
ATOM     21  C   UNL     1      -0.275   5.668  -0.660  0.00  0.00    +0.244 C 
ATOM     22  O   UNL     1      -1.211   6.391  -0.942  0.00  0.00    -0.270 OA
ATOM     23  H   UNL     1       1.770   5.550  -0.099  0.00  0.00    +0.149 HD
BRANCH  21  24
ATOM     24  C   UNL     1      -0.452   4.200  -0.650  0.00  0.00    +0.039 A 
ATOM     25  C   UNL     1       0.620   3.366  -0.326  0.00  0.00    +0.013 A 
ATOM     26  C   UNL     1       0.448   1.998  -0.319  0.00  0.00    +0.003 A 
ATOM     27  C   UNL     1      -0.783   1.450  -0.633  0.00  0.00    +0.033 A 
ATOM     28  C   UNL     1      -1.849   2.270  -0.960  0.00  0.00    +0.127 A 
ATOM     29  C   UNL     1      -1.692   3.641  -0.966  0.00  0.00    +0.045 A 
BRANCH  28  30
ATOM     30  N   UNL     1      -3.161   1.676  -1.301  0.00  0.00    +0.056 N 
ATOM     31  O   UNL     1      -3.302   0.466  -1.292  0.00  0.00    -0.126 OA
ATOM     32  O   UNL     1      -4.099   2.397  -1.589  0.00  0.00    -0.126 OA
ENDBRANCH  28  30
ENDBRANCH  21  24
ENDBRANCH  19  20
ENDBRANCH   1  19
TORSDOF 6
