REMARK  Name = ZINC10042665
REMARK  12 active torsions:
REMARK  status: ('A' for Active; 'I' for Inactive)
REMARK    1  A    between atoms: C_1  and  C_2
REMARK    2  A    between atoms: C_5  and  S_8
REMARK    3  A    between atoms: S_8  and  N_11
REMARK    4  A    between atoms: N_11  and  C_12
REMARK    5  A    between atoms: C_12  and  C_13
REMARK    6  A    between atoms: N_15  and  C_16
REMARK    7  A    between atoms: C_16  and  C_17
REMARK    8  A    between atoms: C_17  and  O_19
REMARK    9  A    between atoms: O_19  and  C_20
REMARK   10  A    between atoms: C_20  and  C_22
REMARK   11  A    between atoms: C_20  and  C_28
REMARK   12  A    between atoms: C_28  and  C_30
REMARK                            x       y       z     vdW  Elec       q    Type
REMARK                         _______ _______ _______ _____ _____    ______ ____
ROOT
ATOM      1  C   UNL     1      -2.578   6.274  -5.185  0.00  0.00    +0.325 C 
ATOM      2  O   UNL     1      -2.365   7.055  -4.288  0.00  0.00    -0.249 OA
ENDROOT
BRANCH   1   3
ATOM      3  C   UNL     1      -2.315   4.804  -4.982  0.00  0.00    +0.225 C 
BRANCH   3   6
ATOM      4  C   UNL     1      -1.505   3.333  -3.216  0.00  0.00    +0.229 C 
ATOM      5  O   UNL     1      -1.648   2.396  -3.972  0.00  0.00    -0.274 OA
ATOM      6  N   UNL     1      -1.810   4.581  -3.625  0.00  0.00    -0.304 N 
ATOM      7  H   UNL     1      -1.696   5.331  -3.021  0.00  0.00    +0.149 HD
BRANCH   4   8
ATOM      8  C   UNL     1      -0.986   3.104  -1.821  0.00  0.00    +0.201 C 
BRANCH   8   9
ATOM      9  N   UNL     1      -0.731   1.675  -1.623  0.00  0.00    -0.181 NA
ATOM     10  H   UNL     1      -1.097   1.026  -2.245  0.00  0.00    +0.149 HD
BRANCH   9  11
ATOM     11  S   UNL     1       0.182   1.166  -0.339  0.00  0.00    +0.059 S 
ATOM     12  O   UNL     1       0.224  -0.253  -0.407  0.00  0.00    -0.153 OA
ATOM     13  O   UNL     1       1.358   1.964  -0.335  0.00  0.00    -0.153 OA
BRANCH  11  18
ATOM     14  C   UNL     1      -2.863   2.563   4.679  0.00  0.00    +0.044 C 
ATOM     15  C   UNL     1      -2.102   2.214   3.426  0.00  0.00    -0.050 A 
ATOM     16  C   UNL     1      -2.299   0.989   2.816  0.00  0.00    +0.005 A 
ATOM     17  C   UNL     1      -1.601   0.669   1.667  0.00  0.00    +0.029 A 
ATOM     18  C   UNL     1      -0.707   1.574   1.126  0.00  0.00    +0.105 A 
ATOM     19  C   UNL     1      -0.507   2.797   1.739  0.00  0.00    +0.029 A 
ATOM     20  C   UNL     1      -1.208   3.119   2.886  0.00  0.00    +0.005 A 
ENDBRANCH  11  18
ENDBRANCH   9  11
ENDBRANCH   8   9
ENDBRANCH   4   8
ENDBRANCH   3   6
ENDBRANCH   1   3
BRANCH   1  21
ATOM     21  O   UNL     1      -3.048   6.716  -6.362  0.00  0.00    -0.447 OA
BRANCH  21  22
ATOM     22  C   UNL     1      -3.277   8.145  -6.486  0.00  0.00    +0.277 C 
BRANCH  22  23
ATOM     23  C   UNL     1      -4.687   8.466  -6.062  0.00  0.00    +0.000 A 
ATOM     24  C   UNL     1      -5.725   7.625  -6.420  0.00  0.00    +0.008 A 
ATOM     25  C   UNL     1      -7.017   7.917  -6.027  0.00  0.00    +0.000 A 
ATOM     26  C   UNL     1      -7.274   9.055  -5.286  0.00  0.00    +0.000 A 
ATOM     27  C   UNL     1      -6.237   9.899  -4.933  0.00  0.00    +0.000 A 
ATOM     28  C   UNL     1      -4.944   9.604  -5.321  0.00  0.00    +0.008 A 
ENDBRANCH  22  23
BRANCH  22  29
ATOM     29  C   UNL     1      -3.076   8.563  -7.920  0.00  0.00    +0.208 C 
ATOM     30  O   UNL     1      -3.141   7.739  -8.807  0.00  0.00    -0.288 OA
BRANCH  29  31
ATOM     31  C   UNL     1      -2.800   9.971  -8.243  0.00  0.00    +0.022 A 
ATOM     32  C   UNL     1      -2.607  10.903  -7.218  0.00  0.00    +0.013 A 
ATOM     33  C   UNL     1      -2.343  12.220  -7.529  0.00  0.00    +0.021 A 
ATOM     34  C   UNL     1      -2.282  12.623  -8.853  0.00  0.00    +0.041 A 
ATOM     35  C   UNL     1      -2.478  11.707  -9.873  0.00  0.00    +0.021 A 
ATOM     36  C   UNL     1      -2.736  10.386  -9.578  0.00  0.00    +0.013 A 
ATOM     37 CL   UNL     1      -1.957  14.286  -9.234  0.00  0.00    -0.084 Cl
ENDBRANCH  29  31
ENDBRANCH  22  29
ENDBRANCH  21  22
ENDBRANCH   1  21
TORSDOF 11
