REMARK  Name = ZINC06887646
REMARK  5 active torsions:
REMARK  status: ('A' for Active; 'I' for Inactive)
REMARK    1  A    between atoms: C_1  and  C_2
REMARK    2  A    between atoms: C_5  and  C_24
REMARK    3  A    between atoms: C_6  and  N_8
REMARK    4  A    between atoms: N_8  and  S_9
REMARK    5  A    between atoms: S_9  and  C_12
REMARK                            x       y       z     vdW  Elec       q    Type
REMARK                         _______ _______ _______ _____ _____    ______ ____
ROOT
ATOM      1  S   UNL     1      -0.668  -2.154   3.737  0.00  0.00    +0.072 S 
ATOM      2  O   UNL     1      -0.407  -3.055   4.805  0.00  0.00    -0.150 OA
ATOM      3  O   UNL     1      -0.290  -0.785   3.785  0.00  0.00    -0.150 OA
ENDROOT
BRANCH   1   4
ATOM      4  C   UNL     1      -2.408  -2.187   3.464  0.00  0.00    +0.110 A 
ATOM      5  C   UNL     1      -3.030  -1.109   2.861  0.00  0.00    +0.030 A 
ATOM      6  C   UNL     1      -4.396  -1.125   2.643  0.00  0.00    +0.018 A 
ATOM      7  C   UNL     1      -5.139  -2.227   3.031  0.00  0.00    +0.029 A 
ATOM      8  C   UNL     1      -4.513  -3.315   3.637  0.00  0.00    +0.049 A 
ATOM      9  C   UNL     1      -3.144  -3.293   3.848  0.00  0.00    +0.053 A 
ATOM     10  N   UNL     1      -5.280  -4.426   4.020  0.00  0.00    -0.284 N 
ATOM     11  C   UNL     1      -6.119  -5.001   3.149  0.00  0.00    +0.218 C 
ATOM     12  O   UNL     1      -6.911  -5.830   3.545  0.00  0.00    -0.275 OA
ATOM     13  C   UNL     1      -6.098  -4.639   1.694  0.00  0.00    +0.107 C 
ATOM     14  C   UNL     1      -7.069  -3.479   1.414  0.00  0.00    +0.083 C 
ATOM     15  S   UNL     1      -6.883  -2.274   2.770  0.00  0.00    -0.123 S 
ATOM     16  H   UNL     1      -5.201  -4.780   4.920  0.00  0.00    +0.155 HD
ENDBRANCH   1   4
BRANCH   1  17
ATOM     17  N   UNL     1       0.051  -2.796   2.390  0.00  0.00    -0.216 N 
ATOM     18  H   UNL     1       0.600  -3.593   2.466  0.00  0.00    +0.174 HD
BRANCH  17  24
ATOM     19  C   UNL     1      -0.518   1.286  -0.286  0.00  0.00    +0.044 C 
ATOM     20  C   UNL     1      -0.411  -0.213  -0.182  0.00  0.00    -0.049 A 
ATOM     21  C   UNL     1      -0.495  -0.992  -1.322  0.00  0.00    +0.004 A 
ATOM     22  C   UNL     1      -0.398  -2.368  -1.232  0.00  0.00    +0.005 A 
ATOM     23  C   UNL     1      -0.216  -2.970  -0.002  0.00  0.00    -0.028 A 
ATOM     24  C   UNL     1      -0.132  -2.191   1.145  0.00  0.00    +0.051 A 
ATOM     25  C   UNL     1      -0.225  -0.808   1.050  0.00  0.00    +0.028 A 
ATOM     26  C   UNL     1      -0.111  -4.470   0.096  0.00  0.00    +0.046 C 
ENDBRANCH  17  24
ENDBRANCH   1  17
TORSDOF 3
