REMARK  Name = ZINC39688691
REMARK  6 active torsions:
REMARK  status: ('A' for Active; 'I' for Inactive)
REMARK    1  A    between atoms: C_1  and  C_2
REMARK    2  A    between atoms: C_2  and  C_4
REMARK    3  A    between atoms: C_2  and  N_12
REMARK    4  A    between atoms: C_4  and  C_5
REMARK    5  A    between atoms: C_13  and  C_15
REMARK    6  A    between atoms: C_26  and  C_28
REMARK                            x       y       z     vdW  Elec       q    Type
REMARK                         _______ _______ _______ _____ _____    ______ ____
ROOT
ATOM      1  C   UNL     1       2.783  -1.099   2.395  0.00  0.00    +0.100 C 
ATOM      2  C   UNL     1       2.678  -0.070   3.542  0.00  0.00    +0.121 C 
ATOM      3  N   UNL     1       3.999  -0.120   4.212  0.00  0.00    -0.297 N 
ATOM      4  C   UNL     1       4.971  -0.257   3.101  0.00  0.00    +0.115 C 
ATOM      5  C   UNL     1       4.289  -1.219   2.107  0.00  0.00    -0.004 C 
ATOM      6  C   UNL     1       4.589  -0.794   0.673  0.00  0.00    -0.010 C 
ATOM      7  C   UNL     1       6.083  -0.977   0.393  0.00  0.00    -0.082 C 
ATOM      8  N   UNL     1       6.452  -2.383   0.596  0.00  0.00    +0.379 N 
ATOM      9  C   UNL     1       6.248  -2.757   2.001  0.00  0.00    -0.082 C 
ATOM     10  C   UNL     1       4.761  -2.649   2.349  0.00  0.00    -0.010 C 
ATOM     11  C   UNL     1       4.258  -0.057   5.533  0.00  0.00    +0.260 C 
ATOM     12  O   UNL     1       5.402  -0.111   5.930  0.00  0.00    -0.271 OA
ATOM     13  H   UNL     1       5.879  -2.968   0.007  0.00  0.00    -0.086 HD
ATOM     14  H   UNL     1       7.423  -2.513   0.352  0.00  0.00    -0.086 HD
ENDROOT
BRANCH  11  15
ATOM     15  C   UNL     1       3.125   0.083   6.517  0.00  0.00    +0.296 C 
ATOM     16  C   UNL     1       2.435   1.440   6.324  0.00  0.00    +0.283 C 
ATOM     17  O   UNL     1       1.376   1.544   7.281  0.00  0.00    -0.484 OA
ATOM     18  C   UNL     1       1.672   1.192   8.562  0.00  0.00    +0.162 A 
ATOM     19  C   UNL     1       0.836   1.600   9.591  0.00  0.00    +0.049 A 
ATOM     20  C   UNL     1       1.122   1.246  10.896  0.00  0.00    +0.004 A 
ATOM     21  C   UNL     1       2.241   0.486  11.180  0.00  0.00    +0.004 A 
ATOM     22  C   UNL     1       3.079   0.077  10.159  0.00  0.00    +0.049 A 
ATOM     23  C   UNL     1       2.798   0.429   8.847  0.00  0.00    +0.163 A 
ATOM     24  O   UNL     1       3.636   0.025   7.853  0.00  0.00    -0.473 OA
ENDBRANCH  11  15
BRANCH   1  26
ATOM     25  N   UNL     1       1.468  -1.476   0.334  0.00  0.00    -0.312 N 
ATOM     26  C   UNL     1       2.054  -0.600   1.174  0.00  0.00    +0.218 C 
ATOM     27  O   UNL     1       1.994   0.590   0.947  0.00  0.00    -0.275 OA
ATOM     28  H   UNL     1       1.515  -2.428   0.515  0.00  0.00    +0.149 HD
BRANCH  25  30
ATOM     29  C   UNL     1      -0.676  -0.619  -0.474  0.00  0.00    +0.028 C 
ATOM     30  C   UNL     1       0.759  -0.990  -0.853  0.00  0.00    +0.074 C 
BRANCH  30  31
ATOM     31  C   UNL     1       0.738  -2.088  -1.919  0.00  0.00    +0.057 C 
BRANCH  31  32
ATOM     32  C   UNL     1       2.144  -2.368  -2.381  0.00  0.00    -0.045 A 
ATOM     33  C   UNL     1       2.676  -1.661  -3.443  0.00  0.00    +0.006 A 
ATOM     34  C   UNL     1       3.966  -1.916  -3.868  0.00  0.00    +0.038 A 
ATOM     35  C   UNL     1       4.726  -2.880  -3.228  0.00  0.00    +0.123 A 
ATOM     36  C   UNL     1       4.193  -3.588  -2.164  0.00  0.00    +0.038 A 
ATOM     37  C   UNL     1       2.905  -3.327  -1.738  0.00  0.00    +0.006 A 
ATOM     38  F   UNL     1       5.988  -3.131  -3.643  0.00  0.00    -0.205 F 
ENDBRANCH  31  32
ENDBRANCH  30  31
ENDBRANCH  25  30
ENDBRANCH   1  26
TORSDOF 5
