REMARK  Name = ZINC66374396
REMARK  5 active torsions:
REMARK  status: ('A' for Active; 'I' for Inactive)
REMARK    1  A    between atoms: C_4  and  C_8
REMARK    2  A    between atoms: C_11  and  C_14
REMARK    3  A    between atoms: N_16  and  C_17
REMARK    4  A    between atoms: C_17  and  C_18
REMARK    5  A    between atoms: C_18  and  C_19
REMARK                            x       y       z     vdW  Elec       q    Type
REMARK                         _______ _______ _______ _____ _____    ______ ____
ROOT
ATOM      1  C   UNL     1       5.513  -2.567   1.819  0.00  0.00    +0.257 C 
ATOM      2  O   UNL     1       5.986  -1.690   2.511  0.00  0.00    -0.272 OA
ATOM      3  N   UNL     1       5.124  -3.730   2.378  0.00  0.00    -0.312 N 
ATOM      4  H   UNL     1       4.746  -4.431   1.825  0.00  0.00    +0.149 HD
ENDROOT
BRANCH   1   8
ATOM      5  C   UNL     1       3.695  -0.685  -0.037  0.00  0.00    +0.094 C 
ATOM      6  N   UNL     1       4.864  -0.138  -0.040  0.00  0.00    -0.088 NA
ATOM      7  O   UNL     1       5.914  -1.085  -0.065  0.00  0.00    -0.380 OA
ATOM      8  C   UNL     1       5.363  -2.356   0.335  0.00  0.00    +0.295 C 
ATOM      9  C   UNL     1       3.874  -2.191  -0.047  0.00  0.00    +0.116 C 
BRANCH   5  13
ATOM     10  C   UNL     1      -0.017   1.381   0.010  0.00  0.00    +0.041 A 
ATOM     11  C   UNL     1       1.167   2.096   0.002  0.00  0.00    +0.042 A 
ATOM     12  C   UNL     1       2.379   1.431  -0.013  0.00  0.00    +0.132 A 
ATOM     13  C   UNL     1       2.405   0.032  -0.021  0.00  0.00    +0.037 A 
ATOM     14  C   UNL     1       1.206  -0.682  -0.013  0.00  0.00    +0.051 A 
ATOM     15  C   UNL     1       0.002  -0.004   0.002  0.00  0.00    +0.124 A 
ATOM     16  F   UNL     1      -1.160  -0.694   0.010  0.00  0.00    -0.205 F 
ATOM     17  F   UNL     1       3.535   2.130  -0.021  0.00  0.00    -0.205 F 
ENDBRANCH   5  13
ENDBRANCH   1   8
BRANCH   3  18
ATOM     18  C   UNL     1       5.270  -3.935   3.821  0.00  0.00    +0.110 C 
BRANCH  18  19
ATOM     19  C   UNL     1       4.756  -5.327   4.194  0.00  0.00    +0.073 C 
BRANCH  19  20
ATOM     20  C   UNL     1       4.907  -5.537   5.678  0.00  0.00    +0.035 A 
ATOM     21  C   UNL     1       6.019  -5.965   6.309  0.00  0.00    +0.108 A 
ATOM     22  N   UNL     1       5.722  -6.013   7.638  0.00  0.00    -0.336 N 
ATOM     23  C   UNL     1       4.436  -5.615   7.780  0.00  0.00    +0.087 A 
ATOM     24  N   UNL     1       3.958  -5.326   6.605  0.00  0.00    -0.347 N 
ATOM     25  C   UNL     1       3.720  -5.531   9.107  0.00  0.00    +0.072 C 
ATOM     26  C   UNL     1       4.528  -6.327  10.140  0.00  0.00    +0.009 C 
ATOM     27  C   UNL     1       6.000  -5.912  10.057  0.00  0.00    +0.022 C 
ATOM     28  C   UNL     1       6.600  -6.415   8.740  0.00  0.00    +0.123 C 
ATOM     29  H   UNL     1       3.058  -5.010   6.426  0.00  0.00    +0.167 HD
ENDBRANCH  19  20
ENDBRANCH  18  19
ENDBRANCH   3  18
TORSDOF 5
