REMARK  Name = ZINC05444398
REMARK  7 active torsions:
REMARK  status: ('A' for Active; 'I' for Inactive)
REMARK    1  A    between atoms: C_1  and  C_2
REMARK    2  A    between atoms: C_2  and  O_3
REMARK    3  A    between atoms: O_3  and  C_4
REMARK    4  A    between atoms: C_4  and  C_6
REMARK    5  A    between atoms: C_9  and  N_12
REMARK    6  A    between atoms: C_13  and  C_15
REMARK    7  A    between atoms: C_15  and  C_16
REMARK                            x       y       z     vdW  Elec       q    Type
REMARK                         _______ _______ _______ _____ _____    ______ ____
ROOT
ATOM      1  N   UNL     1      -4.936   3.964   0.049  0.00  0.00    -0.286 N 
ATOM      2  C   UNL     1      -4.957   5.307   0.158  0.00  0.00    +0.216 C 
ATOM      3  O   UNL     1      -3.917   5.931   0.157  0.00  0.00    -0.276 OA
ATOM      4  H   UNL     1      -5.769   3.471  -0.028  0.00  0.00    +0.155 HD
ENDROOT
BRANCH   1   8
ATOM      5  C   UNL     1      -1.302   1.929   0.036  0.00  0.00    +0.059 A 
ATOM      6  C   UNL     1      -2.374   1.453  -0.725  0.00  0.00    +0.017 A 
ATOM      7  C   UNL     1      -3.575   2.125  -0.714  0.00  0.00    +0.024 A 
ATOM      8  C   UNL     1      -3.720   3.283   0.044  0.00  0.00    +0.033 A 
ATOM      9  C   UNL     1      -2.654   3.763   0.799  0.00  0.00    +0.024 A 
ATOM     10  C   UNL     1      -1.451   3.093   0.797  0.00  0.00    +0.017 A 
BRANCH   5  11
ATOM     11  C   UNL     1      -0.015   1.209   0.031  0.00  0.00    +0.339 C 
ATOM     12  O   UNL     1       0.917   1.627   0.689  0.00  0.00    -0.245 OA
BRANCH  11  13
ATOM     13  O   UNL     1       0.125   0.085  -0.698  0.00  0.00    -0.461 OA
BRANCH  13  15
ATOM     14  C   UNL     1       1.386  -1.823  -1.534  0.00  0.00    +0.048 C 
ATOM     15  C   UNL     1       1.418  -0.575  -0.650  0.00  0.00    +0.229 C 
ENDBRANCH  13  15
ENDBRANCH  11  13
ENDBRANCH   5  11
ENDBRANCH   1   8
BRANCH   2  16
ATOM     16  C   UNL     1      -6.271   6.034   0.282  0.00  0.00    +0.089 C 
BRANCH  16  17
ATOM     17  C   UNL     1      -6.014   7.538   0.391  0.00  0.00    +0.025 C 
ATOM     18  C   UNL     1      -7.314   8.248   0.646  0.00  0.00    +0.200 C 
ATOM     19  O   UNL     1      -8.088   7.772   1.449  0.00  0.00    -0.278 OA
ATOM     20  N   UNL     1      -7.654   9.383   0.028  0.00  0.00    -0.315 N 
ATOM     21  C   UNL     1      -6.810  10.004  -0.985  0.00  0.00    +0.059 C 
ATOM     22  C   UNL     1      -6.857  11.523  -0.878  0.00  0.00    +0.020 C 
ATOM     23  C   UNL     1      -6.250  11.973   0.453  0.00  0.00    +0.002 C 
ATOM     24  C   UNL     1      -4.798  11.495   0.529  0.00  0.00    -0.001 C 
ATOM     25  C   UNL     1      -4.767   9.968   0.460  0.00  0.00    -0.014 C 
ATOM     26  C   UNL     1      -5.375   9.495  -0.863  0.00  0.00    -0.050 C 
ATOM     27  H   UNL     1      -8.494   9.808   0.260  0.00  0.00    +0.149 HD
ATOM     28  N   UNL     1      -5.410   8.018  -0.861  0.00  0.00    +0.390 N 
ATOM     29  H   UNL     1      -5.968   7.689  -1.657  0.00  0.00    -0.084 HD
ATOM     30  H   UNL     1      -4.453   7.654  -0.939  0.00  0.00    -0.084 HD
ENDBRANCH  16  17
ENDBRANCH   2  16
TORSDOF 6
