REMARK  Name = ZINC44713612
REMARK  7 active torsions:
REMARK  status: ('A' for Active; 'I' for Inactive)
REMARK    1  A    between atoms: C_1  and  C_2
REMARK    2  A    between atoms: C_3  and  C_9
REMARK    3  A    between atoms: C_4  and  C_8
REMARK    4  A    between atoms: C_9  and  C_11
REMARK    5  A    between atoms: C_9  and  N_12
REMARK    6  A    between atoms: C_13  and  C_15
REMARK    7  A    between atoms: C_26  and  C_28
REMARK                            x       y       z     vdW  Elec       q    Type
REMARK                         _______ _______ _______ _____ _____    ______ ____
ROOT
ATOM      1  C   UNL     1       2.523  -1.347  -5.208  0.00  0.00    +0.100 C 
ATOM      2  C   UNL     1       1.929  -2.698  -5.665  0.00  0.00    +0.121 C 
ATOM      3  N   UNL     1       1.416  -2.439  -7.030  0.00  0.00    -0.296 N 
ATOM      4  C   UNL     1       2.436  -1.556  -7.646  0.00  0.00    +0.115 C 
ATOM      5  C   UNL     1       2.857  -0.601  -6.511  0.00  0.00    -0.004 C 
ATOM      6  C   UNL     1       4.354  -0.318  -6.589  0.00  0.00    -0.010 C 
ATOM      7  C   UNL     1       4.654   0.475  -7.864  0.00  0.00    -0.082 C 
ATOM      8  N   UNL     1       3.897   1.732  -7.850  0.00  0.00    +0.379 N 
ATOM      9  C   UNL     1       2.457   1.450  -7.870  0.00  0.00    -0.082 C 
ATOM     10  C   UNL     1       2.064   0.699  -6.594  0.00  0.00    -0.010 C 
ATOM     11  C   UNL     1       0.280  -2.902  -7.588  0.00  0.00    +0.248 C 
ATOM     12  O   UNL     1      -0.508  -3.543  -6.919  0.00  0.00    -0.270 OA
ATOM     13  H   UNL     1       4.125   2.252  -7.016  0.00  0.00    -0.086 HD
ATOM     14  H   UNL     1       4.142   2.280  -8.661  0.00  0.00    -0.086 HD
ENDROOT
BRANCH  11  15
ATOM     15  C   UNL     1      -0.009  -2.631  -9.011  0.00  0.00    +0.055 A 
ATOM     16  C   UNL     1       1.031  -2.593  -9.942  0.00  0.00    +0.016 A 
ATOM     17  C   UNL     1       0.755  -2.339 -11.269  0.00  0.00    +0.021 A 
ATOM     18  C   UNL     1      -0.551  -2.122 -11.680  0.00  0.00    +0.042 A 
ATOM     19  C   UNL     1      -1.586  -2.159 -10.762  0.00  0.00    +0.040 A 
ATOM     20  C   UNL     1      -1.325  -2.418  -9.431  0.00  0.00    +0.054 A 
ATOM     21 CL   UNL     1      -2.625  -2.471  -8.283  0.00  0.00    -0.083 Cl
ATOM     22 CL   UNL     1      -0.888  -1.803 -13.352  0.00  0.00    -0.083 Cl
ENDBRANCH  11  15
BRANCH   1  24
ATOM     23  N   UNL     1       1.917   0.267  -3.434  0.00  0.00    -0.308 N 
ATOM     24  C   UNL     1       1.509  -0.572  -4.406  0.00  0.00    +0.219 C 
ATOM     25  O   UNL     1       0.325  -0.704  -4.636  0.00  0.00    -0.275 OA
ATOM     26  H   UNL     1       2.864   0.373  -3.250  0.00  0.00    +0.149 HD
BRANCH  23  27
ATOM     27  C   UNL     1       0.931   1.020  -2.654  0.00  0.00    +0.104 C 
ATOM     28  C   UNL     1       0.430   0.156  -1.495  0.00  0.00    +0.033 C 
BRANCH  27  31
ATOM     29  C   UNL     1      -0.315   3.889  -2.681  0.00  0.00    +0.065 C 
ATOM     30  C   UNL     1       1.031   3.511  -2.120  0.00  0.00    +0.038 A 
ATOM     31  C   UNL     1       1.571   2.270  -2.108  0.00  0.00    +0.015 A 
ATOM     32  C   UNL     1       2.828   2.353  -1.500  0.00  0.00    +0.065 A 
ATOM     33  N   UNL     1       3.035   3.599  -1.158  0.00  0.00    -0.179 NA
ATOM     34  N   UNL     1       1.917   4.350  -1.544  0.00  0.00    -0.281 N 
ATOM     35  H   UNL     1       1.800   5.305  -1.417  0.00  0.00    +0.189 HD
ATOM     36  C   UNL     1       3.779   1.206  -1.276  0.00  0.00    +0.068 C 
ENDBRANCH  27  31
ENDBRANCH  23  27
ENDBRANCH   1  24
TORSDOF 4
