REMARK  Name = ZINC06239160
REMARK  10 active torsions:
REMARK  status: ('A' for Active; 'I' for Inactive)
REMARK    1  A    between atoms: C_1  and  C_2
REMARK    2  A    between atoms: C_2  and  C_3
REMARK    3  A    between atoms: C_2  and  C_4
REMARK    4  A    between atoms: C_7  and  O_11
REMARK    5  A    between atoms: O_11  and  C_12
REMARK    6  A    between atoms: C_12  and  C_13
REMARK    7  A    between atoms: N_15  and  N_16
REMARK    8  A    between atoms: C_17  and  C_18
REMARK    9  A    between atoms: C_17  and  C_19
REMARK   10  A    between atoms: C_22  and  N_25
REMARK                            x       y       z     vdW  Elec       q    Type
REMARK                         _______ _______ _______ _____ _____    ______ ____
ROOT
ATOM      1  C   UNL     1       3.714  -0.859  -0.038  0.00  0.00    +0.270 C 
ATOM      2  O   UNL     1       4.665  -0.105  -0.043  0.00  0.00    -0.270 OA
ATOM      3  N   UNL     1       3.910  -2.192  -0.047  0.00  0.00    -0.204 N 
ATOM      4  H   UNL     1       3.150  -2.794  -0.043  0.00  0.00    +0.177 HD
ENDROOT
BRANCH   3   5
ATOM      5  N   UNL     1       5.213  -2.708  -0.062  0.00  0.00    -0.184 NA
ATOM      6  C   UNL     1       5.402  -3.992  -0.071  0.00  0.00    +0.063 C 
ATOM      7  C   UNL     1       4.221  -4.928  -0.065  0.00  0.00    +0.068 C 
BRANCH   6   8
ATOM      8  C   UNL     1       6.772  -4.535  -0.087  0.00  0.00    -0.002 A 
ATOM      9  C   UNL     1       6.978  -5.917  -0.090  0.00  0.00    +0.011 A 
ATOM     10  C   UNL     1       8.260  -6.421  -0.110  0.00  0.00    +0.023 A 
ATOM     11  C   UNL     1       9.349  -5.556  -0.116  0.00  0.00    +0.025 A 
ATOM     12  C   UNL     1       9.148  -4.179  -0.107  0.00  0.00    +0.023 A 
ATOM     13  C   UNL     1       7.869  -3.668  -0.093  0.00  0.00    +0.011 A 
BRANCH  11  14
ATOM     14  N   UNL     1      10.646  -6.069  -0.131  0.00  0.00    -0.358 N 
ATOM     15  H   UNL     1      11.406  -5.467  -0.135  0.00  0.00    +0.142 HD
ATOM     16  H   UNL     1      10.787  -7.029  -0.137  0.00  0.00    +0.142 HD
ENDBRANCH  11  14
ENDBRANCH   6   8
ENDBRANCH   3   5
BRANCH   1  17
ATOM     17  C   UNL     1       2.313  -0.304  -0.022  0.00  0.00    +0.326 C 
BRANCH  17  18
ATOM     18  O   UNL     1       2.366   1.124  -0.015  0.00  0.00    -0.482 OA
BRANCH  18  22
ATOM     19  C   UNL     1      -1.238   3.133   0.030  0.00  0.00    -0.044 A 
ATOM     20  C   UNL     1      -1.218   1.751   0.017  0.00  0.00    +0.007 A 
ATOM     21  C   UNL     1      -0.013   1.076   0.008  0.00  0.00    +0.047 A 
ATOM     22  C   UNL     1       1.179   1.786   0.000  0.00  0.00    +0.135 A 
ATOM     23  C   UNL     1       1.157   3.174   0.008  0.00  0.00    +0.060 A 
ATOM     24  C   UNL     1      -0.052   3.844   0.022  0.00  0.00    +0.022 A 
ATOM     25 BR   UNL     1       2.778   4.147  -0.002  0.00  0.00    -0.047 Br
BRANCH  19  27
ATOM     26  C   UNL     1      -3.363   3.491  -1.197  0.00  0.00    +0.012 C 
ATOM     27  C   UNL     1      -2.554   3.866   0.046  0.00  0.00    +0.013 C 
ATOM     28  C   UNL     1      -3.339   3.478   1.301  0.00  0.00    +0.012 C 
ENDBRANCH  19  27
ENDBRANCH  18  22
ENDBRANCH  17  18
ENDBRANCH   1  17
TORSDOF 7
