REMARK  Name = ZINC12041452
REMARK  13 active torsions:
REMARK  status: ('A' for Active; 'I' for Inactive)
REMARK    1  A    between atoms: C_1  and  N_73
REMARK    2  A    between atoms: C_2  and  N_73
REMARK    3  A    between atoms: C_3  and  C_4
REMARK    4  A    between atoms: C_3  and  N_73
REMARK    5  A    between atoms: C_4  and  N_5
REMARK    6  A    between atoms: N_8  and  C_13
REMARK    7  A    between atoms: C_14  and  C_24
REMARK    8  A    between atoms: C_19  and  O_22
REMARK    9  A    between atoms: O_22  and  C_23
REMARK   10  A    between atoms: C_24  and  N_77
REMARK   11  A    between atoms: C_25  and  C_26
REMARK   12  A    between atoms: C_25  and  N_77
REMARK   13  A    between atoms: C_26  and  C_27
REMARK                            x       y       z     vdW  Elec       q    Type
REMARK                         _______ _______ _______ _____ _____    ______ ____
ROOT
ATOM      1  C   UNL     1       3.650   6.030   0.203  0.00  0.00    +0.101 A 
ATOM      2  C   UNL     1       4.877   5.354   0.254  0.00  0.00    -0.026 A 
ATOM      3  C   UNL     1       4.920   4.007   0.053  0.00  0.00    +0.015 A 
ATOM      4  C   UNL     1       3.711   3.330  -0.204  0.00  0.00    -0.001 A 
ATOM      5  C   UNL     1       3.687   1.944  -0.420  0.00  0.00    +0.013 A 
ATOM      6  C   UNL     1       2.504   1.315  -0.661  0.00  0.00    +0.046 A 
ATOM      7  C   UNL     1       1.307   2.037  -0.707  0.00  0.00    +0.122 A 
ATOM      8  C   UNL     1       1.297   3.397  -0.499  0.00  0.00    +0.071 A 
ATOM      9  C   UNL     1       2.503   4.069  -0.243  0.00  0.00    +0.051 A 
ATOM     10  N   UNL     1       2.457   5.432  -0.040  0.00  0.00    -0.343 N 
ATOM     11  H   UNL     1       1.576   5.960  -0.070  0.00  0.00    +0.167 HD
ENDROOT
BRANCH   1  15
ATOM     12  N   UNL     1       2.180  10.172   0.716  0.00  0.00    -0.302 N 
ATOM     13  C   UNL     1       2.601   9.200   1.739  0.00  0.00    +0.126 C 
ATOM     14  C   UNL     1       2.441   7.790   1.166  0.00  0.00    +0.125 C 
ATOM     15  N   UNL     1       3.622   7.401   0.410  0.00  0.00    -0.315 N 
ATOM     16  C   UNL     1       3.849   8.121  -0.835  0.00  0.00    +0.115 C 
ATOM     17  C   UNL     1       4.213   9.582  -0.556  0.00  0.00    +0.115 C 
ATOM     18  C   UNL     1       2.930  10.367  -0.373  0.00  0.00    +0.217 C 
ATOM     19  O   UNL     1       2.585  11.170  -1.213  0.00  0.00    -0.276 OA
BRANCH  12  20
ATOM     20  C   UNL     1       0.937  10.927   0.892  0.00  0.00    +0.089 C 
BRANCH  20  21
ATOM     21  C   UNL     1       1.232  12.229   1.641  0.00  0.00    -0.060 C 
BRANCH  21  24
ATOM     22  C   UNL     1      -0.942  12.273   2.706  0.00  0.00    -0.097 C 
ATOM     23  C   UNL     1       0.258  14.340   2.316  0.00  0.00    -0.097 C 
ATOM     24  N   UNL     1      -0.027  12.988   1.791  0.00  0.00    +0.377 N 
ATOM     25  H   UNL     1      -0.476  13.075   0.872  0.00  0.00    -0.083 HD
ENDBRANCH  21  24
ENDBRANCH  20  21
ENDBRANCH  12  20
ENDBRANCH   1  15
BRANCH   7  26
ATOM     26  O   UNL     1       0.141   1.387  -0.954  0.00  0.00    -0.495 OA
ATOM     27  C   UNL     1       0.216  -0.025  -1.162  0.00  0.00    +0.277 C 
ENDBRANCH   7  26
BRANCH   2  28
ATOM     28  C   UNL     1       6.147   6.117   0.531  0.00  0.00    -0.043 C 
BRANCH  28  29
ATOM     29  N   UNL     1       6.195   6.471   1.962  0.00  0.00    +0.382 N 
ATOM     30  H   UNL     1       6.174   5.612   2.525  0.00  0.00    -0.085 HD
ATOM     31  H   UNL     1       5.382   7.052   2.195  0.00  0.00    -0.085 HD
BRANCH  29  32
ATOM     32  C   UNL     1       7.430   7.220   2.264  0.00  0.00    -0.078 C 
BRANCH  32  33
ATOM     33  C   UNL     1       7.452   7.573   3.752  0.00  0.00    +0.011 C 
BRANCH  33  34
ATOM     34  C   UNL     1       8.711   8.338   4.068  0.00  0.00    -0.075 C 
ATOM     35  C   UNL     1       8.652   9.631   4.067  0.00  0.00    -0.028 C 
ATOM     36  C   UNL     1       9.822  10.527   4.353  0.00  0.00    +0.027 C 
ATOM     37  C   UNL     1      10.935   9.736   5.043  0.00  0.00    +0.004 C 
ATOM     38  C   UNL     1      11.188   8.453   4.241  0.00  0.00    +0.005 C 
ATOM     39  C   UNL     1       9.954   7.553   4.371  0.00  0.00    +0.030 C 
ENDBRANCH  33  34
ENDBRANCH  32  33
ENDBRANCH  29  32
ENDBRANCH  28  29
ENDBRANCH   2  28
TORSDOF 10
