REMARK  Name = ZINC34715794
REMARK  11 active torsions:
REMARK  status: ('A' for Active; 'I' for Inactive)
REMARK    1  A    between atoms: C_1  and  C_2
REMARK    2  A    between atoms: C_4  and  C_9
REMARK    3  A    between atoms: C_12  and  C_23
REMARK    4  A    between atoms: N_19  and  C_20
REMARK    5  A    between atoms: C_20  and  C_21
REMARK    6  A    between atoms: C_20  and  C_22
REMARK    7  A    between atoms: N_25  and  C_26
REMARK    8  A    between atoms: C_26  and  C_27
REMARK    9  A    between atoms: C_27  and  N_28
REMARK   10  A    between atoms: N_28  and  C_29
REMARK   11  A    between atoms: N_28  and  C_30
REMARK                            x       y       z     vdW  Elec       q    Type
REMARK                         _______ _______ _______ _____ _____    ______ ____
ROOT
ATOM      1  C   UNL     1       0.027  -2.814  -2.519  0.00  0.00    +0.037 C 
ATOM      2  C   UNL     1      -1.210  -3.711  -2.600  0.00  0.00    +0.024 C 
ATOM      3  C   UNL     1      -1.224  -4.444  -3.943  0.00  0.00    +0.093 C 
ATOM      4  C   UNL     1       0.022  -5.329  -4.050  0.00  0.00    +0.122 C 
ATOM      5  N   UNL     1       1.213  -4.497  -3.829  0.00  0.00    -0.284 N 
ATOM      6  C   UNL     1       1.288  -3.679  -2.610  0.00  0.00    +0.117 C 
ATOM      7  C   UNL     1       2.218  -4.484  -4.727  0.00  0.00    +0.302 C 
ATOM      8  O   UNL     1       2.187  -5.232  -5.684  0.00  0.00    -0.253 OA
ATOM      9  N   UNL     1       3.257  -3.641  -4.563  0.00  0.00    -0.297 N 
ATOM     10  H   UNL     1       3.319  -3.097  -3.762  0.00  0.00    +0.150 HD
ENDROOT
BRANCH   1  14
ATOM     11  C   UNL     1      -0.019   1.507   0.005  0.00  0.00    +0.047 C 
ATOM     12  C   UNL     1       0.001   0.000  -0.003  0.00  0.00    -0.015 A 
ATOM     13  C   UNL     1       0.005  -0.685  -1.203  0.00  0.00    +0.010 A 
ATOM     14  C   UNL     1       0.023  -2.067  -1.210  0.00  0.00    -0.042 A 
ATOM     15  C   UNL     1       0.036  -2.766  -0.017  0.00  0.00    +0.007 A 
ATOM     16  C   UNL     1       0.033  -2.083   1.184  0.00  0.00    +0.039 A 
ATOM     17  C   UNL     1       0.020  -0.698   1.193  0.00  0.00    +0.126 A 
ATOM     18  F   UNL     1       0.021  -0.029   2.366  0.00  0.00    -0.205 F 
ENDBRANCH   1  14
BRANCH   3  19
ATOM     19  C   UNL     1      -2.460  -5.302  -4.035  0.00  0.00    +0.218 C 
ATOM     20  O   UNL     1      -3.252  -5.325  -3.117  0.00  0.00    -0.275 OA
ATOM     21  N   UNL     1      -2.684  -6.044  -5.138  0.00  0.00    -0.317 N 
ATOM     22  H   UNL     1      -2.051  -6.026  -5.872  0.00  0.00    +0.149 HD
BRANCH  21  23
ATOM     23  C   UNL     1      -3.886  -6.878  -5.227  0.00  0.00    +0.085 C 
BRANCH  23  24
ATOM     24  C   UNL     1      -3.899  -7.611  -6.570  0.00  0.00    -0.061 C 
BRANCH  24  25
ATOM     25  N   UNL     1      -5.103  -8.447  -6.660  0.00  0.00    +0.377 N 
ATOM     26  C   UNL     1      -5.178  -9.057  -7.994  0.00  0.00    -0.097 C 
ATOM     27  C   UNL     1      -5.043  -9.503  -5.641  0.00  0.00    -0.097 C 
ATOM     28  H   UNL     1      -5.921  -7.876  -6.505  0.00  0.00    -0.083 HD
ENDBRANCH  24  25
ENDBRANCH  23  24
ENDBRANCH  21  23
ENDBRANCH   3  19
BRANCH   9  29
ATOM     29  C   UNL     1       4.293  -3.547  -5.594  0.00  0.00    +0.068 C 
ATOM     30  C   UNL     1       3.850  -2.557  -6.674  0.00  0.00    +0.027 C 
ATOM     31  C   UNL     1       5.599  -3.062  -4.962  0.00  0.00    +0.027 C 
ENDBRANCH   9  29
TORSDOF 6
