REMARK  Name = ZINC39143317
REMARK  10 active torsions:
REMARK  status: ('A' for Active; 'I' for Inactive)
REMARK    1  A    between atoms: C_1  and  C_2
REMARK    2  A    between atoms: C_2  and  C_3
REMARK    3  A    between atoms: C_8  and  N_9
REMARK    4  A    between atoms: C_10  and  C_12
REMARK    5  A    between atoms: C_12  and  S_13
REMARK    6  A    between atoms: S_13  and  C_14
REMARK    7  A    between atoms: C_14  and  C_15
REMARK    8  A    between atoms: C_17  and  C_29
REMARK    9  A    between atoms: C_19  and  C_27
REMARK   10  A    between atoms: C_20  and  N_26
REMARK                            x       y       z     vdW  Elec       q    Type
REMARK                         _______ _______ _______ _____ _____    ______ ____
ROOT
ATOM      1  C   UNL     1       8.970  -0.499   2.372  0.00  0.00    +0.079 C 
ATOM      2  C   UNL     1       9.895   0.427   2.296  0.00  0.00    +0.031 C 
ATOM      3  C   UNL     1       9.873   1.926   2.416  0.00  0.00    +0.098 C 
ATOM      4  C   UNL     1      11.088   2.285   3.251  0.00  0.00    +0.097 C 
ATOM      5  C   UNL     1      12.024   1.368   3.574  0.00  0.00    +0.195 C 
ATOM      6  O   UNL     1      12.015   0.063   3.249  0.00  0.00    -0.448 OA
ATOM      7  C   UNL     1      11.211  -0.336   2.135  0.00  0.00    +0.343 C 
ATOM      8  N   UNL     1      10.769  -1.730   2.241  0.00  0.00    -0.138 NA
ATOM      9  N   UNL     1       9.536  -1.733   2.350  0.00  0.00    -0.154 NA
ENDROOT
BRANCH   3  10
ATOM     10  C   UNL     1       8.611   2.376   3.106  0.00  0.00    -0.035 A 
ATOM     11  C   UNL     1       8.338   1.950   4.392  0.00  0.00    +0.006 A 
ATOM     12  C   UNL     1       7.181   2.361   5.026  0.00  0.00    +0.020 A 
ATOM     13  C   UNL     1       6.296   3.200   4.372  0.00  0.00    +0.041 A 
ATOM     14  C   UNL     1       6.570   3.626   3.085  0.00  0.00    +0.020 A 
ATOM     15  C   UNL     1       7.730   3.218   2.454  0.00  0.00    +0.006 A 
ATOM     16 CL   UNL     1       4.842   3.717   5.168  0.00  0.00    -0.084 Cl
ENDBRANCH   3  10
BRANCH   5  17
ATOM     17  N   UNL     1      13.094   1.812   4.308  0.00  0.00    -0.329 N 
ATOM     18  H   UNL     1      13.150   2.745   4.568  0.00  0.00    +0.145 HD
ATOM     19  H   UNL     1      13.796   1.194   4.566  0.00  0.00    +0.145 HD
ENDBRANCH   5  17
BRANCH   4  20
ATOM     20  C   UNL     1      11.246   3.633   3.709  0.00  0.00    +0.101 C 
ATOM     21  N   UNL     1      11.371   4.702   4.072  0.00  0.00    -0.191 NA
ENDBRANCH   4  20
BRANCH   1  22
ATOM     22  C   UNL     1       7.491  -0.232   2.476  0.00  0.00    +0.127 C 
BRANCH  22  23
ATOM     23  S   UNL     1       6.699  -0.586   0.882  0.00  0.00    -0.145 S 
BRANCH  23  24
ATOM     24  C   UNL     1       4.947  -0.219   1.171  0.00  0.00    +0.165 C 
BRANCH  24  26
ATOM     25  N   UNL     1       2.833  -0.268  -0.113  0.00  0.00    -0.285 N 
ATOM     26  C   UNL     1       4.165  -0.474  -0.091  0.00  0.00    +0.227 C 
ATOM     27  O   UNL     1       4.734  -0.865  -1.088  0.00  0.00    -0.275 OA
ATOM     28  H   UNL     1       2.388   0.106   0.663  0.00  0.00    +0.155 HD
BRANCH  25  34
ATOM     29  C   UNL     1       0.800  -1.084  -1.129  0.00  0.00    -0.026 A 
ATOM     30  C   UNL     1       0.070  -1.399  -2.258  0.00  0.00    +0.005 A 
ATOM     31  C   UNL     1       0.627  -1.234  -3.513  0.00  0.00    +0.000 A 
ATOM     32  C   UNL     1       1.917  -0.751  -3.641  0.00  0.00    +0.002 A 
ATOM     33  C   UNL     1       2.652  -0.433  -2.516  0.00  0.00    +0.023 A 
ATOM     34  C   UNL     1       2.093  -0.594  -1.255  0.00  0.00    +0.037 A 
BRANCH  29  36
ATOM     35  C   UNL     1      -0.422   0.058   0.702  0.00  0.00    +0.009 C 
ATOM     36  C   UNL     1       0.191  -1.265   0.238  0.00  0.00    +0.033 C 
ENDBRANCH  29  36
ENDBRANCH  25  34
ENDBRANCH  24  26
ENDBRANCH  23  24
ENDBRANCH  22  23
ENDBRANCH   1  22
TORSDOF 9
