REMARK  Name = ZINC25589305
REMARK  10 active torsions:
REMARK  status: ('A' for Active; 'I' for Inactive)
REMARK    1  A    between atoms: C_1  and  C_2
REMARK    2  A    between atoms: C_2  and  C_3
REMARK    3  A    between atoms: C_4  and  C_26
REMARK    4  A    between atoms: C_5  and  N_25
REMARK    5  A    between atoms: C_7  and  S_9
REMARK    6  A    between atoms: S_9  and  C_10
REMARK    7  A    between atoms: C_10  and  C_12
REMARK    8  A    between atoms: C_10  and  C_13
REMARK    9  A    between atoms: N_15  and  C_16
REMARK   10  A    between atoms: N_15  and  C_17
REMARK                            x       y       z     vdW  Elec       q    Type
REMARK                         _______ _______ _______ _____ _____    ______ ____
ROOT
ATOM      1  C   UNL     1       5.264  -8.107   1.452  0.00  0.00    +0.055 A 
ATOM      2  C   UNL     1       4.508  -8.215   2.617  0.00  0.00    +0.043 A 
ATOM      3  C   UNL     1       3.551  -7.219   2.886  0.00  0.00    +0.129 A 
ATOM      4  N   UNL     1       3.406  -6.219   2.024  0.00  0.00    -0.207 NA
ATOM      5  C   UNL     1       4.149  -6.157   0.927  0.00  0.00    +0.191 A 
ATOM      6  N   UNL     1       5.055  -7.082   0.641  0.00  0.00    -0.226 NA
ENDROOT
BRANCH   2   7
ATOM      7  C   UNL     1       4.707  -9.351   3.550  0.00  0.00    -0.013 A 
ATOM      8  C   UNL     1       5.918  -9.500   4.222  0.00  0.00    +0.010 A 
ATOM      9  C   UNL     1       6.096 -10.555   5.093  0.00  0.00    +0.020 A 
ATOM     10  C   UNL     1       5.078 -11.472   5.291  0.00  0.00    +0.041 A 
ATOM     11  C   UNL     1       3.874 -11.331   4.621  0.00  0.00    +0.020 A 
ATOM     12  C   UNL     1       3.684 -10.276   3.752  0.00  0.00    +0.010 A 
ATOM     13 CL   UNL     1       5.310 -12.802   6.382  0.00  0.00    -0.084 Cl
ENDBRANCH   2   7
BRANCH   3  14
ATOM     14  N   UNL     1       2.775  -7.279   4.029  0.00  0.00    -0.343 N 
ATOM     15  H   UNL     1       2.030  -6.495   4.230  0.00  0.00    +0.144 HD
ATOM     16  H   UNL     1       2.902  -8.111   4.737  0.00  0.00    +0.144 HD
ENDBRANCH   3  14
BRANCH   1  18
ATOM     17  C   UNL     1       5.659 -10.259   0.286  0.00  0.00    +0.010 C 
ATOM     18  C   UNL     1       6.302  -9.146   1.115  0.00  0.00    +0.053 C 
ENDBRANCH   1  18
BRANCH   5  19
ATOM     19  S   UNL     1       3.919  -4.811  -0.186  0.00  0.00    -0.074 S 
BRANCH  19  20
ATOM     20  C   UNL     1       2.607  -3.910   0.676  0.00  0.00    +0.137 C 
ATOM     21  C   UNL     1       1.340  -4.766   0.713  0.00  0.00    +0.029 C 
BRANCH  20  22
ATOM     22  C   UNL     1       2.322  -2.621  -0.050  0.00  0.00    +0.229 C 
ATOM     23  O   UNL     1       2.570  -2.524  -1.234  0.00  0.00    -0.274 OA
ATOM     24  N   UNL     1       1.791  -1.576   0.615  0.00  0.00    -0.299 N 
ATOM     25  C   UNL     1       1.491  -1.694   2.044  0.00  0.00    +0.132 C 
BRANCH  24  26
ATOM     26  C   UNL     1       1.514  -0.323  -0.091  0.00  0.00    +0.098 C 
ATOM     27  C   UNL     1       2.330   0.814   0.546  0.00  0.00    +0.046 C 
ATOM     28  C   UNL     1       1.790   2.165  -0.003  0.00  0.00    +0.168 C 
ATOM     29  S   UNL     1      -0.023   1.835   0.012  0.00  0.00    -0.029 S 
ATOM     30  O   UNL     1      -0.587   2.296  -1.208  0.00  0.00    -0.174 OA
ATOM     31  O   UNL     1      -0.564   2.283   1.247  0.00  0.00    -0.174 OA
ATOM     32  C   UNL     1       0.002  -0.004   0.002  0.00  0.00    +0.188 C 
ENDBRANCH  24  26
ENDBRANCH  20  22
ENDBRANCH  19  20
ENDBRANCH   5  19
TORSDOF 7
