REMARK  Name = ZINC28884285
REMARK  5 active torsions:
REMARK  status: ('A' for Active; 'I' for Inactive)
REMARK    1  A    between atoms: C_3  and  C_25
REMARK    2  A    between atoms: C_7  and  C_11
REMARK    3  A    between atoms: C_7  and  C_18
REMARK    4  A    between atoms: C_14  and  O_17
REMARK    5  A    between atoms: C_21  and  O_24
REMARK                            x       y       z     vdW  Elec       q    Type
REMARK                         _______ _______ _______ _____ _____    ______ ____
ROOT
ATOM      1  C   UNL     1       0.718   1.662   0.646  0.00  0.00    +0.001 A 
ATOM      2  C   UNL     1      -0.548   1.115   0.701  0.00  0.00    +0.010 A 
ATOM      3  C   UNL     1      -1.669   1.923   0.538  0.00  0.00    +0.004 A 
ATOM      4  C   UNL     1      -1.511   3.303   0.327  0.00  0.00    +0.046 A 
ATOM      5  C   UNL     1      -0.228   3.830   0.276  0.00  0.00    -0.002 A 
ATOM      6  C   UNL     1       0.875   3.021   0.433  0.00  0.00    +0.007 A 
ATOM      7  C   UNL     1      -0.388   5.314   0.035  0.00  0.00    +0.124 C 
ATOM      8  C   UNL     1      -1.887   5.515  -0.035  0.00  0.00    +0.237 C 
ATOM      9  O   UNL     1      -2.466   6.565  -0.216  0.00  0.00    -0.274 OA
ATOM     10  N   UNL     1      -2.455   4.310   0.143  0.00  0.00    -0.283 N 
ATOM     11  H   UNL     1      -3.528   4.067   0.155  0.00  0.00    +0.155 HD
ENDROOT
BRANCH   7  12
ATOM     12  C   UNL     1       0.197   6.101   1.179  0.00  0.00    -0.024 A 
ATOM     13  C   UNL     1      -0.628   6.860   1.989  0.00  0.00    +0.009 A 
ATOM     14  C   UNL     1      -0.094   7.577   3.042  0.00  0.00    +0.046 A 
ATOM     15  C   UNL     1       1.272   7.545   3.280  0.00  0.00    +0.117 A 
ATOM     16  C   UNL     1       2.099   6.787   2.463  0.00  0.00    +0.046 A 
ATOM     17  C   UNL     1       1.559   6.066   1.415  0.00  0.00    +0.009 A 
BRANCH  15  18
ATOM     18  O   UNL     1       1.801   8.255   4.311  0.00  0.00    -0.507 OA
ATOM     19  H   UNL     1       2.884   8.229   4.499  0.00  0.00    +0.292 HD
ENDBRANCH  15  18
ENDBRANCH   7  12
BRANCH   7  20
ATOM     20  C   UNL     1       0.259   5.711  -1.267  0.00  0.00    -0.024 A 
ATOM     21  C   UNL     1       0.773   4.740  -2.106  0.00  0.00    +0.009 A 
ATOM     22  C   UNL     1       1.362   5.101  -3.302  0.00  0.00    +0.046 A 
ATOM     23  C   UNL     1       1.448   6.440  -3.656  0.00  0.00    +0.117 A 
ATOM     24  C   UNL     1       0.936   7.412  -2.809  0.00  0.00    +0.046 A 
ATOM     25  C   UNL     1       0.343   7.046  -1.617  0.00  0.00    +0.009 A 
BRANCH  23  26
ATOM     26  O   UNL     1       2.032   6.798  -4.829  0.00  0.00    -0.507 OA
ATOM     27  H   UNL     1       2.100   7.860  -5.109  0.00  0.00    +0.292 HD
ENDBRANCH  23  26
ENDBRANCH   7  20
BRANCH   3  28
ATOM     28  C   UNL     1      -3.027   1.331   0.592  0.00  0.00    -0.013 A 
ATOM     29  C   UNL     1      -4.019   1.882   1.408  0.00  0.00    +0.028 A 
ATOM     30  C   UNL     1      -5.271   1.302   1.424  0.00  0.00    +0.111 A 
ATOM     31  N   UNL     1      -5.533   0.237   0.691  0.00  0.00    -0.263 NA
ATOM     32  C   UNL     1      -4.624  -0.317  -0.088  0.00  0.00    +0.111 A 
ATOM     33  C   UNL     1      -3.349   0.202  -0.168  0.00  0.00    +0.028 A 
ENDBRANCH   3  28
TORSDOF 5
