REMARK  Name = ZINC36533572
REMARK  15 active torsions:
REMARK  status: ('A' for Active; 'I' for Inactive)
REMARK    1  A    between atoms: C_2  and  C_3
REMARK    2  A    between atoms: C_3  and  O_4
REMARK    3  A    between atoms: O_4  and  C_5
REMARK    4  A    between atoms: N_7  and  C_8
REMARK    5  A    between atoms: C_10  and  O_39
REMARK    6  A    between atoms: C_12  and  O_22
REMARK    7  A    between atoms: C_14  and  C_20
REMARK    8  A    between atoms: C_17  and  O_19
REMARK    9  A    between atoms: C_20  and  O_21
REMARK   10  A    between atoms: O_22  and  C_23
REMARK   11  A    between atoms: C_25  and  O_38
REMARK   12  A    between atoms: C_27  and  O_37
REMARK   13  A    between atoms: C_29  and  O_36
REMARK   14  A    between atoms: C_31  and  C_34
REMARK   15  A    between atoms: C_34  and  O_35
REMARK                            x       y       z     vdW  Elec       q    Type
REMARK                         _______ _______ _______ _____ _____    ______ ____
ROOT
ATOM      1  C   UNL     1      -2.917  -4.482  -2.772  0.00  0.00    +0.163 C 
ATOM      2  C   UNL     1      -3.302  -5.373  -3.957  0.00  0.00    +0.171 C 
ATOM      3  C   UNL     1      -4.606  -6.108  -3.628  0.00  0.00    +0.183 C 
ATOM      4  C   UNL     1      -4.418  -6.908  -2.336  0.00  0.00    +0.178 C 
ATOM      5  O   UNL     1      -4.031  -6.024  -1.282  0.00  0.00    -0.341 OA
ATOM      6  C   UNL     1      -2.796  -5.344  -1.513  0.00  0.00    +0.271 C 
ENDROOT
BRANCH   1   9
ATOM      7  C   UNL     1      -1.325  -2.668  -2.440  0.00  0.00    +0.401 C 
ATOM      8  O   UNL     1      -2.112  -2.159  -1.667  0.00  0.00    -0.226 OA
ATOM      9  N   UNL     1      -1.633  -3.832  -3.046  0.00  0.00    -0.271 N 
ATOM     10  H   UNL     1      -1.005  -4.239  -3.663  0.00  0.00    +0.153 HD
BRANCH   7  11
ATOM     11  O   UNL     1      -0.145  -2.070  -2.692  0.00  0.00    -0.446 OA
BRANCH  11  12
ATOM     12  C   UNL     1       0.116  -0.839  -2.014  0.00  0.00    +0.261 C 
BRANCH  12  14
ATOM     13  C   UNL     1       1.628   0.943  -2.720  0.00  0.00    +0.007 C 
ATOM     14  C   UNL     1       1.472  -0.322  -2.417  0.00  0.00    +0.006 C 
ENDBRANCH  12  14
ENDBRANCH  11  12
ENDBRANCH   7  11
ENDBRANCH   1   9
BRANCH   6  15
ATOM     15  O   UNL     1      -2.492  -4.510  -0.393  0.00  0.00    -0.365 OA
ATOM     16  H   UNL     1      -2.401  -4.990   0.442  0.00  0.00    +0.213 HD
ENDBRANCH   6  15
BRANCH   2  17
ATOM     17  O   UNL     1      -2.263  -6.325  -4.198  0.00  0.00    -0.387 OA
ATOM     18  H   UNL     1      -1.407  -5.927  -4.407  0.00  0.00    +0.210 HD
ENDBRANCH   2  17
BRANCH   4  19
ATOM     19  C   UNL     1      -5.734  -7.596  -1.967  0.00  0.00    +0.190 C 
BRANCH  19  20
ATOM     20  O   UNL     1      -5.534  -8.421  -0.817  0.00  0.00    -0.392 OA
ATOM     21  H   UNL     1      -6.329  -8.890  -0.526  0.00  0.00    +0.210 HD
ENDBRANCH  19  20
ENDBRANCH   4  19
BRANCH   3  22
ATOM     22  O   UNL     1      -4.937  -6.996  -4.697  0.00  0.00    -0.340 OA
BRANCH  22  23
ATOM     23  C   UNL     1      -5.816  -6.430  -5.671  0.00  0.00    +0.282 C 
ATOM     24  C   UNL     1      -5.912  -7.367  -6.878  0.00  0.00    +0.201 C 
ATOM     25  C   UNL     1      -6.901  -6.783  -7.891  0.00  0.00    +0.179 C 
ATOM     26  C   UNL     1      -8.255  -6.577  -7.206  0.00  0.00    +0.177 C 
ATOM     27  C   UNL     1      -8.068  -5.670  -5.986  0.00  0.00    +0.178 C 
ATOM     28  O   UNL     1      -7.114  -6.256  -5.100  0.00  0.00    -0.341 OA
BRANCH  26  29
ATOM     29  O   UNL     1      -9.166  -5.966  -8.122  0.00  0.00    -0.386 OA
ATOM     30  H   UNL     1      -9.328  -6.486  -8.921  0.00  0.00    +0.210 HD
ENDBRANCH  26  29
BRANCH  25  31
ATOM     31  O   UNL     1      -7.051  -7.686  -8.988  0.00  0.00    -0.386 OA
ATOM     32  H   UNL     1      -6.229  -7.867  -9.464  0.00  0.00    +0.210 HD
ENDBRANCH  25  31
BRANCH  24  33
ATOM     33  O   UNL     1      -6.368  -8.652  -6.449  0.00  0.00    -0.384 OA
ATOM     34  H   UNL     1      -5.790  -9.079  -5.802  0.00  0.00    +0.210 HD
ENDBRANCH  24  33
BRANCH  27  35
ATOM     35  C   UNL     1      -9.406  -5.508  -5.262  0.00  0.00    +0.190 C 
BRANCH  35  36
ATOM     36  O   UNL     1      -9.258  -4.570  -4.193  0.00  0.00    -0.392 OA
ATOM     37  H   UNL     1     -10.069  -4.418  -3.689  0.00  0.00    +0.210 HD
ENDBRANCH  35  36
ENDBRANCH  27  35
ENDBRANCH  22  23
ENDBRANCH   3  22
TORSDOF 15
