REMARK  Name = ZINC00390453
REMARK  6 active torsions:
REMARK  status: ('A' for Active; 'I' for Inactive)
REMARK    1  A    between atoms: C_1  and  C_2
REMARK    2  A    between atoms: C_3  and  C_21
REMARK    3  A    between atoms: C_4  and  C_10
REMARK    4  A    between atoms: C_13  and  C_15
REMARK    5  A    between atoms: C_21  and  O_23
REMARK    6  A    between atoms: O_23  and  C_24
REMARK                            x       y       z     vdW  Elec       q    Type
REMARK                         _______ _______ _______ _____ _____    ______ ____
ROOT
ATOM      1  C   UNL     1      -2.667  -6.037   2.996  0.00  0.00    +0.061 C 
ATOM      2  C   UNL     1      -2.138  -5.745   1.616  0.00  0.00    +0.021 C 
ATOM      3  C   UNL     1      -0.821  -5.496   1.448  0.00  0.00    +0.081 C 
ATOM      4  C   UNL     1      -0.332  -5.207   0.043  0.00  0.00    +0.179 C 
ATOM      5  N   UNL     1      -1.339  -5.222  -1.031  0.00  0.00    -0.285 N 
ATOM      6  C   UNL     1      -2.620  -5.487  -0.705  0.00  0.00    +0.304 C 
ATOM      7  O   UNL     1      -3.459  -5.502  -1.585  0.00  0.00    -0.252 OA
ATOM      8  N   UNL     1      -2.998  -5.736   0.555  0.00  0.00    -0.273 N 
ATOM      9  H   UNL     1      -1.087  -5.045  -1.950  0.00  0.00    +0.151 HD
ATOM     10  H   UNL     1      -3.935  -5.921   0.724  0.00  0.00    +0.156 HD
ENDROOT
BRANCH   4  11
ATOM     11  C   UNL     1       0.321  -3.849   0.049  0.00  0.00    +0.131 A 
ATOM     12  C   UNL     1       1.647  -3.615   0.103  0.00  0.00    +0.047 A 
ATOM     13  C   UNL     1       1.820  -2.216   0.082  0.00  0.00    +0.050 A 
ATOM     14  C   UNL     1       0.577  -1.669   0.024  0.00  0.00    +0.135 A 
ATOM     15  O   UNL     1      -0.322  -2.671   0.001  0.00  0.00    -0.457 OA
BRANCH  14  16
ATOM     16  C   UNL     1       0.267  -0.224  -0.013  0.00  0.00    +0.017 A 
ATOM     17  C   UNL     1      -1.059   0.207  -0.078  0.00  0.00    +0.011 A 
ATOM     18  C   UNL     1      -1.342   1.557  -0.112  0.00  0.00    +0.001 A 
ATOM     19  C   UNL     1      -0.314   2.483  -0.083  0.00  0.00    +0.000 A 
ATOM     20  C   UNL     1       1.003   2.062  -0.019  0.00  0.00    +0.001 A 
ATOM     21  C   UNL     1       1.299   0.716   0.016  0.00  0.00    +0.011 A 
ENDBRANCH  14  16
ENDBRANCH   4  11
BRANCH   3  22
ATOM     22  C   UNL     1       0.070  -5.503   2.546  0.00  0.00    +0.339 C 
ATOM     23  O   UNL     1      -0.361  -5.612   3.679  0.00  0.00    -0.245 OA
BRANCH  22  24
ATOM     24  O   UNL     1       1.398  -5.390   2.338  0.00  0.00    -0.465 OA
ATOM     25  C   UNL     1       2.240  -5.405   3.493  0.00  0.00    +0.280 C 
ENDBRANCH  22  24
ENDBRANCH   3  22
TORSDOF 4
