REMARK  Name = ZINC01871121
REMARK  6 active torsions:
REMARK  status: ('A' for Active; 'I' for Inactive)
REMARK    1  A    between atoms: C_1  and  C_2
REMARK    2  A    between atoms: C_8  and  C_9
REMARK    3  A    between atoms: C_8  and  N_52
REMARK    4  A    between atoms: C_10  and  O_31
REMARK    5  A    between atoms: C_16  and  C_27
REMARK    6  A    between atoms: C_17  and  C_20
REMARK                            x       y       z     vdW  Elec       q    Type
REMARK                         _______ _______ _______ _____ _____    ______ ____
ROOT
ATOM      1  C   UNL     1      -4.252   4.946   0.548  0.00  0.00    +0.020 A 
ATOM      2  C   UNL     1      -5.185   4.850   1.567  0.00  0.00    +0.122 A 
ATOM      3  C   UNL     1      -5.274   3.695   2.341  0.00  0.00    +0.046 A 
ATOM      4  C   UNL     1      -4.439   2.640   2.103  0.00  0.00    +0.019 A 
ATOM      5  C   UNL     1      -3.494   2.722   1.080  0.00  0.00    +0.065 A 
ATOM      6  C   UNL     1      -3.396   3.883   0.293  0.00  0.00    +0.144 A 
ATOM      7  O   UNL     1      -2.482   3.960  -0.695  0.00  0.00    -0.450 OA
ATOM      8  C   UNL     1      -1.629   2.974  -0.983  0.00  0.00    +0.219 A 
ATOM      9  C   UNL     1      -1.618   1.796  -0.307  0.00  0.00    +0.076 A 
ATOM     10  C   UNL     1      -2.576   1.604   0.795  0.00  0.00    +0.201 A 
ATOM     11  O   UNL     1      -2.610   0.570   1.439  0.00  0.00    -0.286 OA
ENDROOT
BRANCH   9  12
ATOM     12  C   UNL     1      -0.655   0.727  -0.667  0.00  0.00    -0.011 A 
ATOM     13  C   UNL     1      -0.807   0.023  -1.861  0.00  0.00    +0.010 A 
ATOM     14  C   UNL     1       0.088  -0.974  -2.189  0.00  0.00    +0.020 A 
ATOM     15  C   UNL     1       1.135  -1.277  -1.334  0.00  0.00    +0.041 A 
ATOM     16  C   UNL     1       1.290  -0.581  -0.148  0.00  0.00    +0.020 A 
ATOM     17  C   UNL     1       0.400   0.419   0.189  0.00  0.00    +0.010 A 
ATOM     18 CL   UNL     1       2.257  -2.534  -1.752  0.00  0.00    -0.084 Cl
ENDBRANCH   9  12
BRANCH   8  19
ATOM     19  C   UNL     1      -0.645   3.174  -2.107  0.00  0.00    +0.451 C 
ATOM     20  F   UNL     1      -0.972   2.324  -3.169  0.00  0.00    -0.163 F 
ATOM     21  F   UNL     1      -0.695   4.503  -2.540  0.00  0.00    -0.163 F 
ATOM     22  F   UNL     1       0.645   2.879  -1.654  0.00  0.00    -0.163 F 
ENDBRANCH   8  19
BRANCH   2  23
ATOM     23  O   UNL     1      -6.021   5.890   1.814  0.00  0.00    -0.506 OA
ATOM     24  H   UNL     1      -6.850   5.855   1.316  0.00  0.00    +0.292 HD
ENDBRANCH   2  23
BRANCH   1  25
ATOM     25  C   UNL     1      -4.167   6.201  -0.282  0.00  0.00    -0.036 C 
BRANCH  25  32
ATOM     26  C   UNL     1      -6.149   8.514  -4.143  0.00  0.00    +0.005 C 
ATOM     27  C   UNL     1      -6.000   7.172  -3.425  0.00  0.00    -0.031 C 
ATOM     28  C   UNL     1      -7.385   6.628  -3.065  0.00  0.00    -0.001 C 
ATOM     29  C   UNL     1      -7.224   5.315  -2.293  0.00  0.00    -0.018 C 
ATOM     30  C   UNL     1      -6.373   5.562  -1.046  0.00  0.00    -0.078 C 
ATOM     31  C   UNL     1      -5.185   7.366  -2.144  0.00  0.00    -0.075 C 
ATOM     32  N   UNL     1      -5.045   6.062  -1.462  0.00  0.00    +0.383 N 
ATOM     33  H   UNL     1      -4.625   5.389  -2.113  0.00  0.00    -0.081 HD
ENDBRANCH  25  32
ENDBRANCH   1  25
TORSDOF 5
