REMARK  Name = ZINC31890127
REMARK  2 active torsions:
REMARK  status: ('A' for Active; 'I' for Inactive)
REMARK    1  A    between atoms: C_13  and  C_15
REMARK    2  A    between atoms: C_18  and  N_21
REMARK                            x       y       z     vdW  Elec       q    Type
REMARK                         _______ _______ _______ _____ _____    ______ ____
ROOT
ATOM      1  C   UNL     1      -0.792  -1.718  -5.748  0.00  0.00    +0.001 A 
ATOM      2  C   UNL     1      -1.656  -2.632  -5.167  0.00  0.00    +0.002 A 
ATOM      3  C   UNL     1      -1.867  -2.685  -3.800  0.00  0.00    +0.026 A 
ATOM      4  C   UNL     1      -1.164  -1.770  -3.017  0.00  0.00    +0.049 A 
ATOM      5  C   UNL     1      -0.282  -0.837  -3.618  0.00  0.00    +0.000 A 
ATOM      6  C   UNL     1      -0.088  -0.805  -5.002  0.00  0.00    +0.010 A 
ATOM      7  C   UNL     1       0.274  -0.045  -2.533  0.00  0.00    +0.033 A 
ATOM      8  C   UNL     1      -0.267  -0.510  -1.396  0.00  0.00    +0.041 A 
ATOM      9  N   UNL     1      -1.133  -1.549  -1.673  0.00  0.00    -0.341 N 
ATOM     10  C   UNL     1      -1.876  -2.268  -0.628  0.00  0.00    +0.137 C 
ATOM     11  C   UNL     1      -1.219  -1.971   0.724  0.00  0.00    +0.103 C 
ATOM     12  N   UNL     1      -1.054  -0.520   0.889  0.00  0.00    -0.303 NA
ATOM     13  C   UNL     1       0.002  -0.004   0.002  0.00  0.00    +0.131 C 
ATOM     14  H   UNL     1      -1.999  -0.014   0.643  0.00  0.00    +0.123 HD
ENDROOT
BRANCH  13  15
ATOM     15  C   UNL     1      -0.018   1.503   0.010  0.00  0.00    -0.025 A 
ATOM     16  C   UNL     1      -1.225   2.178   0.020  0.00  0.00    +0.008 A 
ATOM     17  C   UNL     1      -1.244   3.560   0.032  0.00  0.00    +0.033 A 
ATOM     18  C   UNL     1      -0.056   4.267   0.025  0.00  0.00    +0.126 A 
ATOM     19  C   UNL     1       1.151   3.592   0.010  0.00  0.00    +0.033 A 
ATOM     20  C   UNL     1       1.169   2.210   0.003  0.00  0.00    +0.008 A 
BRANCH  18  21
ATOM     21  N   UNL     1      -0.076   5.747   0.032  0.00  0.00    +0.056 N 
ATOM     22  O   UNL     1       0.971   6.370   0.025  0.00  0.00    -0.126 OA
ATOM     23  O   UNL     1      -1.139   6.342   0.045  0.00  0.00    -0.126 OA
ENDBRANCH  18  21
ENDBRANCH  13  15
TORSDOF 2
