REMARK  Name = ZINC04322184
REMARK  8 active torsions:
REMARK  status: ('A' for Active; 'I' for Inactive)
REMARK    1  A    between atoms: C_1  and  O_2
REMARK    2  A    between atoms: O_2  and  P_3
REMARK    3  A    between atoms: P_3  and  C_5
REMARK    4  A    between atoms: P_3  and  O_30
REMARK    5  A    between atoms: C_5  and  O_29
REMARK    6  A    between atoms: C_13  and  C_23
REMARK    7  A    between atoms: C_15  and  C_17
REMARK    8  A    between atoms: O_30  and  C_31
REMARK                            x       y       z     vdW  Elec       q    Type
REMARK                         _______ _______ _______ _____ _____    ______ ____
ROOT
ATOM      1  C   UNL     1       1.355   1.583  -0.144  0.00  0.00    +0.169 C 
ATOM      2  C   UNL     1       1.050   3.080  -0.181  0.00  0.00    +0.023 C 
ATOM      3  C   UNL     1       2.350   3.877  -0.300  0.00  0.00    +0.006 C 
ATOM      4  C   UNL     1       3.283   3.568   0.867  0.00  0.00    +0.001 C 
ATOM      5  C   UNL     1       3.536   2.069   0.989  0.00  0.00    +0.006 C 
ATOM      6  C   UNL     1       2.216   1.302   1.086  0.00  0.00    +0.023 C 
ATOM      7  C   UNL     1       1.488   1.710   2.363  0.00  0.00    -0.034 C 
ATOM      8  C   UNL     1       0.306   3.513   1.079  0.00  0.00    -0.034 C 
ATOM      9  N   UNL     1       0.892   3.069   2.368  0.00  0.00    +0.389 N 
ATOM     10  H   UNL     1       1.628   3.737   2.628  0.00  0.00    -0.084 HD
ATOM     11  H   UNL     1       0.149   3.087   3.076  0.00  0.00    -0.084 HD
ENDROOT
BRANCH   8  12
ATOM     12  C   UNL     1      -1.159   3.172   0.982  0.00  0.00    -0.061 A 
ATOM     13  C   UNL     1      -1.723   2.886  -0.248  0.00  0.00    +0.002 A 
ATOM     14  C   UNL     1      -3.065   2.570  -0.336  0.00  0.00    +0.000 A 
ATOM     15  C   UNL     1      -3.847   2.548   0.804  0.00  0.00    +0.000 A 
ATOM     16  C   UNL     1      -3.284   2.839   2.033  0.00  0.00    +0.000 A 
ATOM     17  C   UNL     1      -1.941   3.152   2.122  0.00  0.00    +0.002 A 
ENDBRANCH   8  12
BRANCH   7  18
ATOM     18  C   UNL     1       0.489   0.658   2.772  0.00  0.00    -0.061 A 
ATOM     19  C   UNL     1      -0.525   0.975   3.657  0.00  0.00    +0.002 A 
ATOM     20  C   UNL     1      -1.443   0.011   4.029  0.00  0.00    +0.000 A 
ATOM     21  C   UNL     1      -1.343  -1.271   3.523  0.00  0.00    +0.000 A 
ATOM     22  C   UNL     1      -0.326  -1.589   2.642  0.00  0.00    +0.000 A 
ATOM     23  C   UNL     1       0.590  -0.625   2.267  0.00  0.00    +0.002 A 
ENDBRANCH   7  18
BRANCH   1  24
ATOM     24  P   UNL     1       2.263   1.103  -1.655  0.00  0.00    +0.364 P 
ATOM     25  O   UNL     1       1.417   1.358  -2.841  0.00  0.00    -0.255 OA
BRANCH  24  27
ATOM     26  C   UNL     1       4.495   1.899  -2.890  0.00  0.00    +0.204 C 
ATOM     27  O   UNL     1       3.617   1.967  -1.765  0.00  0.00    -0.309 OA
ENDBRANCH  24  27
BRANCH  24  28
ATOM     28  O   UNL     1       2.631  -0.463  -1.585  0.00  0.00    -0.309 OA
ATOM     29  C   UNL     1       3.251  -1.166  -2.663  0.00  0.00    +0.204 C 
ENDBRANCH  24  28
ENDBRANCH   1  24
BRANCH   1  30
ATOM     30  O   UNL     1       0.145   0.825  -0.094  0.00  0.00    -0.376 OA
ATOM     31  H   UNL     1       0.281  -0.132  -0.069  0.00  0.00    +0.211 HD
ENDBRANCH   1  30
TORSDOF 6
