REMARK  Name = ZINC66377662
REMARK  1 active torsions:
REMARK  status: ('A' for Active; 'I' for Inactive)
REMARK    1  A    between atoms: C_3  and  C_4
REMARK                            x       y       z     vdW  Elec       q    Type
REMARK                         _______ _______ _______ _____ _____    ______ ____
ROOT
ATOM      1  C   UNL     1      -0.016   1.303   0.009  0.00  0.00    +0.069 C 
ATOM      2  C   UNL     1       0.002  -0.004   0.002  0.00  0.00    -0.119 C 
ATOM      3  C   UNL     1       0.020  -1.311  -0.005  0.00  0.00    +0.110 C 
ENDROOT
BRANCH   3   4
ATOM      4  C   UNL     1       0.018  -2.020  -1.249  0.00  0.00    -0.069 C 
ATOM      5  C   UNL     1       0.016  -2.602  -2.269  0.00  0.00    +0.009 C 
ENDBRANCH   3   4
TORSDOF 1
