REMARK  Name = ZINC39686145
REMARK  6 active torsions:
REMARK  status: ('A' for Active; 'I' for Inactive)
REMARK    1  A    between atoms: C_1  and  C_2
REMARK    2  A    between atoms: C_2  and  C_3
REMARK    3  A    between atoms: C_2  and  C_4
REMARK    4  A    between atoms: C_9  and  N_12
REMARK    5  A    between atoms: C_13  and  C_15
REMARK    6  A    between atoms: C_26  and  C_28
REMARK                            x       y       z     vdW  Elec       q    Type
REMARK                         _______ _______ _______ _____ _____    ______ ____
ROOT
ATOM      1  C   UNL     1       6.663   3.390  -4.184  0.00  0.00    +0.100 C 
ATOM      2  C   UNL     1       7.099   4.412  -3.110  0.00  0.00    +0.121 C 
ATOM      3  N   UNL     1       8.545   4.154  -2.912  0.00  0.00    -0.296 N 
ATOM      4  C   UNL     1       9.060   3.882  -4.275  0.00  0.00    +0.115 C 
ATOM      5  C   UNL     1       7.952   3.047  -4.949  0.00  0.00    -0.004 C 
ATOM      6  C   UNL     1       7.815   3.439  -6.417  0.00  0.00    -0.010 C 
ATOM      7  C   UNL     1       9.087   3.035  -7.169  0.00  0.00    -0.082 C 
ATOM      8  N   UNL     1       9.292   1.587  -7.045  0.00  0.00    +0.379 N 
ATOM      9  C   UNL     1       9.516   1.232  -5.638  0.00  0.00    -0.082 C 
ATOM     10  C   UNL     1       8.262   1.559  -4.822  0.00  0.00    -0.010 C 
ATOM     11  C   UNL     1       9.235   4.165  -1.755  0.00  0.00    +0.252 C 
ATOM     12  O   UNL     1      10.429   3.932  -1.757  0.00  0.00    -0.270 OA
ATOM     13  H   UNL     1       8.476   1.102  -7.387  0.00  0.00    -0.086 HD
ATOM     14  H   UNL     1      10.095   1.314  -7.591  0.00  0.00    -0.086 HD
ENDROOT
BRANCH  11  15
ATOM     15  C   UNL     1       8.543   4.460  -0.485  0.00  0.00    +0.108 A 
ATOM     16  C   UNL     1       7.988   3.422   0.271  0.00  0.00    +0.138 A 
ATOM     17  C   UNL     1       7.342   3.707   1.459  0.00  0.00    +0.041 A 
ATOM     18  C   UNL     1       7.242   5.013   1.901  0.00  0.00    +0.026 A 
ATOM     19  C   UNL     1       7.788   6.046   1.160  0.00  0.00    +0.077 A 
ATOM     20  C   UNL     1       8.444   5.778  -0.029  0.00  0.00    +0.156 A 
ATOM     21  F   UNL     1       8.981   6.787  -0.749  0.00  0.00    -0.203 F 
ATOM     22 CL   UNL     1       7.656   7.682   1.725  0.00  0.00    -0.081 Cl
ATOM     23  F   UNL     1       8.083   2.145  -0.159  0.00  0.00    -0.205 F 
ENDBRANCH  11  15
BRANCH   1  25
ATOM     24  N   UNL     1       5.163   1.424  -4.175  0.00  0.00    -0.312 N 
ATOM     25  C   UNL     1       6.095   2.155  -3.533  0.00  0.00    +0.218 C 
ATOM     26  O   UNL     1       6.477   1.820  -2.432  0.00  0.00    -0.275 OA
ATOM     27  H   UNL     1       4.857   1.692  -5.055  0.00  0.00    +0.149 HD
BRANCH  24  33
ATOM     28  C   UNL     1       3.176  -3.588  -4.080  0.00  0.00    +0.218 C 
ATOM     29  O   UNL     1       3.940  -4.530  -4.102  0.00  0.00    -0.275 OA
ATOM     30  N   UNL     1       3.576  -2.409  -3.564  0.00  0.00    -0.301 N 
ATOM     31  C   UNL     1       2.630  -1.294  -3.424  0.00  0.00    +0.109 C 
ATOM     32  C   UNL     1       3.218  -0.059  -4.112  0.00  0.00    +0.041 C 
ATOM     33  C   UNL     1       4.610   0.223  -3.542  0.00  0.00    +0.076 C 
ATOM     34  C   UNL     1       5.529  -0.969  -3.822  0.00  0.00    +0.041 C 
ATOM     35  C   UNL     1       4.965  -2.216  -3.125  0.00  0.00    +0.109 C 
BRANCH  28  37
ATOM     36  C   UNL     1       1.742  -3.220  -6.069  0.00  0.00    +0.017 C 
ATOM     37  C   UNL     1       1.781  -3.736  -4.629  0.00  0.00    +0.069 C 
ATOM     38  C   UNL     1       1.377  -5.212  -4.606  0.00  0.00    +0.017 C 
ENDBRANCH  28  37
ENDBRANCH  24  33
ENDBRANCH   1  25
TORSDOF 4
