REMARK  Name = ZINC38626279
REMARK  9 active torsions:
REMARK  status: ('A' for Active; 'I' for Inactive)
REMARK    1  A    between atoms: C_1  and  C_2
REMARK    2  A    between atoms: C_2  and  O_3
REMARK    3  A    between atoms: O_3  and  C_4
REMARK    4  A    between atoms: C_4  and  C_6
REMARK    5  A    between atoms: C_8  and  N_16
REMARK    6  A    between atoms: C_17  and  C_19
REMARK    7  A    between atoms: C_19  and  C_21
REMARK    8  A    between atoms: C_19  and  N_22
REMARK    9  A    between atoms: N_25  and  C_28
REMARK                            x       y       z     vdW  Elec       q    Type
REMARK                         _______ _______ _______ _____ _____    ______ ____
ROOT
ATOM      1  N   UNL     1      -0.621  -1.629   4.189  0.00  0.00    -0.288 N 
ATOM      2  C   UNL     1      -0.870  -1.614   5.514  0.00  0.00    +0.203 C 
ATOM      3  O   UNL     1      -0.385  -2.462   6.232  0.00  0.00    -0.277 OA
ATOM      4  H   UNL     1      -0.975  -0.928   3.621  0.00  0.00    +0.155 HD
ENDROOT
BRANCH   1   6
ATOM      5  C   UNL     1       0.826  -3.750   4.389  0.00  0.00    +0.234 C 
ATOM      6  C   UNL     1       0.128  -2.631   3.649  0.00  0.00    +0.053 C 
ATOM      7  C   UNL     1       0.408  -2.834   2.308  0.00  0.00    +0.018 A 
ATOM      8  C   UNL     1       0.041  -2.128   1.138  0.00  0.00    +0.011 A 
ATOM      9  C   UNL     1       0.469  -2.564  -0.072  0.00  0.00    +0.001 A 
ATOM     10  C   UNL     1       1.270  -3.703  -0.200  0.00  0.00    +0.002 A 
ATOM     11  C   UNL     1       1.660  -4.428   0.877  0.00  0.00    +0.026 A 
ATOM     12  C   UNL     1       1.252  -4.034   2.178  0.00  0.00    +0.045 A 
ATOM     13  N   UNL     1       1.492  -4.561   3.364  0.00  0.00    -0.367 N 
ATOM     14  H   UNL     1       2.023  -5.354   3.531  0.00  0.00    +0.161 HD
BRANCH   5  15
ATOM     15  C   UNL     1       1.843  -3.185   5.346  0.00  0.00    +0.336 C 
ATOM     16  O   UNL     1       2.881  -2.732   4.925  0.00  0.00    -0.248 OA
BRANCH  15  17
ATOM     17  O   UNL     1       1.596  -3.185   6.665  0.00  0.00    -0.463 OA
BRANCH  17  19
ATOM     18  C   UNL     1       2.148  -2.721   8.972  0.00  0.00    +0.048 C 
ATOM     19  C   UNL     1       2.605  -2.634   7.514  0.00  0.00    +0.229 C 
ENDBRANCH  17  19
ENDBRANCH  15  17
ENDBRANCH   5  15
ENDBRANCH   1   6
BRANCH   2  20
ATOM     20  C   UNL     1      -1.751  -0.543   6.103  0.00  0.00    +0.017 C 
ATOM     21  C   UNL     1      -0.883   0.614   6.602  0.00  0.00    -0.004 C 
BRANCH  20  22
ATOM     22  N   UNL     1      -2.517  -1.101   7.225  0.00  0.00    +0.389 N 
ATOM     23  C   UNL     1      -3.290  -2.259   6.760  0.00  0.00    -0.059 C 
ATOM     24  C   UNL     1      -3.999  -2.911   7.952  0.00  0.00    +0.086 C 
ATOM     25  N   UNL     1      -4.798  -1.884   8.637  0.00  0.00    -0.331 N 
ATOM     26  C   UNL     1      -4.140  -0.618   8.995  0.00  0.00    +0.086 C 
ATOM     27  C   UNL     1      -3.425  -0.074   7.754  0.00  0.00    -0.059 C 
ATOM     28  H   UNL     1      -1.882  -1.393   7.952  0.00  0.00    -0.081 HD
BRANCH  25  29
ATOM     29  C   UNL     1      -6.146  -2.104   8.940  0.00  0.00    +0.065 A 
ATOM     30  C   UNL     1      -6.502  -2.673  10.155  0.00  0.00    +0.026 A 
ATOM     31  C   UNL     1      -7.834  -2.889  10.451  0.00  0.00    +0.002 A 
ATOM     32  C   UNL     1      -8.813  -2.540   9.539  0.00  0.00    +0.003 A 
ATOM     33  C   UNL     1      -8.463  -1.974   8.327  0.00  0.00    +0.040 A 
ATOM     34  C   UNL     1      -7.133  -1.749   8.026  0.00  0.00    +0.144 A 
ATOM     35  F   UNL     1      -6.791  -1.190   6.844  0.00  0.00    -0.204 F 
ENDBRANCH  25  29
ENDBRANCH  20  22
ENDBRANCH   2  20
TORSDOF 7
