REMARK  Name = ZINC50441544
REMARK  10 active torsions:
REMARK  status: ('A' for Active; 'I' for Inactive)
REMARK    1  A    between atoms: C_1  and  C_2
REMARK    2  A    between atoms: C_2  and  O_3
REMARK    3  A    between atoms: O_3  and  C_4
REMARK    4  A    between atoms: C_4  and  C_6
REMARK    5  A    between atoms: C_6  and  C_7
REMARK    6  A    between atoms: C_6  and  C_8
REMARK    7  A    between atoms: C_6  and  N_21
REMARK    8  A    between atoms: C_8  and  O_9
REMARK    9  A    between atoms: O_9  and  C_10
REMARK   10  A    between atoms: C_13  and  N_17
REMARK                            x       y       z     vdW  Elec       q    Type
REMARK                         _______ _______ _______ _____ _____    ______ ____
ROOT
ATOM      1  C   UNL     1      -2.839  -3.826  -0.601  0.00  0.00    +0.227 C 
ENDROOT
BRANCH   1   2
ATOM      2  C   UNL     1      -2.881  -2.427   0.017  0.00  0.00    +0.060 C 
ATOM      3  C   UNL     1      -3.385  -2.520   1.458  0.00  0.00    +0.004 C 
BRANCH   2   4
ATOM      4  N   UNL     1      -3.786  -1.573  -0.765  0.00  0.00    +0.391 N 
ATOM      5  H   UNL     1      -3.454  -1.512  -1.715  0.00  0.00    -0.088 HD
ATOM      6  H   UNL     1      -4.713  -1.972  -0.758  0.00  0.00    -0.088 HD
ATOM      7  H   UNL     1      -3.814  -0.650  -0.357  0.00  0.00    -0.088 HD
ENDBRANCH   2   4
BRANCH   2   8
ATOM      8  C   UNL     1      -1.496  -1.832   0.006  0.00  0.00    +0.299 C 
ATOM      9  O   UNL     1      -0.528  -2.555  -0.007  0.00  0.00    -0.252 OA
BRANCH   8  10
ATOM     10  O   UNL     1      -1.339  -0.499   0.012  0.00  0.00    -0.466 OA
BRANCH  10  12
ATOM     11  C   UNL     1      -0.019   1.526   0.010  0.00  0.00    +0.048 C 
ATOM     12  C   UNL     1       0.002  -0.004   0.002  0.00  0.00    +0.228 C 
ENDBRANCH  10  12
ENDBRANCH   8  10
ENDBRANCH   2   8
ENDBRANCH   1   2
BRANCH   1  13
ATOM     13  O   UNL     1      -4.168  -4.343  -0.698  0.00  0.00    -0.491 OA
BRANCH  13  14
ATOM     14  C   UNL     1      -4.309  -5.587  -1.230  0.00  0.00    +0.148 A 
ATOM     15  C   UNL     1      -4.482  -5.742  -2.598  0.00  0.00    +0.063 A 
ATOM     16  C   UNL     1      -4.624  -7.008  -3.135  0.00  0.00    +0.051 A 
ATOM     17  C   UNL     1      -4.594  -8.118  -2.312  0.00  0.00    +0.129 A 
ATOM     18  C   UNL     1      -4.422  -7.965  -0.948  0.00  0.00    +0.051 A 
ATOM     19  C   UNL     1      -4.274  -6.703  -0.406  0.00  0.00    +0.063 A 
ATOM     20 BR   UNL     1      -4.030  -6.496   1.458  0.00  0.00    -0.046 Br
ATOM     21 BR   UNL     1      -4.523  -4.225  -3.725  0.00  0.00    -0.046 Br
BRANCH  17  22
ATOM     22  N   UNL     1      -4.748  -9.471  -2.890  0.00  0.00    +0.056 N 
ATOM     23  O   UNL     1      -4.899  -9.606  -4.082  0.00  0.00    -0.126 OA
ATOM     24  O   UNL     1      -4.722 -10.443  -2.171  0.00  0.00    -0.126 OA
ENDBRANCH  17  22
ENDBRANCH  13  14
ENDBRANCH   1  13
TORSDOF 8
