REMARK  Name = ZINC00718014
REMARK  7 active torsions:
REMARK  status: ('A' for Active; 'I' for Inactive)
REMARK    1  A    between atoms: C_5  and  C_7
REMARK    2  A    between atoms: C_7  and  O_8
REMARK    3  A    between atoms: O_8  and  C_9
REMARK    4  A    between atoms: C_12  and  C_15
REMARK    5  A    between atoms: C_17  and  C_34
REMARK    6  A    between atoms: C_18  and  N_33
REMARK    7  A    between atoms: C_25  and  C_28
REMARK                            x       y       z     vdW  Elec       q    Type
REMARK                         _______ _______ _______ _____ _____    ______ ____
ROOT
ATOM      1  C   UNL     1       2.490   1.045  -0.016  0.00  0.00    +0.101 C 
ATOM      2  C   UNL     1       3.260   1.426  -1.250  0.00  0.00    +0.098 C 
ATOM      3  C   UNL     1       4.280   2.315  -1.173  0.00  0.00    +0.198 C 
ATOM      4  O   UNL     1       4.628   2.882  -0.008  0.00  0.00    -0.445 OA
ATOM      5  C   UNL     1       4.289   2.291   1.153  0.00  0.00    +0.115 C 
ATOM      6  C   UNL     1       3.280   1.403   1.219  0.00  0.00    +0.046 C 
ATOM      7  C   UNL     1       2.931   0.780   2.433  0.00  0.00    +0.164 C 
ATOM      8  O   UNL     1       2.003  -0.003   2.456  0.00  0.00    -0.292 OA
ATOM      9  C   UNL     1       3.686   1.069   3.702  0.00  0.00    +0.091 C 
ATOM     10  C   UNL     1       5.123   1.464   3.344  0.00  0.00    +0.070 C 
ATOM     11  C   UNL     1       5.074   2.659   2.391  0.00  0.00    +0.086 C 
ENDROOT
BRANCH   1  15
ATOM     12  C   UNL     1      -1.237   3.137   0.031  0.00  0.00    +0.121 A 
ATOM     13  C   UNL     1      -1.218   1.750   0.017  0.00  0.00    +0.046 A 
ATOM     14  C   UNL     1      -0.013   1.076   0.008  0.00  0.00    +0.008 A 
ATOM     15  C   UNL     1       1.176   1.783   0.000  0.00  0.00    -0.034 A 
ATOM     16  C   UNL     1       1.160   3.165   0.007  0.00  0.00    +0.008 A 
ATOM     17  C   UNL     1      -0.043   3.844   0.023  0.00  0.00    +0.046 A 
BRANCH  12  18
ATOM     18  O   UNL     1      -2.422   3.802   0.045  0.00  0.00    -0.487 OA
BRANCH  18  19
ATOM     19  C   UNL     1      -3.611   3.009   0.053  0.00  0.00    +0.267 C 
BRANCH  19  24
ATOM     20  C   UNL     1      -5.758   6.114   0.088  0.00  0.00    +0.001 A 
ATOM     21  C   UNL     1      -7.030   5.571   0.097  0.00  0.00    +0.003 A 
ATOM     22  C   UNL     1      -7.197   4.200   0.093  0.00  0.00    +0.039 A 
ATOM     23  C   UNL     1      -6.089   3.368   0.078  0.00  0.00    +0.130 A 
ATOM     24  C   UNL     1      -4.817   3.913   0.069  0.00  0.00    +0.025 A 
ATOM     25  C   UNL     1      -4.652   5.285   0.079  0.00  0.00    +0.010 A 
ATOM     26  F   UNL     1      -6.251   2.027   0.074  0.00  0.00    -0.205 F 
ENDBRANCH  19  24
ENDBRANCH  18  19
ENDBRANCH  12  18
ENDBRANCH   1  15
BRANCH  10  27
ATOM     27  C   UNL     1       5.870   1.845   4.596  0.00  0.00    +0.109 A 
ATOM     28  C   UNL     1       6.981   1.246   5.062  0.00  0.00    +0.045 A 
ATOM     29  C   UNL     1       7.341   1.920   6.252  0.00  0.00    +0.041 A 
ATOM     30  C   UNL     1       6.428   2.890   6.442  0.00  0.00    +0.195 A 
ATOM     31  O   UNL     1       5.543   2.843   5.433  0.00  0.00    -0.468 OA
ENDBRANCH  10  27
BRANCH   3  32
ATOM     32  N   UNL     1       4.973   2.642  -2.313  0.00  0.00    -0.328 N 
ATOM     33  H   UNL     1       4.730   2.238  -3.160  0.00  0.00    +0.145 HD
ATOM     34  H   UNL     1       5.705   3.276  -2.270  0.00  0.00    +0.145 HD
ENDBRANCH   3  32
BRANCH   2  35
ATOM     35  C   UNL     1       2.914   0.846  -2.512  0.00  0.00    +0.101 C 
ATOM     36  N   UNL     1       2.639   0.386  -3.514  0.00  0.00    -0.191 NA
ENDBRANCH   2  35
TORSDOF 7
