REMARK  Name = ZINC51615469
REMARK  8 active torsions:
REMARK  status: ('A' for Active; 'I' for Inactive)
REMARK    1  A    between atoms: C_2  and  C_3
REMARK    2  A    between atoms: C_3  and  N_4
REMARK    3  A    between atoms: C_5  and  C_7
REMARK    4  A    between atoms: C_7  and  N_8
REMARK    5  A    between atoms: N_11  and  C_12
REMARK    6  A    between atoms: C_15  and  C_19
REMARK    7  A    between atoms: C_19  and  C_21
REMARK    8  A    between atoms: C_19  and  C_23
REMARK                            x       y       z     vdW  Elec       q    Type
REMARK                         _______ _______ _______ _____ _____    ______ ____
ROOT
ATOM      1  C   UNL     1       5.259   8.150  -0.166  0.00  0.00    +0.036 A 
ATOM      2  C   UNL     1       6.410   7.378  -0.249  0.00  0.00    +0.024 A 
ATOM      3  C   UNL     1       7.646   7.988  -0.324  0.00  0.00    +0.008 A 
ATOM      4  C   UNL     1       7.740   9.368  -0.316  0.00  0.00    -0.008 A 
ATOM      5  C   UNL     1       6.595  10.141  -0.233  0.00  0.00    +0.047 A 
ATOM      6  C   UNL     1       5.354   9.535  -0.164  0.00  0.00    +0.043 A 
ATOM      7 CL   UNL     1       6.717  11.873  -0.222  0.00  0.00    -0.083 Cl
ENDROOT
BRANCH   1  11
ATOM      8  N   UNL     1       1.754   7.455  -0.706  0.00  0.00    -0.291 N 
ATOM      9  C   UNL     1       2.940   8.096  -0.695  0.00  0.00    +0.304 C 
ATOM     10  O   UNL     1       3.049   9.182  -1.231  0.00  0.00    -0.252 OA
ATOM     11  N   UNL     1       4.005   7.534  -0.090  0.00  0.00    -0.269 N 
ATOM     12  H   UNL     1       1.668   6.589  -0.278  0.00  0.00    +0.151 HD
ATOM     13  H   UNL     1       3.902   6.702   0.398  0.00  0.00    +0.156 HD
BRANCH   8  14
ATOM     14  C   UNL     1       0.597   8.066  -1.363  0.00  0.00    +0.201 C 
BRANCH  14  16
ATOM     15  N   UNL     1      -1.780   7.511  -1.767  0.00  0.00    -0.303 N 
ATOM     16  C   UNL     1      -0.595   7.153  -1.234  0.00  0.00    +0.231 C 
ATOM     17  O   UNL     1      -0.488   6.095  -0.650  0.00  0.00    -0.274 OA
ATOM     18  H   UNL     1      -1.865   8.357  -2.234  0.00  0.00    +0.150 HD
BRANCH  15  19
ATOM     19  C   UNL     1      -2.938   6.623  -1.641  0.00  0.00    +0.193 C 
BRANCH  19  21
ATOM     20  C   UNL     1      -5.029   7.727  -2.829  0.00  0.00    +0.005 C 
ATOM     21  C   UNL     1      -4.101   7.237  -2.302  0.00  0.00    -0.087 C 
ENDBRANCH  19  21
ENDBRANCH  15  19
ENDBRANCH  14  16
ENDBRANCH   8  14
ENDBRANCH   1  11
BRANCH   4  22
ATOM     22  C   UNL     1       9.091  10.031  -0.398  0.00  0.00    +0.153 C 
BRANCH  22  23
ATOM     23  C   UNL     1       9.701   9.763  -1.749  0.00  0.00    -0.026 A 
ATOM     24  C   UNL     1      10.084   8.480  -2.093  0.00  0.00    +0.005 A 
ATOM     25  C   UNL     1      10.644   8.234  -3.333  0.00  0.00    +0.000 A 
ATOM     26  C   UNL     1      10.820   9.271  -4.229  0.00  0.00    +0.000 A 
ATOM     27  C   UNL     1      10.436  10.554  -3.886  0.00  0.00    +0.000 A 
ATOM     28  C   UNL     1       9.873  10.799  -2.648  0.00  0.00    +0.005 A 
ENDBRANCH  22  23
BRANCH  22  29
ATOM     29  C   UNL     1       9.968   9.489   0.653  0.00  0.00    +0.075 C 
ATOM     30  N   UNL     1      10.644   9.070   1.464  0.00  0.00    -0.196 NA
ENDBRANCH  22  29
ENDBRANCH   4  22
TORSDOF 8
