REMARK  Name = ZINC12048887
REMARK  8 active torsions:
REMARK  status: ('A' for Active; 'I' for Inactive)
REMARK    1  A    between atoms: C_1  and  C_2
REMARK    2  A    between atoms: C_2  and  C_4
REMARK    3  A    between atoms: C_2  and  N_61
REMARK    4  A    between atoms: N_6  and  C_7
REMARK    5  A    between atoms: C_7  and  C_8
REMARK    6  A    between atoms: C_15  and  C_22
REMARK    7  A    between atoms: C_25  and  C_27
REMARK    8  A    between atoms: C_27  and  C_29
REMARK                            x       y       z     vdW  Elec       q    Type
REMARK                         _______ _______ _______ _____ _____    ______ ____
ROOT
ATOM      1  C   UNL     1       3.070  -5.706   3.390  0.00  0.00    +0.195 C 
ATOM      2  C   UNL     1       4.092  -6.213   4.435  0.00  0.00    +0.085 C 
ATOM      3  C   UNL     1       4.715  -7.393   3.715  0.00  0.00    +0.006 A 
ATOM      4  C   UNL     1       5.493  -8.465   4.167  0.00  0.00    -0.011 A 
ATOM      5  C   UNL     1       5.855  -8.582   5.523  0.00  0.00    +0.009 A 
ATOM      6  C   UNL     1       6.608  -9.631   5.937  0.00  0.00    +0.009 A 
ATOM      7  C   UNL     1       7.038 -10.614   5.027  0.00  0.00    -0.011 A 
ATOM      8  C   UNL     1       6.698 -10.528   3.687  0.00  0.00    +0.017 A 
ATOM      9  C   UNL     1       5.920  -9.451   3.240  0.00  0.00    -0.017 A 
ATOM     10  C   UNL     1       5.554  -9.327   1.888  0.00  0.00    +0.012 A 
ATOM     11  C   UNL     1       4.805  -8.272   1.478  0.00  0.00    +0.046 A 
ATOM     12  C   UNL     1       4.377  -7.285   2.383  0.00  0.00    +0.125 A 
ATOM     13  O   UNL     1       3.635  -6.165   2.151  0.00  0.00    -0.487 OA
ENDROOT
BRANCH   7  14
ATOM     14  C   UNL     1       7.858 -11.746   5.505  0.00  0.00    +0.020 A 
ATOM     15  C   UNL     1       8.305 -12.017   6.791  0.00  0.00    +0.017 A 
ATOM     16  C   UNL     1       9.058 -13.134   7.002  0.00  0.00    +0.019 A 
ATOM     17  C   UNL     1       9.350 -13.957   5.918  0.00  0.00    +0.055 A 
ATOM     18  S   UNL     1       8.522 -13.119   4.576  0.00  0.00    -0.085 S 
BRANCH  17  19
ATOM     19  C   UNL     1      10.101 -15.151   5.888  0.00  0.00    +0.167 C 
ATOM     20  O   UNL     1      10.594 -15.584   6.910  0.00  0.00    -0.292 OA
ATOM     21  C   UNL     1      10.292 -15.888   4.587  0.00  0.00    +0.092 C 
ENDBRANCH  17  19
ENDBRANCH   7  14
BRANCH   1  22
ATOM     22  C   UNL     1       2.982  -4.179   3.414  0.00  0.00    +0.149 C 
BRANCH  22  25
ATOM     23  C   UNL     1       1.771  -2.414   2.249  0.00  0.00    +0.199 C 
ATOM     24  O   UNL     1       2.352  -1.601   2.936  0.00  0.00    -0.278 OA
ATOM     25  N   UNL     1       2.015  -3.730   2.409  0.00  0.00    -0.313 N 
ATOM     26  H   UNL     1       1.550  -4.380   1.859  0.00  0.00    +0.149 HD
BRANCH  23  28
ATOM     27  C   UNL     1      -0.618  -1.886   1.843  0.00  0.00    -0.004 C 
ATOM     28  C   UNL     1       0.776  -1.952   1.215  0.00  0.00    +0.016 C 
BRANCH  28  34
ATOM     29  C   UNL     1       2.566  -0.598   0.305  0.00  0.00    -0.049 C 
ATOM     30  C   UNL     1       2.904   0.788  -0.249  0.00  0.00    +0.141 C 
ATOM     31  O   UNL     1       2.622   1.776   0.746  0.00  0.00    -0.383 OA
ATOM     32  C   UNL     1       1.260   1.783   1.180  0.00  0.00    +0.141 C 
ATOM     33  C   UNL     1       0.904   0.407   1.749  0.00  0.00    -0.049 C 
ATOM     34  N   UNL     1       1.143  -0.613   0.707  0.00  0.00    +0.390 N 
ATOM     35  H   UNL     1       0.563  -0.396  -0.112  0.00  0.00    -0.081 HD
ENDBRANCH  28  34
ENDBRANCH  23  28
ENDBRANCH  22  25
ENDBRANCH   1  22
TORSDOF 6
