REMARK  Name = ZINC58847604
REMARK  4 active torsions:
REMARK  status: ('A' for Active; 'I' for Inactive)
REMARK    1  A    between atoms: C_6  and  N_7
REMARK    2  A    between atoms: N_7  and  S_8
REMARK    3  A    between atoms: S_8  and  C_11
REMARK    4  A    between atoms: C_24  and  C_27
REMARK                            x       y       z     vdW  Elec       q    Type
REMARK                         _______ _______ _______ _____ _____    ______ ____
ROOT
ATOM      1  C   UNL     1      -0.128  -3.226  -0.377  0.00  0.00    +0.109 A 
ATOM      2  C   UNL     1       1.202  -3.151  -0.749  0.00  0.00    +0.030 A 
ATOM      3  C   UNL     1       2.100  -4.085  -0.275  0.00  0.00    +0.025 A 
ATOM      4  C   UNL     1       1.671  -5.097   0.576  0.00  0.00    +0.031 A 
ATOM      5  C   UNL     1       0.341  -5.167   0.962  0.00  0.00    -0.018 A 
ATOM      6  C   UNL     1      -0.554  -4.224   0.476  0.00  0.00    +0.034 A 
ATOM      7  C   UNL     1      -0.149  -6.213   1.904  0.00  0.00    +0.049 C 
ATOM      8  C   UNL     1      -0.910  -7.304   1.195  0.00  0.00    -0.023 C 
ATOM      9  C   UNL     1      -0.674  -8.462   1.759  0.00  0.00    -0.030 C 
ATOM     10  C   UNL     1       0.284  -8.311   2.921  0.00  0.00    +0.033 C 
ATOM     11  C   UNL     1       0.953  -6.939   2.673  0.00  0.00    +0.029 C 
ATOM     12  C   UNL     1       2.213  -7.167   1.864  0.00  0.00    +0.105 C 
ATOM     13  N   UNL     1       2.583  -6.042   1.030  0.00  0.00    -0.336 N 
ATOM     14  H   UNL     1       3.510  -5.956   0.756  0.00  0.00    +0.147 HD
ENDROOT
BRANCH  12  15
ATOM     15  C   UNL     1       2.017  -8.391   1.007  0.00  0.00    -0.023 A 
ATOM     16  C   UNL     1       1.308  -8.298  -0.176  0.00  0.00    +0.009 A 
ATOM     17  C   UNL     1       1.125  -9.417  -0.967  0.00  0.00    +0.050 A 
ATOM     18  C   UNL     1       1.654 -10.636  -0.574  0.00  0.00    +0.166 A 
ATOM     19  C   UNL     1       2.369 -10.730   0.617  0.00  0.00    +0.167 A 
ATOM     20  C   UNL     1       2.552  -9.603   1.402  0.00  0.00    +0.055 A 
ATOM     21  O   UNL     1       2.781 -12.021   0.778  0.00  0.00    -0.453 OA
ATOM     22  C   UNL     1       1.965 -12.800  -0.117  0.00  0.00    +0.466 C 
ATOM     23  O   UNL     1       1.618 -11.869  -1.160  0.00  0.00    -0.453 OA
ENDBRANCH  12  15
BRANCH   1  24
ATOM     24  S   UNL     1      -1.280  -2.040  -0.987  0.00  0.00    +0.072 S 
ATOM     25  O   UNL     1      -2.573  -2.601  -0.807  0.00  0.00    -0.150 OA
ATOM     26  O   UNL     1      -0.799  -1.624  -2.257  0.00  0.00    -0.150 OA
BRANCH  24  27
ATOM     27  N   UNL     1      -1.195  -0.719   0.008  0.00  0.00    -0.216 N 
ATOM     28  H   UNL     1      -0.922   0.141  -0.350  0.00  0.00    +0.174 HD
BRANCH  27  34
ATOM     29  C   UNL     1      -0.689  -0.282   2.327  0.00  0.00    +0.026 A 
ATOM     30  C   UNL     1      -1.008  -0.405   3.665  0.00  0.00    +0.022 A 
ATOM     31  C   UNL     1      -2.152  -1.085   4.045  0.00  0.00    +0.041 A 
ATOM     32  C   UNL     1      -2.978  -1.644   3.085  0.00  0.00    +0.022 A 
ATOM     33  C   UNL     1      -2.663  -1.524   1.746  0.00  0.00    +0.026 A 
ATOM     34  C   UNL     1      -1.516  -0.842   1.362  0.00  0.00    +0.048 A 
ATOM     35 CL   UNL     1      -2.551  -1.238   5.727  0.00  0.00    -0.084 Cl
ENDBRANCH  27  34
ENDBRANCH  24  27
ENDBRANCH   1  24
TORSDOF 4
