REMARK  Name = ZINC01568416
REMARK  8 active torsions:
REMARK  status: ('A' for Active; 'I' for Inactive)
REMARK    1  A    between atoms: C_1  and  C_2
REMARK    2  A    between atoms: C_2  and  N_50
REMARK    3  A    between atoms: C_3  and  C_4
REMARK    4  A    between atoms: C_3  and  N_50
REMARK    5  A    between atoms: N_6  and  C_7
REMARK    6  A    between atoms: C_10  and  C_13
REMARK    7  A    between atoms: C_21  and  C_25
REMARK    8  A    between atoms: C_21  and  C_26
REMARK                            x       y       z     vdW  Elec       q    Type
REMARK                         _______ _______ _______ _____ _____    ______ ____
ROOT
ATOM      1  C   UNL     1       1.052  -1.523   3.319  0.00  0.00    +0.033 A 
ATOM      2  C   UNL     1      -0.261  -1.551   2.866  0.00  0.00    +0.023 A 
ATOM      3  C   UNL     1      -0.559  -1.112   1.591  0.00  0.00    +0.007 A 
ATOM      4  C   UNL     1       0.448  -0.644   0.766  0.00  0.00    -0.023 A 
ATOM      5  C   UNL     1       1.756  -0.619   1.212  0.00  0.00    +0.007 A 
ATOM      6  C   UNL     1       2.060  -1.052   2.488  0.00  0.00    +0.023 A 
ENDROOT
BRANCH   4   7
ATOM      7  C   UNL     1       0.118  -0.166  -0.625  0.00  0.00    +0.134 C 
ATOM      8  C   UNL     1       0.301  -1.305  -1.589  0.00  0.00    -0.019 A 
ATOM      9  C   UNL     1       1.581  -1.598  -2.036  0.00  0.00    +0.006 A 
ATOM     10  C   UNL     1       1.790  -2.640  -2.917  0.00  0.00    +0.000 A 
ATOM     11  C   UNL     1       0.718  -3.390  -3.365  0.00  0.00    +0.000 A 
ATOM     12  C   UNL     1      -0.557  -3.095  -2.925  0.00  0.00    +0.005 A 
ATOM     13  C   UNL     1      -0.768  -2.051  -2.037  0.00  0.00    -0.028 A 
ATOM     14  C   UNL     1      -2.172  -1.760  -1.583  0.00  0.00    +0.067 C 
ATOM     15  C   UNL     1      -2.291  -0.361  -1.061  0.00  0.00    +0.224 C 
ATOM     16  O   UNL     1      -3.389   0.152  -1.022  0.00  0.00    -0.275 OA
ATOM     17  N   UNL     1      -1.241   0.345  -0.638  0.00  0.00    -0.304 N 
ATOM     18  C   UNL     1      -2.556  -2.743  -0.475  0.00  0.00    +0.025 C 
ATOM     19  C   UNL     1      -3.128  -1.938  -2.764  0.00  0.00    +0.025 C 
ATOM     20  H   UNL     1      -1.394   1.250  -0.321  0.00  0.00    +0.150 HD
ENDBRANCH   4   7
BRANCH   1  23
ATOM     21  C   UNL     1       0.678  -3.001   5.145  0.00  0.00    +0.200 C 
ATOM     22  O   UNL     1      -0.213  -3.531   4.517  0.00  0.00    -0.278 OA
ATOM     23  N   UNL     1       1.357  -1.967   4.610  0.00  0.00    -0.287 N 
ATOM     24  H   UNL     1       2.058  -1.531   5.120  0.00  0.00    +0.155 HD
BRANCH  21  25
ATOM     25  C   UNL     1       1.028  -3.498   6.524  0.00  0.00    +0.015 C 
BRANCH  25  26
ATOM     26  N   UNL     1       0.143  -4.627   6.869  0.00  0.00    +0.385 N 
ATOM     27  H   UNL     1      -0.834  -4.310   6.850  0.00  0.00    -0.085 HD
ATOM     28  H   UNL     1       0.272  -5.380   6.184  0.00  0.00    -0.085 HD
BRANCH  26  30
ATOM     29  C   UNL     1      -0.469  -6.303   8.546  0.00  0.00    -0.017 C 
ATOM     30  C   UNL     1       0.463  -5.135   8.217  0.00  0.00    -0.085 C 
ENDBRANCH  26  30
ENDBRANCH  25  26
ENDBRANCH  21  25
ENDBRANCH   1  23
TORSDOF 5
