REMARK  Name = ZINC27569564
REMARK  15 active torsions:
REMARK  status: ('A' for Active; 'I' for Inactive)
REMARK    1  A    between atoms: C_1  and  C_2
REMARK    2  A    between atoms: C_2  and  C_3
REMARK    3  A    between atoms: C_2  and  C_4
REMARK    4  A    between atoms: C_4  and  C_6
REMARK    5  A    between atoms: C_4  and  N_23
REMARK    6  A    between atoms: N_8  and  C_9
REMARK    7  A    between atoms: C_9  and  C_10
REMARK    8  A    between atoms: C_10  and  C_12
REMARK    9  A    between atoms: C_10  and  N_20
REMARK   10  A    between atoms: C_17  and  O_18
REMARK   11  A    between atoms: O_18  and  C_19
REMARK   12  A    between atoms: N_20  and  C_21
REMARK   13  A    between atoms: N_20  and  C_22
REMARK   14  A    between atoms: N_23  and  S_24
REMARK   15  A    between atoms: S_24  and  C_27
REMARK                            x       y       z     vdW  Elec       q    Type
REMARK                         _______ _______ _______ _____ _____    ______ ____
ROOT
ATOM      1  C   UNL     1       6.707   6.731  -2.221  0.00  0.00    +0.165 C 
ENDROOT
BRANCH   1   2
ATOM      2  C   UNL     1       5.625   5.742  -2.566  0.00  0.00    +0.232 C 
ATOM      3  O   UNL     1       5.117   5.757  -3.668  0.00  0.00    -0.274 OA
ATOM      4  N   UNL     1       5.220   4.839  -1.651  0.00  0.00    -0.315 N 
ATOM      5  H   UNL     1       5.620   4.877  -0.627  0.00  0.00    +0.149 HD
BRANCH   4   6
ATOM      6  C   UNL     1       4.246   3.808  -2.019  0.00  0.00    +0.093 C 
BRANCH   6   7
ATOM      7  C   UNL     1       3.960   2.921  -0.806  0.00  0.00    -0.017 C 
BRANCH   7   8
ATOM      8  C   UNL     1       3.054   1.788  -1.215  0.00  0.00    -0.018 A 
ATOM      9  C   UNL     1       3.028   1.364  -2.530  0.00  0.00    +0.005 A 
ATOM     10  C   UNL     1       2.197   0.325  -2.906  0.00  0.00    +0.000 A 
ATOM     11  C   UNL     1       1.387  -0.289  -1.969  0.00  0.00    +0.004 A 
ATOM     12  C   UNL     1       1.413   0.127  -0.652  0.00  0.00    +0.046 A 
ATOM     13  C   UNL     1       2.246   1.169  -0.273  0.00  0.00    +0.122 A 
BRANCH  13  14
ATOM     14  O   UNL     1       2.271   1.584   1.022  0.00  0.00    -0.495 OA
ATOM     15  C   UNL     1       1.412   0.902   1.938  0.00  0.00    +0.277 C 
ENDBRANCH  13  14
ENDBRANCH   7   8
BRANCH   7  16
ATOM     16  N   UNL     1       5.223   2.376  -0.289  0.00  0.00    +0.382 N 
ATOM     17  C   UNL     1       5.024   1.735   1.018  0.00  0.00    -0.096 C 
ATOM     18  C   UNL     1       5.824   1.440  -1.248  0.00  0.00    -0.096 C 
ATOM     19  H   UNL     1       5.921   3.214  -0.152  0.00  0.00    -0.082 HD
ENDBRANCH   7  16
ENDBRANCH   6   7
ENDBRANCH   4   6
ENDBRANCH   1   2
BRANCH   1  21
ATOM     20  C   UNL     1       7.260   8.754  -0.863  0.00  0.00    +0.009 C 
ATOM     21  C   UNL     1       6.138   7.808  -1.295  0.00  0.00    +0.010 C 
ATOM     22  C   UNL     1       5.060   8.601  -2.037  0.00  0.00    +0.009 C 
ENDBRANCH   1  21
BRANCH   1  23
ATOM     23  N   UNL     1       7.207   7.356  -3.449  0.00  0.00    -0.178 NA
ATOM     24  H   UNL     1       6.499   7.763  -4.186  0.00  0.00    +0.149 HD
BRANCH  23  25
ATOM     25  S   UNL     1       8.809   7.235  -3.847  0.00  0.00    +0.059 S 
ATOM     26  O   UNL     1       8.949   7.799  -5.144  0.00  0.00    -0.153 OA
ATOM     27  O   UNL     1       9.544   7.708  -2.727  0.00  0.00    -0.153 OA
BRANCH  25  28
ATOM     28  C   UNL     1       9.179   5.519  -4.003  0.00  0.00    +0.106 A 
ATOM     29  C   UNL     1       9.617   4.808  -2.888  0.00  0.00    +0.029 A 
ATOM     30  C   UNL     1       9.906   3.480  -2.972  0.00  0.00    +0.010 A 
ATOM     31  C   UNL     1       9.772   2.817  -4.204  0.00  0.00    -0.018 A 
ATOM     32  C   UNL     1      10.067   1.448  -4.331  0.00  0.00    +0.008 A 
ATOM     33  C   UNL     1       9.925   0.839  -5.540  0.00  0.00    +0.001 A 
ATOM     34  C   UNL     1       9.491   1.552  -6.656  0.00  0.00    +0.001 A 
ATOM     35  C   UNL     1       9.197   2.877  -6.570  0.00  0.00    +0.008 A 
ATOM     36  C   UNL     1       9.331   3.541  -5.339  0.00  0.00    -0.016 A 
ATOM     37  C   UNL     1       9.037   4.910  -5.211  0.00  0.00    +0.037 A 
ENDBRANCH  25  28
ENDBRANCH  23  25
ENDBRANCH   1  23
TORSDOF 10
