REMARK  Name = ZINC15959271
REMARK  7 active torsions:
REMARK  status: ('A' for Active; 'I' for Inactive)
REMARK    1  A    between atoms: C_1  and  C_2
REMARK    2  A    between atoms: C_7  and  C_8
REMARK    3  A    between atoms: C_17  and  C_20
REMARK    4  A    between atoms: C_20  and  C_21
REMARK    5  A    between atoms: N_29  and  C_32
REMARK    6  A    between atoms: C_32  and  C_33
REMARK    7  A    between atoms: C_33  and  C_34
REMARK                            x       y       z     vdW  Elec       q    Type
REMARK                         _______ _______ _______ _____ _____    ______ ____
ROOT
ATOM      1  C   UNL     1       3.819   0.971  -0.704  0.00  0.00    +0.044 C 
ATOM      2  C   UNL     1       3.133  -0.362  -0.547  0.00  0.00    -0.046 A 
ATOM      3  C   UNL     1       2.547  -0.968  -1.644  0.00  0.00    +0.004 A 
ATOM      4  C   UNL     1       1.919  -2.192  -1.499  0.00  0.00    +0.008 A 
ATOM      5  C   UNL     1       1.876  -2.804  -0.267  0.00  0.00    +0.004 A 
ATOM      6  C   UNL     1       2.462  -2.204   0.844  0.00  0.00    +0.042 A 
ATOM      7  C   UNL     1       3.099  -0.974   0.689  0.00  0.00    -0.026 A 
ATOM      8  C   UNL     1       3.745  -0.308   1.875  0.00  0.00    +0.046 C 
ATOM      9  N   UNL     1       2.290  -3.007   1.974  0.00  0.00    -0.283 N 
ATOM     10  C   UNL     1       1.610  -4.136   1.696  0.00  0.00    +0.243 C 
ATOM     11  O   UNL     1       1.314  -5.014   2.478  0.00  0.00    -0.273 OA
ATOM     12  C   UNL     1       1.289  -4.096   0.227  0.00  0.00    +0.136 C 
ATOM     13  C   UNL     1      -0.224  -4.157  -0.019  0.00  0.00    +0.122 C 
ATOM     14  C   UNL     1      -0.505  -5.648  -0.355  0.00  0.00    +0.107 C 
ATOM     15  C   UNL     1       0.868  -6.345  -0.245  0.00  0.00    +0.072 C 
ATOM     16  N   UNL     1       1.862  -5.256  -0.481  0.00  0.00    -0.295 NA
ATOM     17  C   UNL     1      -0.945  -5.604  -1.800  0.00  0.00    +0.227 C 
ATOM     18  O   UNL     1      -1.256  -6.567  -2.467  0.00  0.00    -0.275 OA
ATOM     19  N   UNL     1      -0.939  -4.336  -2.228  0.00  0.00    -0.241 N 
ATOM     20  C   UNL     1      -0.556  -3.427  -1.302  0.00  0.00    +0.228 C 
ATOM     21  O   UNL     1      -0.486  -2.228  -1.464  0.00  0.00    -0.275 OA
ATOM     22  H   UNL     1       2.623  -2.778   2.856  0.00  0.00    +0.155 HD
ATOM     23  H   UNL     1       1.972  -5.061  -1.465  0.00  0.00    +0.124 HD
ENDROOT
BRANCH  15  24
ATOM     24  C   UNL     1       1.040  -6.966   1.143  0.00  0.00    +0.054 C 
BRANCH  24  25
ATOM     25  C   UNL     1       0.549  -8.391   1.120  0.00  0.00    -0.046 A 
ATOM     26  C   UNL     1      -0.773  -8.671   1.407  0.00  0.00    +0.004 A 
ATOM     27  C   UNL     1      -1.223  -9.978   1.386  0.00  0.00    +0.000 A 
ATOM     28  C   UNL     1      -0.350 -11.005   1.078  0.00  0.00    +0.000 A 
ATOM     29  C   UNL     1       0.972 -10.724   0.790  0.00  0.00    +0.000 A 
ATOM     30  C   UNL     1       1.421  -9.417   0.807  0.00  0.00    +0.004 A 
ENDBRANCH  24  25
ENDBRANCH  15  24
BRANCH  19  31
ATOM     31  C   UNL     1      -1.320  -3.959  -3.591  0.00  0.00    +0.121 C 
BRANCH  31  32
ATOM     32  C   UNL     1      -2.823  -3.675  -3.640  0.00  0.00    +0.054 C 
BRANCH  32  33
ATOM     33  C   UNL     1      -3.216  -3.287  -5.042  0.00  0.00    -0.046 A 
ATOM     34  C   UNL     1      -3.182  -1.960  -5.427  0.00  0.00    +0.004 A 
ATOM     35  C   UNL     1      -3.542  -1.604  -6.713  0.00  0.00    +0.000 A 
ATOM     36  C   UNL     1      -3.936  -2.575  -7.615  0.00  0.00    +0.000 A 
ATOM     37  C   UNL     1      -3.969  -3.902  -7.230  0.00  0.00    +0.000 A 
ATOM     38  C   UNL     1      -3.604  -4.259  -5.946  0.00  0.00    +0.004 A 
ENDBRANCH  32  33
ENDBRANCH  31  32
ENDBRANCH  19  31
TORSDOF 5
