REMARK  Name = ZINC39559872
REMARK  22 active torsions:
REMARK  status: ('A' for Active; 'I' for Inactive)
REMARK    1  A    between atoms: C_1  and  C_2
REMARK    2  A    between atoms: C_4  and  O_33
REMARK    3  A    between atoms: C_5  and  C_9
REMARK    4  A    between atoms: C_9  and  C_10
REMARK    5  A    between atoms: C_11  and  C_12
REMARK    6  A    between atoms: C_11  and  C_13
REMARK    7  A    between atoms: C_13  and  C_14
REMARK    8  A    between atoms: C_14  and  C_15
REMARK    9  A    between atoms: C_16  and  C_17
REMARK   10  A    between atoms: C_16  and  C_18
REMARK   11  A    between atoms: C_18  and  C_19
REMARK   12  A    between atoms: C_19  and  C_20
REMARK   13  A    between atoms: C_21  and  C_22
REMARK   14  A    between atoms: C_21  and  C_31
REMARK   15  A    between atoms: C_22  and  C_23
REMARK   16  A    between atoms: C_23  and  C_24
REMARK   17  A    between atoms: C_24  and  C_26
REMARK   18  A    between atoms: C_24  and  O_30
REMARK   19  A    between atoms: C_26  and  C_27
REMARK   20  A    between atoms: C_26  and  C_28
REMARK   21  A    between atoms: C_26  and  O_29
REMARK   22  A    between atoms: C_31  and  O_32
REMARK                            x       y       z     vdW  Elec       q    Type
REMARK                         _______ _______ _______ _____ _____    ______ ____
ROOT
ATOM      1  C   UNL     1       1.654  -7.334   0.809  0.00  0.00    -0.028 C 
ATOM      2  C   UNL     1       1.737  -7.833   2.018  0.00  0.00    -0.076 C 
ATOM      3  C   UNL     1       0.484  -8.220   2.760  0.00  0.00    +0.039 C 
ENDROOT
BRANCH   2   4
ATOM      4  C   UNL     1       3.085  -8.020   2.665  0.00  0.00    +0.034 C 
BRANCH   4   5
ATOM      5  C   UNL     1       3.404  -6.805   3.539  0.00  0.00    +0.031 C 
BRANCH   5   6
ATOM      6  C   UNL     1       4.752  -6.992   4.186  0.00  0.00    -0.025 C 
ATOM      7  C   UNL     1       5.735  -6.176   3.898  0.00  0.00    -0.048 C 
BRANCH   7   8
ATOM      8  C   UNL     1       5.530  -5.073   2.892  0.00  0.00    +0.035 C 
BRANCH   8   9
ATOM      9  C   UNL     1       5.081  -3.801   3.614  0.00  0.00    +0.038 C 
BRANCH   9  10
ATOM     10  C   UNL     1       4.872  -2.682   2.592  0.00  0.00    +0.146 C 
BRANCH  10  11
ATOM     11  C   UNL     1       4.545  -1.378   3.324  0.00  0.00    +0.086 C 
ATOM     12  C   UNL     1       5.704  -1.011   4.253  0.00  0.00    +0.043 C 
ATOM     13  C   UNL     1       4.337  -0.259   2.302  0.00  0.00    +0.043 C 
BRANCH  11  14
ATOM     14  O   UNL     1       3.353  -1.550   4.093  0.00  0.00    -0.387 OA
ATOM     15  H   UNL     1       2.576  -1.784   3.567  0.00  0.00    +0.210 HD
ENDBRANCH  11  14
ENDBRANCH  10  11
BRANCH  10  16
ATOM     16  O   UNL     1       3.790  -3.025   1.724  0.00  0.00    -0.389 OA
ATOM     17  H   UNL     1       2.947  -3.157   2.179  0.00  0.00    +0.210 HD
ENDBRANCH  10  16
ENDBRANCH   9  10
ENDBRANCH   8   9
ENDBRANCH   7   8
BRANCH   7  18
ATOM     18  C   UNL     1       7.073  -6.340   4.573  0.00  0.00    +0.186 C 
BRANCH  18  19
ATOM     19  O   UNL     1       7.018  -7.446   5.477  0.00  0.00    -0.391 OA
ATOM     20  H   UNL     1       7.846  -7.611   5.948  0.00  0.00    +0.210 HD
ENDBRANCH  18  19
ENDBRANCH   7  18
ENDBRANCH   5   6
ENDBRANCH   4   5
ENDBRANCH   2   4
BRANCH   1  21
ATOM     21  C   UNL     1       0.326  -7.300   0.098  0.00  0.00    +0.031 C 
BRANCH  21  22
ATOM     22  C   UNL     1       0.471  -7.939  -1.285  0.00  0.00    +0.034 C 
BRANCH  22  24
ATOM     23  C   UNL     1      -1.144  -6.909  -2.799  0.00  0.00    -0.023 C 
ATOM     24  C   UNL     1      -0.857  -7.904  -1.996  0.00  0.00    -0.076 C 
ATOM     25  C   UNL     1      -1.854  -9.014  -1.785  0.00  0.00    +0.039 C 
BRANCH  23  26
ATOM     26  C   UNL     1      -0.209  -5.732  -2.905  0.00  0.00    +0.073 C 
BRANCH  26  31
ATOM     27  C   UNL     1       1.660  -5.254  -8.332  0.00  0.00    +0.086 C 
ATOM     28  C   UNL     1       1.159  -5.367  -6.915  0.00  0.00    +0.110 A 
ATOM     29  C   UNL     1       0.098  -4.634  -6.529  0.00  0.00    +0.087 A 
ATOM     30  C   UNL     1      -0.379  -4.734  -5.202  0.00  0.00    +0.130 A 
ATOM     31  C   UNL     1       0.264  -5.592  -4.329  0.00  0.00    +0.082 A 
ATOM     32  C   UNL     1       1.362  -6.328  -4.790  0.00  0.00    +0.344 A 
ATOM     33  O   UNL     1       1.944  -7.091  -4.036  0.00  0.00    -0.245 OA
ATOM     34  O   UNL     1       1.773  -6.200  -6.063  0.00  0.00    -0.427 OA
BRANCH  30  35
ATOM     35  O   UNL     1      -1.444  -4.005  -4.795  0.00  0.00    -0.506 OA
ATOM     36  H   UNL     1      -1.819  -3.438  -5.482  0.00  0.00    +0.292 HD
ENDBRANCH  30  35
ENDBRANCH  26  31
ENDBRANCH  23  26
ENDBRANCH  22  24
ENDBRANCH  21  22
ENDBRANCH   1  21
TORSDOF 17
