REMARK  Name = ZINC20885351
REMARK  11 active torsions:
REMARK  status: ('A' for Active; 'I' for Inactive)
REMARK    1  A    between atoms: C_1  and  C_2
REMARK    2  A    between atoms: C_2  and  C_3
REMARK    3  A    between atoms: C_3  and  C_4
REMARK    4  A    between atoms: C_4  and  O_5
REMARK    5  A    between atoms: O_5  and  C_6
REMARK    6  A    between atoms: C_9  and  C_14
REMARK    7  A    between atoms: C_11  and  O_12
REMARK    8  A    between atoms: O_12  and  C_13
REMARK    9  A    between atoms: N_15  and  N_16
REMARK   10  A    between atoms: C_17  and  C_19
REMARK   11  A    between atoms: C_21  and  N_27
REMARK                            x       y       z     vdW  Elec       q    Type
REMARK                         _______ _______ _______ _____ _____    ______ ____
ROOT
ATOM      1  N   UNL     1       1.222  -6.284  -0.047  0.00  0.00    -0.202 N 
ATOM      2  C   UNL     1       2.400  -6.938  -0.062  0.00  0.00    +0.283 C 
ATOM      3  O   UNL     1       3.443  -6.314  -0.068  0.00  0.00    -0.267 OA
ATOM      4  H   UNL     1       0.278  -6.849  -0.041  0.00  0.00    +0.178 HD
ENDROOT
BRANCH   2   5
ATOM      5  C   UNL     1       2.424  -8.418  -0.071  0.00  0.00    +0.149 A 
ATOM      6  C   UNL     1       3.644  -9.088  -0.092  0.00  0.00    +0.094 A 
ATOM      7  C   UNL     1       3.649 -10.483  -0.095  0.00  0.00    +0.067 A 
ATOM      8  C   UNL     1       2.425 -11.149  -0.087  0.00  0.00    +0.100 A 
ATOM      9  C   UNL     1       1.252 -10.411  -0.072  0.00  0.00    +0.150 A 
ATOM     10  N   UNL     1       1.280  -9.095  -0.064  0.00  0.00    -0.228 NA
ATOM     11 CL   UNL     1      -0.276 -11.235  -0.062  0.00  0.00    -0.060 Cl
ATOM     12 CL   UNL     1       2.370 -12.884  -0.097  0.00  0.00    -0.078 Cl
ATOM     13 CL   UNL     1       5.136  -8.200  -0.109  0.00  0.00    -0.079 Cl
BRANCH   7  14
ATOM     14  N   UNL     1       4.848 -11.192  -0.111  0.00  0.00    -0.356 N 
ATOM     15  H   UNL     1       4.837 -12.292  -0.112  0.00  0.00    +0.142 HD
ATOM     16  H   UNL     1       5.807 -10.652  -0.121  0.00  0.00    +0.142 HD
ENDBRANCH   7  14
ENDBRANCH   2   5
BRANCH   1  18
ATOM     17  C   UNL     1       0.065  -4.252  -0.023  0.00  0.00    +0.138 C 
ATOM     18  N   UNL     1       1.199  -4.883  -0.038  0.00  0.00    -0.187 NA
BRANCH  17  22
ATOM     19  C   UNL     1       0.002  -0.004   0.002  0.00  0.00    +0.162 A 
ATOM     20  C   UNL     1       1.214  -0.679  -0.019  0.00  0.00    +0.050 A 
ATOM     21  C   UNL     1       1.238  -2.058  -0.022  0.00  0.00    +0.013 A 
ATOM     22  C   UNL     1       0.041  -2.778  -0.014  0.00  0.00    -0.002 A 
ATOM     23  C   UNL     1      -1.179  -2.097   0.002  0.00  0.00    +0.059 A 
ATOM     24  C   UNL     1      -1.196  -0.715   0.010  0.00  0.00    +0.162 A 
BRANCH  24  25
ATOM     25  O   UNL     1      -2.382  -0.050   0.025  0.00  0.00    -0.491 OA
ATOM     26  C   UNL     1      -3.571  -0.842   0.033  0.00  0.00    +0.277 C 
ENDBRANCH  24  25
BRANCH  19  27
ATOM     27  O   UNL     1      -0.016   1.355   0.009  0.00  0.00    -0.488 OA
BRANCH  27  28
ATOM     28  C   UNL     1       1.248   2.021   0.001  0.00  0.00    +0.229 C 
BRANCH  28  29
ATOM     29  C   UNL     1       1.027   3.535   0.011  0.00  0.00    +0.041 C 
BRANCH  29  31
ATOM     30  C   UNL     1       2.159   5.762   0.012  0.00  0.00    +0.004 C 
ATOM     31  C   UNL     1       2.381   4.248   0.002  0.00  0.00    -0.000 C 
ENDBRANCH  29  31
ENDBRANCH  28  29
ENDBRANCH  27  28
ENDBRANCH  19  27
ENDBRANCH  17  22
ENDBRANCH   1  18
TORSDOF 9
