REMARK  Name = ZINC02432170
REMARK  5 active torsions:
REMARK  status: ('A' for Active; 'I' for Inactive)
REMARK    1  A    between atoms: C_1  and  C_2
REMARK    2  A    between atoms: C_5  and  C_8
REMARK    3  A    between atoms: C_8  and  C_10
REMARK    4  A    between atoms: C_10  and  S_11
REMARK    5  A    between atoms: S_11  and  C_12
REMARK                            x       y       z     vdW  Elec       q    Type
REMARK                         _______ _______ _______ _____ _____    ______ ____
ROOT
ATOM      1  C   UNL     1      -7.217  -0.056  -1.848  0.00  0.00    +0.199 A 
ATOM      2  N   UNL     1      -6.302  -0.081  -2.789  0.00  0.00    -0.122 NA
ATOM      3  N   UNL     1      -5.145   0.200  -2.296  0.00  0.00    -0.128 NA
ATOM      4  C   UNL     1      -5.256   0.420  -1.009  0.00  0.00    +0.174 A 
ATOM      5  N   UNL     1      -6.584   0.264  -0.677  0.00  0.00    -0.241 N 
ATOM      6  C   UNL     1      -7.001   0.434   0.616  0.00  0.00    +0.202 A 
ATOM      7  N   UNL     1      -6.156   0.749   1.568  0.00  0.00    -0.208 NA
ATOM      8  C   UNL     1      -4.856   0.919   1.337  0.00  0.00    +0.116 A 
ATOM      9  C   UNL     1      -4.297   0.775   0.059  0.00  0.00    +0.056 A 
ATOM     10  C   UNL     1      -2.856   0.994  -0.039  0.00  0.00    -0.024 A 
ATOM     11  C   UNL     1      -2.205   1.312   1.101  0.00  0.00    -0.004 A 
ATOM     12  S   UNL     1      -3.460   1.337   2.352  0.00  0.00    -0.073 S 
ATOM     13  C   UNL     1      -0.738   1.584   1.267  0.00  0.00    +0.043 C 
ATOM     14  C   UNL     1      -0.013   1.086   0.008  0.00  0.00    +0.005 C 
ATOM     15  C   UNL     1      -0.759   1.596  -1.228  0.00  0.00    +0.005 C 
ATOM     16  C   UNL     1      -2.101   0.874  -1.360  0.00  0.00    +0.037 C 
ATOM     17  N   UNL     1      -8.332   0.272   0.922  0.00  0.00    -0.328 N 
ATOM     18  H   UNL     1      -8.965   0.039   0.225  0.00  0.00    +0.145 HD
ATOM     19  H   UNL     1      -8.638   0.390   1.835  0.00  0.00    +0.145 HD
ENDROOT
BRANCH   1  20
ATOM     20  S   UNL     1      -8.937  -0.376  -2.053  0.00  0.00    -0.078 S 
BRANCH  20  21
ATOM     21  C   UNL     1      -9.109  -0.731  -3.824  0.00  0.00    +0.157 C 
BRANCH  21  22
ATOM     22  C   UNL     1     -10.553  -1.026  -4.139  0.00  0.00    +0.173 C 
ATOM     23  O   UNL     1     -11.384  -0.999  -3.257  0.00  0.00    -0.291 OA
BRANCH  22  28
ATOM     24  C   UNL     1     -12.121  -2.276  -9.527  0.00  0.00    +0.044 C 
ATOM     25  C   UNL     1     -11.710  -1.948  -8.114  0.00  0.00    -0.050 A 
ATOM     26  C   UNL     1     -12.661  -1.919  -7.110  0.00  0.00    +0.004 A 
ATOM     27  C   UNL     1     -12.293  -1.620  -5.815  0.00  0.00    +0.011 A 
ATOM     28  C   UNL     1     -10.954  -1.346  -5.518  0.00  0.00    +0.018 A 
ATOM     29  C   UNL     1     -10.000  -1.372  -6.540  0.00  0.00    +0.011 A 
ATOM     30  C   UNL     1     -10.383  -1.678  -7.829  0.00  0.00    +0.004 A 
ENDBRANCH  22  28
ENDBRANCH  21  22
ENDBRANCH  20  21
ENDBRANCH   1  20
TORSDOF 4
