REMARK  Name = ZINC13129696
REMARK  6 active torsions:
REMARK  status: ('A' for Active; 'I' for Inactive)
REMARK    1  A    between atoms: C_12  and  S_14
REMARK    2  A    between atoms: S_14  and  C_15
REMARK    3  A    between atoms: C_15  and  C_16
REMARK    4  A    between atoms: N_18  and  C_19
REMARK    5  A    between atoms: C_22  and  O_25
REMARK    6  A    between atoms: O_25  and  C_26
REMARK                            x       y       z     vdW  Elec       q    Type
REMARK                         _______ _______ _______ _____ _____    ______ ____
ROOT
ATOM      1  S   UNL     1       4.126  -4.821  -0.398  0.00  0.00    -0.075 S 
ENDROOT
BRANCH   1  13
ATOM      2  C   UNL     1       6.998 -12.855   0.075  0.00  0.00    +0.002 A 
ATOM      3  C   UNL     1       5.829 -13.590   0.133  0.00  0.00    +0.001 A 
ATOM      4  C   UNL     1       4.618 -12.981  -0.141  0.00  0.00    +0.017 A 
ATOM      5  C   UNL     1       4.574 -11.634  -0.474  0.00  0.00    +0.035 A 
ATOM      6  C   UNL     1       5.750 -10.892  -0.537  0.00  0.00    +0.046 A 
ATOM      7  C   UNL     1       6.962 -11.515  -0.257  0.00  0.00    +0.024 A 
ATOM      8  N   UNL     1       5.754  -9.540  -0.873  0.00  0.00    -0.296 N 
ATOM      9  C   UNL     1       4.682  -8.688  -0.739  0.00  0.00    +0.160 A 
ATOM     10  C   UNL     1       3.361  -9.152  -0.701  0.00  0.00    +0.164 A 
ATOM     11  N   UNL     1       2.369  -8.285  -0.578  0.00  0.00    -0.137 NA
ATOM     12  N   UNL     1       2.613  -7.024  -0.492  0.00  0.00    -0.121 NA
ATOM     13  C   UNL     1       3.851  -6.557  -0.522  0.00  0.00    +0.212 A 
ATOM     14  N   UNL     1       4.890  -7.376  -0.650  0.00  0.00    -0.203 NA
ATOM     15  S   UNL     1       3.020 -10.875  -0.812  0.00  0.00    -0.063 S 
ATOM     16  H   UNL     1       6.577  -9.171  -1.229  0.00  0.00    +0.154 HD
ENDBRANCH   1  13
BRANCH   1  17
ATOM     17  C   UNL     1       2.417  -4.241  -0.258  0.00  0.00    +0.173 C 
BRANCH  17  18
ATOM     18  C   UNL     1       2.405  -2.739  -0.137  0.00  0.00    +0.227 C 
ATOM     19  O   UNL     1       3.449  -2.122  -0.144  0.00  0.00    -0.275 OA
ATOM     20  N   UNL     1       1.234  -2.083  -0.020  0.00  0.00    -0.285 N 
ATOM     21  H   UNL     1       0.405  -2.580   0.062  0.00  0.00    +0.155 HD
BRANCH  20  22
ATOM     22  C   UNL     1       1.213  -0.681  -0.019  0.00  0.00    +0.034 A 
ATOM     23  C   UNL     1       2.138   0.027  -0.775  0.00  0.00    +0.027 A 
ATOM     24  C   UNL     1       2.117   1.408  -0.773  0.00  0.00    +0.048 A 
ATOM     25  C   UNL     1       1.173   2.087  -0.017  0.00  0.00    +0.130 A 
ATOM     26  C   UNL     1       0.249   1.379   0.739  0.00  0.00    +0.048 A 
ATOM     27  C   UNL     1       0.269  -0.001   0.738  0.00  0.00    +0.027 A 
BRANCH  25  28
ATOM     28  O   UNL     1       1.153   3.446  -0.015  0.00  0.00    -0.406 OA
BRANCH  28  29
ATOM     29  C   UNL     1       0.154   4.080   0.786  0.00  0.00    +0.575 C 
ATOM     30  F   UNL     1       0.322   3.705   2.123  0.00  0.00    -0.133 F 
ATOM     31  F   UNL     1       0.276   5.469   0.672  0.00  0.00    -0.133 F 
ATOM     32  F   UNL     1      -1.115   3.686   0.347  0.00  0.00    -0.133 F 
ENDBRANCH  28  29
ENDBRANCH  25  28
ENDBRANCH  20  22
ENDBRANCH  17  18
ENDBRANCH   1  17
TORSDOF 6
