REMARK  Name = ZINC00512633
REMARK  4 active torsions:
REMARK  status: ('A' for Active; 'I' for Inactive)
REMARK    1  A    between atoms: C_6  and  C_7
REMARK    2  A    between atoms: C_8  and  C_9
REMARK    3  A    between atoms: N_11  and  C_12
REMARK    4  A    between atoms: C_13  and  C_21
REMARK                            x       y       z     vdW  Elec       q    Type
REMARK                         _______ _______ _______ _____ _____    ______ ____
ROOT
ATOM      1  C   UNL     1      -2.520   4.083   0.036  0.00  0.00    +0.085 A 
ATOM      2  C   UNL     1      -2.741   5.453   0.050  0.00  0.00    +0.068 A 
ATOM      3  C   UNL     1      -4.121   5.910   0.054  0.00  0.00    -0.023 A 
ATOM      4  C   UNL     1      -5.051   4.931   0.054  0.00  0.00    -0.004 A 
ATOM      5  S   UNL     1      -4.122   3.424   0.041  0.00  0.00    -0.077 S 
ATOM      6  C   UNL     1      -6.539   5.098   0.063  0.00  0.00    +0.043 C 
ATOM      7  C   UNL     1      -6.860   6.549   0.451  0.00  0.00    +0.005 C 
ATOM      8  C   UNL     1      -5.986   7.488  -0.385  0.00  0.00    +0.005 C 
ATOM      9  C   UNL     1      -4.527   7.378   0.064  0.00  0.00    +0.037 C 
ENDROOT
BRANCH   2  10
ATOM     10  C   UNL     1      -1.626   6.404   0.057  0.00  0.00    +0.244 C 
ATOM     11  O   UNL     1      -1.165   6.809  -0.994  0.00  0.00    -0.270 OA
ATOM     12  N   UNL     1      -1.109   6.829   1.227  0.00  0.00    -0.325 N 
ATOM     13  H   UNL     1      -1.476   6.506   2.065  0.00  0.00    +0.145 HD
ATOM     14  H   UNL     1      -0.371   7.458   1.232  0.00  0.00    +0.145 HD
ENDBRANCH   2  10
BRANCH   1  17
ATOM     15  C   UNL     1      -1.293   2.059   0.019  0.00  0.00    +0.241 C 
ATOM     16  O   UNL     1      -2.338   1.436   0.021  0.00  0.00    -0.270 OA
ATOM     17  N   UNL     1      -1.311   3.407   0.027  0.00  0.00    -0.276 N 
ATOM     18  H   UNL     1      -0.478   3.903   0.025  0.00  0.00    +0.156 HD
BRANCH  15  20
ATOM     19  C   UNL     1       0.002  -0.004   0.002  0.00  0.00    +0.013 C 
ATOM     20  C   UNL     1      -0.016   1.345   0.009  0.00  0.00    +0.068 C 
BRANCH  19  26
ATOM     21  C   UNL     1       2.489  -0.009  -0.028  0.00  0.00    +0.011 A 
ATOM     22  C   UNL     1       3.688  -0.688  -0.039  0.00  0.00    +0.039 A 
ATOM     23  C   UNL     1       3.704  -2.075  -0.046  0.00  0.00    +0.123 A 
ATOM     24  C   UNL     1       2.514  -2.787  -0.037  0.00  0.00    +0.039 A 
ATOM     25  C   UNL     1       1.308  -2.121  -0.022  0.00  0.00    +0.011 A 
ATOM     26  C   UNL     1       1.286  -0.722  -0.014  0.00  0.00    -0.025 A 
ATOM     27  F   UNL     1       4.883  -2.734  -0.062  0.00  0.00    -0.205 F 
ENDBRANCH  19  26
ENDBRANCH  15  20
ENDBRANCH   1  17
TORSDOF 4
