REMARK  Name = ZINC59331553
REMARK  10 active torsions:
REMARK  status: ('A' for Active; 'I' for Inactive)
REMARK    1  A    between atoms: C_1  and  C_2
REMARK    2  A    between atoms: C_2  and  C_3
REMARK    3  A    between atoms: C_10  and  C_12
REMARK    4  A    between atoms: C_14  and  N_19
REMARK    5  A    between atoms: C_17  and  O_18
REMARK    6  A    between atoms: N_19  and  C_20
REMARK    7  A    between atoms: C_20  and  N_22
REMARK    8  A    between atoms: C_23  and  C_25
REMARK    9  A    between atoms: C_30  and  O_31
REMARK   10  A    between atoms: O_31  and  C_32
REMARK                            x       y       z     vdW  Elec       q    Type
REMARK                         _______ _______ _______ _____ _____    ______ ____
ROOT
ATOM      1  C   UNL     1       5.374  -2.014  -4.662  0.00  0.00    +0.080 A 
ATOM      2  C   UNL     1       5.349  -2.397  -6.004  0.00  0.00    +0.040 A 
ATOM      3  C   UNL     1       6.451  -3.022  -6.564  0.00  0.00    +0.034 A 
ATOM      4  C   UNL     1       7.581  -3.267  -5.791  0.00  0.00    +0.027 A 
ATOM      5  C   UNL     1       7.612  -2.890  -4.463  0.00  0.00    +0.048 A 
ATOM      6  C   UNL     1       6.518  -2.259  -3.892  0.00  0.00    +0.129 A 
ENDROOT
BRANCH   1  14
ATOM      7  C   UNL     1       1.010   0.704  -1.626  0.00  0.00    -0.045 A 
ATOM      8  C   UNL     1       0.334   0.624  -2.835  0.00  0.00    +0.007 A 
ATOM      9  C   UNL     1       0.933   0.047  -3.935  0.00  0.00    +0.049 A 
ATOM     10  C   UNL     1       2.220  -0.458  -3.836  0.00  0.00    +0.156 A 
ATOM     11  C   UNL     1       2.909  -0.379  -2.614  0.00  0.00    +0.110 A 
ATOM     12  C   UNL     1       2.290   0.213  -1.510  0.00  0.00    +0.035 A 
ATOM     13  N   UNL     1       4.127  -0.945  -2.815  0.00  0.00    -0.209 NA
ATOM     14  C   UNL     1       4.203  -1.348  -4.059  0.00  0.00    +0.232 A 
ATOM     15  O   UNL     1       3.057  -1.065  -4.707  0.00  0.00    -0.435 OA
BRANCH   7  17
ATOM     16  C   UNL     1       0.641   2.838  -0.417  0.00  0.00    +0.009 C 
ATOM     17  C   UNL     1       0.340   1.338  -0.434  0.00  0.00    +0.032 C 
ENDBRANCH   7  17
ENDBRANCH   1  14
BRANCH   6  18
ATOM     18  O   UNL     1       6.553  -1.885  -2.587  0.00  0.00    -0.506 OA
ATOM     19  H   UNL     1       6.237  -2.563  -1.975  0.00  0.00    +0.292 HD
ENDBRANCH   6  18
BRANCH   3  20
ATOM     20  N   UNL     1       6.427  -3.407  -7.910  0.00  0.00    -0.297 N 
ATOM     21  H   UNL     1       6.790  -4.267  -8.175  0.00  0.00    +0.154 HD
BRANCH  20  22
ATOM     22  C   UNL     1       5.900  -2.583  -8.838  0.00  0.00    +0.141 C 
ATOM     23  S   UNL     1       5.389  -1.011  -8.395  0.00  0.00    -0.018 S 
BRANCH  22  24
ATOM     24  N   UNL     1       5.776  -2.998 -10.114  0.00  0.00    -0.263 N 
ATOM     25  C   UNL     1       5.249  -2.175 -11.042  0.00  0.00    +0.253 C 
ATOM     26  O   UNL     1       4.886  -1.058 -10.727  0.00  0.00    -0.270 OA
ATOM     27  H   UNL     1       6.065  -3.889 -10.365  0.00  0.00    +0.157 HD
BRANCH  25  28
ATOM     28  C   UNL     1       5.112  -2.628 -12.438  0.00  0.00    +0.081 A 
ATOM     29  C   UNL     1       5.523  -3.913 -12.803  0.00  0.00    +0.036 A 
ATOM     30  C   UNL     1       5.392  -4.332 -14.110  0.00  0.00    +0.043 A 
ATOM     31  C   UNL     1       4.855  -3.483 -15.066  0.00  0.00    +0.043 A 
ATOM     32  C   UNL     1       4.446  -2.210 -14.718  0.00  0.00    +0.085 A 
ATOM     33  C   UNL     1       4.565  -1.775 -13.406  0.00  0.00    +0.150 A 
ATOM     34 CL   UNL     1       3.775  -1.156 -15.924  0.00  0.00    -0.080 Cl
ATOM     35 CL   UNL     1       5.903  -5.928 -14.561  0.00  0.00    -0.083 Cl
BRANCH  33  36
ATOM     36  O   UNL     1       4.158  -0.527 -13.062  0.00  0.00    -0.493 OA
ATOM     37  C   UNL     1       5.126   0.520 -13.158  0.00  0.00    +0.277 C 
ENDBRANCH  33  36
ENDBRANCH  25  28
ENDBRANCH  22  24
ENDBRANCH  20  22
ENDBRANCH   3  20
TORSDOF 8
