REMARK  Name = ZINC59039028
REMARK  11 active torsions:
REMARK  status: ('A' for Active; 'I' for Inactive)
REMARK    1  A    between atoms: C_1  and  C_2
REMARK    2  A    between atoms: C_2  and  C_4
REMARK    3  A    between atoms: C_2  and  N_11
REMARK    4  A    between atoms: N_6  and  C_7
REMARK    5  A    between atoms: C_7  and  C_8
REMARK    6  A    between atoms: C_7  and  C_9
REMARK    7  A    between atoms: C_7  and  C_10
REMARK    8  A    between atoms: N_14  and  C_17
REMARK    9  A    between atoms: C_17  and  C_18
REMARK   10  A    between atoms: C_21  and  C_23
REMARK   11  A    between atoms: C_28  and  N_29
REMARK                            x       y       z     vdW  Elec       q    Type
REMARK                         _______ _______ _______ _____ _____    ______ ____
ROOT
ATOM      1  N   UNL     1      -1.267  -0.587  -0.453  0.00  0.00    -0.289 NA
ATOM      2  C   UNL     1      -1.210  -2.055  -0.433  0.00  0.00    +0.100 C 
ATOM      3  C   UNL     1      -2.519  -2.621  -0.987  0.00  0.00    +0.100 C 
ATOM      4  N   UNL     1      -3.644  -2.130  -0.179  0.00  0.00    -0.295 NA
ATOM      5  C   UNL     1      -3.701  -0.661  -0.200  0.00  0.00    +0.100 C 
ATOM      6  C   UNL     1      -2.392  -0.095   0.355  0.00  0.00    +0.100 C 
ENDROOT
BRANCH   1   8
ATOM      7  C   UNL     1       0.101  -0.123   1.524  0.00  0.00    +0.034 C 
ATOM      8  C   UNL     1       0.002  -0.004   0.002  0.00  0.00    +0.140 C 
BRANCH   8   9
ATOM      9  C   UNL     1       0.058   1.449  -0.393  0.00  0.00    +0.230 C 
ATOM     10  O   UNL     1      -0.952   2.021  -0.745  0.00  0.00    -0.274 OA
ATOM     11  N   UNL     1       1.230   2.113  -0.354  0.00  0.00    -0.309 N 
ATOM     12  H   UNL     1       2.038   1.656  -0.073  0.00  0.00    +0.149 HD
BRANCH  11  13
ATOM     13  C   UNL     1       1.284   3.526  -0.738  0.00  0.00    +0.026 C 
ATOM     14  C   UNL     1       0.369   4.339   0.179  0.00  0.00    +0.031 C 
ATOM     15  C   UNL     1       2.721   4.036  -0.606  0.00  0.00    +0.031 C 
ATOM     16  C   UNL     1       0.820   3.679  -2.188  0.00  0.00    +0.031 C 
ENDBRANCH  11  13
ENDBRANCH   8   9
ENDBRANCH   1   8
BRANCH   4  17
ATOM     17  C   UNL     1      -4.914  -2.712  -0.634  0.00  0.00    +0.127 C 
BRANCH  17  18
ATOM     18  C   UNL     1      -6.000  -2.385   0.357  0.00  0.00    +0.004 A 
ATOM     19  C   UNL     1      -6.837  -1.316   0.385  0.00  0.00    +0.013 A 
ATOM     20  C   UNL     1      -7.767  -1.218   1.396  0.00  0.00    +0.016 A 
ATOM     21  C   UNL     1      -7.818  -2.206   2.342  0.00  0.00    +0.022 A 
ATOM     22  S   UNL     1      -6.525  -3.308   1.792  0.00  0.00    -0.092 S 
BRANCH  21  23
ATOM     23  C   UNL     1      -8.713  -2.331   3.512  0.00  0.00    +0.019 A 
ATOM     24  C   UNL     1      -8.876  -1.256   4.388  0.00  0.00    +0.011 A 
ATOM     25  C   UNL     1      -9.713  -1.379   5.477  0.00  0.00    +0.001 A 
ATOM     26  C   UNL     1     -10.390  -2.565   5.703  0.00  0.00    +0.002 A 
ATOM     27  C   UNL     1     -10.233  -3.634   4.839  0.00  0.00    +0.033 A 
ATOM     28  C   UNL     1      -9.403  -3.522   3.742  0.00  0.00    +0.134 A 
BRANCH  28  29
ATOM     29  N   UNL     1      -9.242  -4.664   2.814  0.00  0.00    +0.057 N 
ATOM     30  O   UNL     1      -9.840  -5.695   3.015  0.00  0.00    -0.126 OA
ATOM     31  O   UNL     1      -8.511  -4.566   1.856  0.00  0.00    -0.126 OA
ENDBRANCH  28  29
ENDBRANCH  21  23
ENDBRANCH  17  18
ENDBRANCH   4  17
TORSDOF 7
