REMARK  Name = ZINC00259025
REMARK  7 active torsions:
REMARK  status: ('A' for Active; 'I' for Inactive)
REMARK    1  A    between atoms: C_1  and  O_2
REMARK    2  A    between atoms: O_2  and  C_3
REMARK    3  A    between atoms: C_8  and  N_9
REMARK    4  A    between atoms: N_12  and  N_15
REMARK    5  A    between atoms: C_16  and  C_17
REMARK    6  A    between atoms: C_20  and  O_24
REMARK    7  A    between atoms: C_22  and  O_23
REMARK                            x       y       z     vdW  Elec       q    Type
REMARK                         _______ _______ _______ _____ _____    ______ ____
ROOT
ATOM      1  N   UNL     1      -0.072  -2.777  -0.001  0.00  0.00    -0.324 N 
ATOM      2  C   UNL     1       0.561  -3.201   1.255  0.00  0.00    +0.126 C 
ATOM      3  C   UNL     1       0.733  -4.725   1.228  0.00  0.00    +0.144 C 
ATOM      4  N   UNL     1       1.361  -5.104  -0.045  0.00  0.00    -0.253 N 
ATOM      5  C   UNL     1       0.727  -4.680  -1.302  0.00  0.00    +0.144 C 
ATOM      6  C   UNL     1       0.553  -3.161  -1.274  0.00  0.00    +0.126 C 
ENDROOT
BRANCH   1  12
ATOM      7  C   UNL     1      -1.196  -0.635   0.033  0.00  0.00    +0.141 A 
ATOM      8  C   UNL     1      -2.368   0.103   0.043  0.00  0.00    +0.047 A 
ATOM      9  C   UNL     1      -3.591  -0.541   0.039  0.00  0.00    +0.004 A 
ATOM     10  C   UNL     1      -3.649  -1.922   0.026  0.00  0.00    +0.002 A 
ATOM     11  C   UNL     1      -2.485  -2.666   0.017  0.00  0.00    +0.027 A 
ATOM     12  C   UNL     1      -1.254  -2.026   0.015  0.00  0.00    +0.072 A 
BRANCH   7  14
ATOM     13  C   UNL     1      -0.010   1.427   0.057  0.00  0.00    +0.277 C 
ATOM     14  O   UNL     1       0.008  -0.002   0.037  0.00  0.00    -0.493 OA
ENDBRANCH   7  14
ENDBRANCH   1  12
BRANCH   4  15
ATOM     15  N   UNL     1       2.543  -5.856  -0.061  0.00  0.00    -0.192 NA
ATOM     16  C   UNL     1       3.030  -6.276  -1.188  0.00  0.00    +0.141 C 
BRANCH  16  17
ATOM     17  C   UNL     1       4.212  -7.157  -1.198  0.00  0.00    +0.036 A 
ATOM     18  C   UNL     1       4.742  -7.606  -2.410  0.00  0.00    +0.016 A 
ATOM     19  C   UNL     1       5.846  -8.430  -2.414  0.00  0.00    +0.046 A 
ATOM     20  C   UNL     1       6.436  -8.816  -1.217  0.00  0.00    +0.120 A 
ATOM     21  C   UNL     1       5.917  -8.375  -0.008  0.00  0.00    +0.091 A 
ATOM     22  C   UNL     1       4.812  -7.543   0.009  0.00  0.00    +0.129 A 
BRANCH  22  23
ATOM     23  O   UNL     1       4.306  -7.106   1.191  0.00  0.00    -0.506 OA
ATOM     24  H   UNL     1       3.632  -7.687   1.570  0.00  0.00    +0.292 HD
ENDBRANCH  22  23
BRANCH  20  25
ATOM     25  O   UNL     1       7.525  -9.629  -1.230  0.00  0.00    -0.507 OA
ATOM     26  H   UNL     1       8.368  -9.156  -1.266  0.00  0.00    +0.292 HD
ENDBRANCH  20  25
ENDBRANCH  16  17
ENDBRANCH   4  15
TORSDOF 6
