REMARK  Name = ZINC41074087
REMARK  5 active torsions:
REMARK  status: ('A' for Active; 'I' for Inactive)
REMARK    1  A    between atoms: C_1  and  C_2
REMARK    2  A    between atoms: C_5  and  N_8
REMARK    3  A    between atoms: C_14  and  C_19
REMARK    4  A    between atoms: C_19  and  C_20
REMARK    5  A    between atoms: C_19  and  C_21
REMARK                            x       y       z     vdW  Elec       q    Type
REMARK                         _______ _______ _______ _____ _____    ______ ____
ROOT
ATOM      1  N   UNL     1       0.059  -4.170  -0.021  0.00  0.00    -0.278 N 
ATOM      2  C   UNL     1       0.173  -4.860   1.169  0.00  0.00    +0.147 A 
ATOM      3  C   UNL     1       0.192  -6.323   1.165  0.00  0.00    +0.019 A 
ATOM      4  C   UNL     1       0.308  -7.006   2.377  0.00  0.00    +0.021 A 
ATOM      5  C   UNL     1       0.401  -6.247   3.552  0.00  0.00    +0.001 A 
ATOM      6  C   UNL     1       0.521  -6.878   4.806  0.00  0.00    +0.014 A 
ATOM      7  C   UNL     1       0.611  -6.123   5.934  0.00  0.00    -0.044 A 
ATOM      8  C   UNL     1       0.586  -4.731   5.866  0.00  0.00    +0.006 A 
ATOM      9  C   UNL     1       0.472  -4.088   4.673  0.00  0.00    +0.029 A 
ATOM     10  C   UNL     1       0.376  -4.830   3.481  0.00  0.00    +0.073 A 
ATOM     11  N   UNL     1       0.265  -4.201   2.307  0.00  0.00    -0.229 NA
ATOM     12  C   UNL     1       0.094  -7.027  -0.058  0.00  0.00    +0.028 A 
ATOM     13  C   UNL     1      -0.019  -6.308  -1.231  0.00  0.00    +0.083 A 
ATOM     14  C   UNL     1      -0.124  -6.972  -2.541  0.00  0.00    +0.263 A 
ATOM     15  O   UNL     1      -0.117  -8.185  -2.640  0.00  0.00    -0.267 OA
ATOM     16  N   UNL     1      -0.230  -6.178  -3.631  0.00  0.00    -0.273 N 
ATOM     17  H   UNL     1      -0.302  -6.581  -4.511  0.00  0.00    +0.174 HD
ATOM     18  C   UNL     1      -0.238  -4.842  -3.516  0.00  0.00    +0.350 A 
ATOM     19  O   UNL     1      -0.337  -4.180  -4.535  0.00  0.00    -0.245 OA
ATOM     20  N   UNL     1      -0.146  -4.195  -2.359  0.00  0.00    -0.174 NA
ATOM     21  C   UNL     1      -0.042  -4.843  -1.206  0.00  0.00    +0.157 A 
ENDROOT
BRANCH   1  26
ATOM     22  C   UNL     1      -0.016   1.503   0.012  0.00  0.00    +0.044 C 
ATOM     23  C   UNL     1       0.004  -0.004   0.003  0.00  0.00    -0.050 A 
ATOM     24  C   UNL     1      -1.181  -0.710   0.105  0.00  0.00    +0.005 A 
ATOM     25  C   UNL     1      -1.166  -2.091   0.098  0.00  0.00    +0.026 A 
ATOM     26  C   UNL     1       0.040  -2.771  -0.013  0.00  0.00    +0.050 A 
ATOM     27  C   UNL     1       1.228  -2.058  -0.116  0.00  0.00    +0.026 A 
ATOM     28  C   UNL     1       1.206  -0.677  -0.112  0.00  0.00    +0.005 A 
ENDBRANCH   1  26
BRANCH   7  29
ATOM     29  C   UNL     1       0.738  -6.800   7.274  0.00  0.00    +0.013 C 
ATOM     30  C   UNL     1       2.046  -6.369   7.941  0.00  0.00    +0.012 C 
ATOM     31  C   UNL     1      -0.443  -6.401   8.161  0.00  0.00    +0.012 C 
ENDBRANCH   7  29
TORSDOF 2
