REMARK  Name = ZINC00814353
REMARK  8 active torsions:
REMARK  status: ('A' for Active; 'I' for Inactive)
REMARK    1  A    between atoms: C_1  and  C_2
REMARK    2  A    between atoms: C_7  and  C_8
REMARK    3  A    between atoms: C_13  and  O_22
REMARK    4  A    between atoms: C_17  and  N_21
REMARK    5  A    between atoms: C_18  and  C_19
REMARK    6  A    between atoms: C_26  and  C_31
REMARK    7  A    between atoms: C_26  and  C_32
REMARK    8  A    between atoms: C_28  and  C_30
REMARK                            x       y       z     vdW  Elec       q    Type
REMARK                         _______ _______ _______ _____ _____    ______ ____
ROOT
ATOM      1  C   UNL     1      -0.883   6.120  -0.946  0.00  0.00    +0.044 C 
ATOM      2  C   UNL     1      -0.824   5.271   0.298  0.00  0.00    -0.047 A 
ATOM      3  C   UNL     1      -0.805   3.891   0.165  0.00  0.00    +0.009 A 
ATOM      4  C   UNL     1      -0.751   3.079   1.273  0.00  0.00    -0.022 A 
ATOM      5  C   UNL     1      -0.716   3.712   2.515  0.00  0.00    +0.045 A 
ATOM      6  C   UNL     1      -0.737   5.093   2.654  0.00  0.00    +0.002 A 
ATOM      7  C   UNL     1      -0.792   5.903   1.540  0.00  0.00    -0.041 A 
ATOM      8  C   UNL     1      -0.817   7.405   1.659  0.00  0.00    +0.044 C 
ATOM      9  C   UNL     1      -0.688   5.341   4.127  0.00  0.00    +0.142 C 
ATOM     10  C   UNL     1       0.552   6.104   4.502  0.00  0.00    +0.020 A 
ATOM     11  C   UNL     1       1.782   5.471   4.470  0.00  0.00    +0.012 A 
ATOM     12  C   UNL     1       2.928   6.160   4.811  0.00  0.00    +0.046 A 
ATOM     13  C   UNL     1       2.850   7.494   5.189  0.00  0.00    +0.120 A 
ATOM     14  C   UNL     1       1.620   8.130   5.222  0.00  0.00    +0.092 A 
ATOM     15  C   UNL     1       0.467   7.436   4.878  0.00  0.00    +0.138 A 
ATOM     16  O   UNL     1      -0.729   8.073   4.916  0.00  0.00    -0.441 OA
ATOM     17  C   UNL     1      -1.870   7.365   4.960  0.00  0.00    +0.199 C 
ATOM     18  C   UNL     1      -1.918   6.061   4.596  0.00  0.00    +0.110 C 
ATOM     19  C   UNL     1      -0.639   3.953   4.747  0.00  0.00    +0.241 C 
ATOM     20  O   UNL     1      -0.592   3.698   5.932  0.00  0.00    -0.274 OA
ATOM     21  N   UNL     1      -0.657   3.062   3.744  0.00  0.00    -0.264 N 
ATOM     22  C   UNL     1      -0.622   1.590   3.803  0.00  0.00    +0.037 C 
ATOM     23  C   UNL     1       0.011   1.069   2.507  0.00  0.00    +0.033 C 
ATOM     24  C   UNL     1      -0.729   1.579   1.267  0.00  0.00    +0.020 C 
ATOM     25  C   UNL     1      -0.013   1.086   0.008  0.00  0.00    +0.012 C 
ATOM     26  C   UNL     1      -2.045   1.045   3.936  0.00  0.00    +0.032 C 
ATOM     27  C   UNL     1       0.217   1.142   5.002  0.00  0.00    +0.032 C 
ENDROOT
BRANCH  17  28
ATOM     28  N   UNL     1      -3.020   7.982   5.385  0.00  0.00    -0.328 N 
ATOM     29  H   UNL     1      -3.001   8.915   5.649  0.00  0.00    +0.145 HD
ATOM     30  H   UNL     1      -3.852   7.484   5.423  0.00  0.00    +0.145 HD
ENDBRANCH  17  28
BRANCH  18  31
ATOM     31  C   UNL     1      -3.164   5.358   4.662  0.00  0.00    +0.102 C 
ATOM     32  N   UNL     1      -4.152   4.800   4.714  0.00  0.00    -0.191 NA
ENDBRANCH  18  31
BRANCH  13  33
ATOM     33  O   UNL     1       3.978   8.173   5.524  0.00  0.00    -0.507 OA
ATOM     34  H   UNL     1       4.407   8.615   4.779  0.00  0.00    +0.292 HD
ENDBRANCH  13  33
TORSDOF 3
