REMARK  Name = ZINC63492700
REMARK  5 active torsions:
REMARK  status: ('A' for Active; 'I' for Inactive)
REMARK    1  A    between atoms: C_1  and  C_2
REMARK    2  A    between atoms: C_2  and  C_3
REMARK    3  A    between atoms: C_3  and  C_5
REMARK    4  A    between atoms: C_3  and  N_6
REMARK    5  A    between atoms: C_9  and  C_15
REMARK                            x       y       z     vdW  Elec       q    Type
REMARK                         _______ _______ _______ _____ _____    ______ ____
ROOT
ATOM      1  C   UNL     1      -5.189   1.839   2.712  0.00  0.00    -0.003 C 
ATOM      2  C   UNL     1      -4.852   3.251   2.227  0.00  0.00    +0.097 C 
ATOM      3  C   UNL     1      -4.528   3.123   0.743  0.00  0.00    -0.041 C 
ATOM      4  C   UNL     1      -3.337   3.678   0.570  0.00  0.00    +0.000 A 
ATOM      5  C   UNL     1      -2.541   3.937  -0.640  0.00  0.00    +0.030 A 
ATOM      6  C   UNL     1      -1.328   4.522  -0.447  0.00  0.00    +0.042 A 
ATOM      7  C   UNL     1      -0.835   4.872   0.815  0.00  0.00    +0.022 A 
ATOM      8  C   UNL     1      -1.503   4.677   1.980  0.00  0.00    +0.027 A 
ATOM      9  C   UNL     1      -2.792   4.073   1.905  0.00  0.00    +0.043 A 
ATOM     10  N   UNL     1      -3.655   3.797   2.862  0.00  0.00    -0.379 N 
ATOM     11 CL   UNL     1      -0.342   4.852  -1.837  0.00  0.00    -0.084 Cl
ATOM     12  C   UNL     1      -5.444   2.384  -0.203  0.00  0.00    +0.014 C 
ATOM     13  C   UNL     1      -5.787   1.052   0.489  0.00  0.00    -0.077 C 
ATOM     14  N   UNL     1      -6.254   1.295   1.857  0.00  0.00    +0.386 N 
ATOM     15  H   UNL     1      -6.582   0.426   2.252  0.00  0.00    -0.085 HD
ATOM     16  H   UNL     1      -3.526   3.926   3.815  0.00  0.00    +0.160 HD
ATOM     17  H   UNL     1      -7.021   1.951   1.829  0.00  0.00    -0.085 HD
ENDROOT
BRANCH   1  21
ATOM     18  N   UNL     1      -2.396  -0.503   3.640  0.00  0.00    -0.285 N 
ATOM     19  C   UNL     1      -3.492   0.274   3.747  0.00  0.00    +0.260 A 
ATOM     20  O   UNL     1      -4.068   0.379   4.816  0.00  0.00    -0.267 OA
ATOM     21  C   UNL     1      -3.965   0.964   2.617  0.00  0.00    +0.070 A 
ATOM     22  C   UNL     1      -3.302   0.830   1.433  0.00  0.00    +0.257 A 
ATOM     23  N   UNL     1      -2.191   0.029   1.369  0.00  0.00    -0.302 N 
ATOM     24  C   UNL     1      -1.752  -0.618   2.464  0.00  0.00    +0.164 A 
ATOM     25  S   UNL     1      -0.359  -1.607   2.359  0.00  0.00    -0.013 S 
ATOM     26  O   UNL     1      -3.735   1.482   0.333  0.00  0.00    -0.267 OA
ATOM     27  H   UNL     1      -1.716  -0.070   0.529  0.00  0.00    +0.171 HD
BRANCH  18  28
ATOM     28  C   UNL     1      -1.899  -1.224   4.815  0.00  0.00    +0.089 C 
ATOM     29  C   UNL     1      -2.982  -2.178   5.324  0.00  0.00    +0.031 C 
BRANCH  28  31
ATOM     30  C   UNL     1      -0.405   0.680   5.434  0.00  0.00    +0.006 C 
ATOM     31  C   UNL     1      -1.542  -0.223   5.915  0.00  0.00    +0.021 C 
ENDBRANCH  28  31
ENDBRANCH  18  28
ENDBRANCH   1  21
TORSDOF 3
