REMARK  Name = ZINC12362325
REMARK  10 active torsions:
REMARK  status: ('A' for Active; 'I' for Inactive)
REMARK    1  A    between atoms: C_1  and  C_2
REMARK    2  A    between atoms: C_2  and  C_16
REMARK    3  A    between atoms: N_3  and  N_4
REMARK    4  A    between atoms: C_5  and  C_7
REMARK    5  A    between atoms: C_7  and  O_8
REMARK    6  A    between atoms: O_8  and  C_9
REMARK    7  A    between atoms: C_16  and  C_17
REMARK    8  A    between atoms: N_19  and  C_20
REMARK    9  A    between atoms: C_25  and  N_26
REMARK   10  A    between atoms: C_27  and  C_29
REMARK                            x       y       z     vdW  Elec       q    Type
REMARK                         _______ _______ _______ _____ _____    ______ ____
ROOT
ATOM      1  C   UNL     1      -0.807   3.072   1.540  0.00  0.00    +0.063 C 
ATOM      2  C   UNL     1      -0.734   1.596   1.245  0.00  0.00    +0.043 C 
ATOM      3  N   UNL     1      -1.273   0.756   2.046  0.00  0.00    -0.189 NA
ENDROOT
BRANCH   3   4
ATOM      4  N   UNL     1      -1.932   1.209   3.196  0.00  0.00    -0.204 N 
ATOM      5  C   UNL     1      -2.500   0.324   4.040  0.00  0.00    +0.270 C 
ATOM      6  O   UNL     1      -2.441  -0.864   3.803  0.00  0.00    -0.270 OA
ATOM      7  H   UNL     1      -1.980   2.159   3.386  0.00  0.00    +0.177 HD
BRANCH   5   8
ATOM      8  C   UNL     1      -3.209   0.811   5.277  0.00  0.00    +0.326 C 
BRANCH   8   9
ATOM      9  O   UNL     1      -3.723  -0.308   6.003  0.00  0.00    -0.483 OA
BRANCH   9  10
ATOM     10  C   UNL     1      -4.395  -0.041   7.154  0.00  0.00    +0.121 A 
ATOM     11  C   UNL     1      -4.552   1.271   7.578  0.00  0.00    +0.047 A 
ATOM     12  C   UNL     1      -5.240   1.540   8.745  0.00  0.00    +0.019 A 
ATOM     13  C   UNL     1      -5.764   0.503   9.496  0.00  0.00    +0.018 A 
ATOM     14  C   UNL     1      -5.604  -0.806   9.077  0.00  0.00    +0.019 A 
ATOM     15  C   UNL     1      -4.921  -1.079   7.908  0.00  0.00    +0.047 A 
ATOM     16 BR   UNL     1      -6.700   0.875  11.096  0.00  0.00    -0.050 Br
ENDBRANCH   9  10
ENDBRANCH   8   9
ENDBRANCH   5   8
ENDBRANCH   3   4
BRANCH   2  17
ATOM     17  C   UNL     1      -0.025   1.109   0.007  0.00  0.00    +0.148 C 
BRANCH  17  18
ATOM     18  C   UNL     1      -0.761   1.591  -1.216  0.00  0.00    +0.223 C 
ATOM     19  O   UNL     1      -1.763   2.264  -1.095  0.00  0.00    -0.275 OA
ATOM     20  N   UNL     1      -0.306   1.275  -2.445  0.00  0.00    -0.284 N 
ATOM     21  H   UNL     1       0.529   0.792  -2.543  0.00  0.00    +0.155 HD
BRANCH  20  22
ATOM     22  C   UNL     1      -1.041   1.642  -3.579  0.00  0.00    +0.055 A 
ATOM     23  C   UNL     1      -1.751   2.834  -3.592  0.00  0.00    +0.025 A 
ATOM     24  C   UNL     1      -2.471   3.197  -4.715  0.00  0.00    +0.002 A 
ATOM     25  C   UNL     1      -2.495   2.370  -5.823  0.00  0.00    +0.002 A 
ATOM     26  C   UNL     1      -1.795   1.179  -5.817  0.00  0.00    +0.025 A 
ATOM     27  C   UNL     1      -1.065   0.809  -4.697  0.00  0.00    +0.055 A 
BRANCH  27  28
ATOM     28  N   UNL     1      -0.355  -0.399  -4.688  0.00  0.00    -0.284 N 
ATOM     29  C   UNL     1       0.217  -0.852  -5.821  0.00  0.00    +0.214 C 
ATOM     30  O   UNL     1       0.050  -0.258  -6.864  0.00  0.00    -0.276 OA
ATOM     31  C   UNL     1       1.065  -2.098  -5.790  0.00  0.00    +0.109 C 
ATOM     32  H   UNL     1      -0.276  -0.908  -3.866  0.00  0.00    +0.155 HD
ENDBRANCH  27  28
ENDBRANCH  20  22
ENDBRANCH  17  18
ENDBRANCH   2  17
TORSDOF 8
