REMARK  Name = ZINC04161811
REMARK  11 active torsions:
REMARK  status: ('A' for Active; 'I' for Inactive)
REMARK    1  A    between atoms: C_1  and  C_2
REMARK    2  A    between atoms: C_2  and  C_3
REMARK    3  A    between atoms: C_3  and  C_4
REMARK    4  A    between atoms: C_3  and  C_5
REMARK    5  A    between atoms: C_3  and  N_6
REMARK    6  A    between atoms: C_7  and  C_11
REMARK    7  A    between atoms: C_11  and  C_13
REMARK    8  A    between atoms: C_11  and  N_65
REMARK    9  A    between atoms: C_17  and  C_26
REMARK   10  A    between atoms: C_19  and  C_25
REMARK   11  A    between atoms: C_30  and  C_33
REMARK                            x       y       z     vdW  Elec       q    Type
REMARK                         _______ _______ _______ _____ _____    ______ ____
ROOT
ATOM      1  C   UNL     1       0.469   1.208   5.093  0.00  0.00    +0.039 C 
ENDROOT
BRANCH   1   2
ATOM      2  C   UNL     1       1.820   1.855   5.264  0.00  0.00    +0.011 A 
ATOM      3  C   UNL     1       2.901   1.092   5.558  0.00  0.00    +0.017 A 
ATOM      4  C   UNL     1       4.200   1.750   5.713  0.00  0.00    -0.001 A 
ATOM      5  C   UNL     1       5.353   1.015   6.011  0.00  0.00    +0.013 A 
ATOM      6  C   UNL     1       6.548   1.660   6.154  0.00  0.00    -0.050 A 
ATOM      7  C   UNL     1       6.630   3.038   6.006  0.00  0.00    +0.008 A 
ATOM      8  C   UNL     1       5.508   3.782   5.712  0.00  0.00    -0.026 A 
ATOM      9  C   UNL     1       4.279   3.147   5.562  0.00  0.00    +0.052 A 
ATOM     10  N   UNL     1       3.140   3.866   5.268  0.00  0.00    -0.322 N 
ATOM     11  H   UNL     1       3.198   4.859   5.161  0.00  0.00    +0.169 HD
ATOM     12  C   UNL     1       1.953   3.253   5.122  0.00  0.00    +0.251 A 
ATOM     13  O   UNL     1       0.967   3.920   4.862  0.00  0.00    -0.268 OA
ATOM     14  C   UNL     1       5.611   5.277   5.554  0.00  0.00    +0.046 C 
ATOM     15  C   UNL     1       7.790   0.868   6.476  0.00  0.00    +0.044 C 
ENDBRANCH   1   2
BRANCH   1  22
ATOM     16  C   UNL     1      -1.449   1.048   3.625  0.00  0.00    -0.077 C 
ATOM     17  C   UNL     1      -2.052   1.572   2.320  0.00  0.00    -0.018 C 
ATOM     18  C   UNL     1      -1.171   1.136   1.145  0.00  0.00    -0.001 C 
ATOM     19  C   UNL     1       0.251   1.661   1.361  0.00  0.00    -0.031 C 
ATOM     20  C   UNL     1       0.787   1.133   2.695  0.00  0.00    -0.074 C 
ATOM     21  C   UNL     1       1.152   1.179   0.222  0.00  0.00    +0.005 C 
ATOM     22  N   UNL     1      -0.091   1.608   3.786  0.00  0.00    +0.389 N 
ATOM     23  H   UNL     1      -0.146   2.633   3.746  0.00  0.00    -0.080 HD
ENDBRANCH   1  22
BRANCH   1  25
ATOM     24  N   UNL     1      -0.930   0.946   7.210  0.00  0.00    -0.225 N 
ATOM     25  C   UNL     1      -0.455   1.680   6.186  0.00  0.00    +0.143 A 
ATOM     26  N   UNL     1      -0.958   2.883   6.321  0.00  0.00    -0.115 NA
ATOM     27  N   UNL     1      -1.698   2.889   7.375  0.00  0.00    -0.023 NA
ATOM     28  N   UNL     1      -1.681   1.722   7.917  0.00  0.00    -0.043 NA
BRANCH  24  29
ATOM     29  C   UNL     1      -0.644  -0.466   7.474  0.00  0.00    +0.061 C 
ATOM     30  C   UNL     1      -1.177  -1.319   6.321  0.00  0.00    +0.036 C 
ATOM     31  C   UNL     1       0.868  -0.666   7.600  0.00  0.00    +0.036 C 
BRANCH  29  33
ATOM     32  C   UNL     1      -1.026  -2.364   9.053  0.00  0.00    +0.006 C 
ATOM     33  C   UNL     1      -1.324  -0.889   8.778  0.00  0.00    +0.026 C 
ENDBRANCH  29  33
ENDBRANCH  24  29
ENDBRANCH   1  25
TORSDOF 5
