REMARK  Name = ZINC01374324
REMARK  16 active torsions:
REMARK  status: ('A' for Active; 'I' for Inactive)
REMARK    1  A    between atoms: C_1  and  C_2
REMARK    2  A    between atoms: C_2  and  C_3
REMARK    3  A    between atoms: C_3  and  C_5
REMARK    4  A    between atoms: C_3  and  N_16
REMARK    5  A    between atoms: N_9  and  C_10
REMARK    6  A    between atoms: C_10  and  C_11
REMARK    7  A    between atoms: N_16  and  C_17
REMARK    8  A    between atoms: N_16  and  C_29
REMARK    9  A    between atoms: C_17  and  C_18
REMARK   10  A    between atoms: C_18  and  C_19
REMARK   11  A    between atoms: C_22  and  O_27
REMARK   12  A    between atoms: C_23  and  O_25
REMARK   13  A    between atoms: O_25  and  C_26
REMARK   14  A    between atoms: O_27  and  C_28
REMARK   15  A    between atoms: C_29  and  C_30
REMARK   16  A    between atoms: C_35  and  C_42
REMARK                            x       y       z     vdW  Elec       q    Type
REMARK                         _______ _______ _______ _____ _____    ______ ____
ROOT
ATOM      1  N   UNL     1      -2.435  -0.817   2.134  0.00  0.00    +0.389 N 
ATOM      2  H   UNL     1      -1.717  -1.322   2.632  0.00  0.00    -0.080 HD
ENDROOT
BRANCH   1   3
ATOM      3  C   UNL     1      -1.824  -0.049   1.041  0.00  0.00    +0.003 C 
BRANCH   3   4
ATOM      4  C   UNL     1      -2.874   0.809   0.383  0.00  0.00    +0.139 A 
ATOM      5  N   UNL     1      -4.137   0.506   0.211  0.00  0.00    -0.115 NA
ATOM      6  N   UNL     1      -4.706   1.495  -0.388  0.00  0.00    -0.023 NA
ATOM      7  N   UNL     1      -3.837   2.421  -0.604  0.00  0.00    -0.044 NA
ATOM      8  N   UNL     1      -2.697   2.038  -0.138  0.00  0.00    -0.223 N 
BRANCH   8   9
ATOM      9  C   UNL     1      -1.444   2.796  -0.173  0.00  0.00    +0.221 C 
BRANCH   9  10
ATOM     10  C   UNL     1      -0.766   2.585  -1.502  0.00  0.00    +0.126 A 
ATOM     11  C   UNL     1      -0.940   3.339  -2.603  0.00  0.00    +0.046 A 
ATOM     12  C   UNL     1      -0.116   2.788  -3.611  0.00  0.00    +0.041 A 
ATOM     13  C   UNL     1       0.512   1.731  -3.067  0.00  0.00    +0.195 A 
ATOM     14  O   UNL     1       0.119   1.616  -1.788  0.00  0.00    -0.466 OA
ENDBRANCH   9  10
ENDBRANCH   8   9
ENDBRANCH   3   4
BRANCH   3  16
ATOM     15  C   UNL     1      -0.121  -1.837   0.662  0.00  0.00    +0.002 C 
ATOM     16  C   UNL     1      -1.232  -1.011   0.010  0.00  0.00    -0.011 C 
ENDBRANCH   3  16
ENDBRANCH   1   3
BRANCH   1  17
ATOM     17  C   UNL     1      -3.118   0.101   3.056  0.00  0.00    -0.073 C 
BRANCH  17  18
ATOM     18  C   UNL     1      -2.083   0.984   3.756  0.00  0.00    +0.017 C 
BRANCH  18  19
ATOM     19  C   UNL     1      -2.769   1.835   4.793  0.00  0.00    -0.045 A 
ATOM     20  C   UNL     1      -3.265   3.079   4.447  0.00  0.00    +0.007 A 
ATOM     21  C   UNL     1      -3.894   3.863   5.395  0.00  0.00    +0.049 A 
ATOM     22  C   UNL     1      -4.030   3.404   6.695  0.00  0.00    +0.161 A 
ATOM     23  C   UNL     1      -3.532   2.152   7.043  0.00  0.00    +0.162 A 
ATOM     24  C   UNL     1      -2.906   1.369   6.087  0.00  0.00    +0.053 A 
BRANCH  23  25
ATOM     25  O   UNL     1      -3.663   1.697   8.318  0.00  0.00    -0.491 OA
ATOM     26  C   UNL     1      -3.127   0.404   8.603  0.00  0.00    +0.277 C 
ENDBRANCH  23  25
BRANCH  22  27
ATOM     27  O   UNL     1      -4.649   4.175   7.629  0.00  0.00    -0.491 OA
ATOM     28  C   UNL     1      -5.136   5.448   7.200  0.00  0.00    +0.277 C 
ENDBRANCH  22  27
ENDBRANCH  18  19
ENDBRANCH  17  18
ENDBRANCH   1  17
BRANCH   1  29
ATOM     29  C   UNL     1      -3.408  -1.768   1.580  0.00  0.00    -0.037 C 
BRANCH  29  30
ATOM     30  C   UNL     1      -2.810  -3.152   1.574  0.00  0.00    +0.001 A 
ATOM     31  C   UNL     1      -2.508  -3.762   2.747  0.00  0.00    +0.017 A 
ATOM     32  C   UNL     1      -1.929  -5.106   2.707  0.00  0.00    -0.001 A 
ATOM     33  C   UNL     1      -1.597  -5.787   3.883  0.00  0.00    +0.010 A 
ATOM     34  C   UNL     1      -1.059  -7.040   3.812  0.00  0.00    +0.004 A 
ATOM     35  C   UNL     1      -0.838  -7.645   2.582  0.00  0.00    -0.048 A 
ATOM     36  C   UNL     1      -1.157  -6.993   1.410  0.00  0.00    +0.029 A 
ATOM     37  C   UNL     1      -1.707  -5.716   1.458  0.00  0.00    +0.049 A 
ATOM     38  N   UNL     1      -2.036  -5.042   0.301  0.00  0.00    -0.322 N 
ATOM     39  H   UNL     1      -1.882  -5.464  -0.558  0.00  0.00    +0.169 HD
ATOM     40  C   UNL     1      -2.572  -3.810   0.348  0.00  0.00    +0.251 A 
ATOM     41  O   UNL     1      -2.856  -3.245  -0.694  0.00  0.00    -0.268 OA
ATOM     42  C   UNL     1      -0.242  -9.028   2.527  0.00  0.00    +0.044 C 
ENDBRANCH  29  30
ENDBRANCH   1  29
TORSDOF 12
