REMARK  Name = ZINC09042254
REMARK  7 active torsions:
REMARK  status: ('A' for Active; 'I' for Inactive)
REMARK    1  A    between atoms: C_1  and  O_2
REMARK    2  A    between atoms: O_2  and  C_3
REMARK    3  A    between atoms: C_15  and  C_16
REMARK    4  A    between atoms: C_15  and  N_66
REMARK    5  A    between atoms: C_26  and  C_28
REMARK    6  A    between atoms: C_33  and  O_34
REMARK    7  A    between atoms: O_34  and  C_35
REMARK                            x       y       z     vdW  Elec       q    Type
REMARK                         _______ _______ _______ _____ _____    ______ ____
ROOT
ATOM      1  C   UNL     1      -0.787   2.893   1.346  0.00  0.00    +0.162 A 
ATOM      2  C   UNL     1      -0.253   3.743   0.396  0.00  0.00    +0.049 A 
ATOM      3  C   UNL     1      -0.363   5.112   0.552  0.00  0.00    +0.004 A 
ATOM      4  C   UNL     1      -0.991   5.627   1.669  0.00  0.00    +0.009 A 
ATOM      5  C   UNL     1      -1.516   4.781   2.630  0.00  0.00    +0.020 A 
ATOM      6  C   UNL     1      -1.431   3.407   2.477  0.00  0.00    +0.170 A 
ATOM      7  O   UNL     1      -1.965   2.514   3.351  0.00  0.00    -0.463 OA
ATOM      8  C   UNL     1      -2.396   2.949   4.642  0.00  0.00    +0.190 C 
ATOM      9  C   UNL     1      -3.455   1.995   5.191  0.00  0.00    +0.052 C 
ATOM     10  C   UNL     1      -3.872   2.451   6.592  0.00  0.00    -0.073 C 
ATOM     11  C   UNL     1      -1.692   3.434   6.987  0.00  0.00    -0.073 C 
ATOM     12  C   UNL     1      -1.206   3.007   5.599  0.00  0.00    +0.052 C 
ATOM     13  N   UNL     1      -2.966   4.288   4.469  0.00  0.00    -0.207 N 
ATOM     14  C   UNL     1      -2.173   5.374   3.850  0.00  0.00    +0.136 C 
ATOM     15  C   UNL     1      -3.227   6.426   3.481  0.00  0.00    +0.086 C 
ATOM     16  C   UNL     1      -4.484   5.910   4.192  0.00  0.00    +0.072 C 
ATOM     17  N   UNL     1      -4.244   4.754   4.720  0.00  0.00    -0.184 NA
ATOM     18  N   UNL     1      -2.682   2.448   7.470  0.00  0.00    +0.383 N 
ATOM     19  H   UNL     1      -2.258   1.514   7.453  0.00  0.00    -0.081 HD
ENDROOT
BRANCH  16  20
ATOM     20  C   UNL     1      -5.768   6.631   4.271  0.00  0.00    +0.040 A 
ATOM     21  C   UNL     1      -5.912   7.878   3.659  0.00  0.00    +0.013 A 
ATOM     22  C   UNL     1      -7.115   8.547   3.736  0.00  0.00    +0.001 A 
ATOM     23  C   UNL     1      -8.182   7.988   4.418  0.00  0.00    +0.004 A 
ATOM     24  C   UNL     1      -8.053   6.754   5.027  0.00  0.00    +0.046 A 
ATOM     25  C   UNL     1      -6.853   6.066   4.955  0.00  0.00    +0.136 A 
BRANCH  25  26
ATOM     26  O   UNL     1      -6.726   4.851   5.549  0.00  0.00    -0.434 OA
BRANCH  26  27
ATOM     27  C   UNL     1      -7.874   4.338   6.228  0.00  0.00    +0.541 C 
ATOM     28  F   UNL     1      -8.244   5.219   7.250  0.00  0.00    -0.166 F 
ATOM     29  F   UNL     1      -8.931   4.205   5.322  0.00  0.00    -0.166 F 
ENDBRANCH  26  27
ENDBRANCH  25  26
ENDBRANCH  16  20
BRANCH   1  31
ATOM     30  C   UNL     1      -0.013   1.086   0.008  0.00  0.00    +0.277 C 
ATOM     31  O   UNL     1      -0.682   1.547   1.184  0.00  0.00    -0.491 OA
ENDBRANCH   1  31
BRANCH  18  32
ATOM     32  C   UNL     1      -3.078   2.770   8.857  0.00  0.00    -0.043 C 
BRANCH  32  33
ATOM     33  C   UNL     1      -3.913   1.637   9.398  0.00  0.00    -0.064 A 
ATOM     34  C   UNL     1      -5.288   1.666   9.261  0.00  0.00    +0.002 A 
ATOM     35  C   UNL     1      -6.053   0.625   9.753  0.00  0.00    +0.000 A 
ATOM     36  C   UNL     1      -5.443  -0.439  10.391  0.00  0.00    +0.000 A 
ATOM     37  C   UNL     1      -4.069  -0.465  10.532  0.00  0.00    +0.000 A 
ATOM     38  C   UNL     1      -3.303   0.573  10.036  0.00  0.00    +0.002 A 
ENDBRANCH  32  33
ENDBRANCH  18  32
TORSDOF 6
