REMARK  Name = ZINC62324883
REMARK  9 active torsions:
REMARK  status: ('A' for Active; 'I' for Inactive)
REMARK    1  A    between atoms: C_1  and  C_2
REMARK    2  A    between atoms: N_14  and  C_15
REMARK    3  A    between atoms: C_15  and  C_16
REMARK    4  A    between atoms: C_15  and  C_17
REMARK    5  A    between atoms: C_15  and  C_18
REMARK    6  A    between atoms: C_18  and  C_19
REMARK    7  A    between atoms: C_19  and  C_20
REMARK    8  A    between atoms: C_19  and  C_21
REMARK    9  A    between atoms: C_19  and  C_22
REMARK                            x       y       z     vdW  Elec       q    Type
REMARK                         _______ _______ _______ _____ _____    ______ ____
ROOT
ATOM      1  C   UNL     1       5.165  -0.109  -0.495  0.00  0.00    +0.044 C 
ATOM      2  C   UNL     1       4.468  -1.437  -0.347  0.00  0.00    -0.048 A 
ATOM      3  C   UNL     1       4.078  -2.142  -1.471  0.00  0.00    +0.005 A 
ATOM      4  C   UNL     1       3.438  -3.359  -1.343  0.00  0.00    +0.025 A 
ATOM      5  C   UNL     1       3.184  -3.879  -0.080  0.00  0.00    +0.061 A 
ATOM      6  C   UNL     1       3.582  -3.165   1.044  0.00  0.00    +0.134 A 
ATOM      7  C   UNL     1       4.224  -1.954   0.914  0.00  0.00    +0.034 A 
ATOM      8  S   UNL     1       3.256  -3.848   2.638  0.00  0.00    +0.103 S 
ATOM      9  O   UNL     1       2.087  -3.206   3.128  0.00  0.00    -0.146 OA
ATOM     10  O   UNL     1       4.487  -3.841   3.347  0.00  0.00    -0.146 OA
ATOM     11  N   UNL     1       2.857  -5.436   2.377  0.00  0.00    -0.097 NA
ATOM     12  C   UNL     1       2.563  -5.862   1.192  0.00  0.00    +0.205 C 
ATOM     13  N   UNL     1       2.535  -5.103   0.063  0.00  0.00    -0.285 N 
ATOM     14  N   UNL     1       2.253  -7.196   1.062  0.00  0.00    -0.311 N 
ATOM     15  H   UNL     1       2.029  -5.437  -0.694  0.00  0.00    +0.155 HD
ATOM     16  H   UNL     1       2.026  -7.558   0.191  0.00  0.00    +0.149 HD
ENDROOT
BRANCH  14  17
ATOM     17  C   UNL     1       2.265  -8.069   2.238  0.00  0.00    +0.029 C 
ATOM     18  C   UNL     1       3.642  -8.012   2.902  0.00  0.00    +0.031 C 
ATOM     19  C   UNL     1       1.200  -7.600   3.231  0.00  0.00    +0.031 C 
BRANCH  17  20
ATOM     20  C   UNL     1       1.964  -9.506   1.808  0.00  0.00    +0.031 C 
BRANCH  20  21
ATOM     21  C   UNL     1       0.518  -9.601   1.319  0.00  0.00    -0.036 C 
ATOM     22  C   UNL     1       0.261  -8.514   0.274  0.00  0.00    +0.010 C 
ATOM     23  C   UNL     1       0.280 -10.977   0.693  0.00  0.00    +0.010 C 
ATOM     24  C   UNL     1      -0.434  -9.408   2.502  0.00  0.00    +0.010 C 
ENDBRANCH  20  21
ENDBRANCH  17  20
ENDBRANCH  14  17
TORSDOF 3
