REMARK  Name = ZINC39237504
REMARK  8 active torsions:
REMARK  status: ('A' for Active; 'I' for Inactive)
REMARK    1  A    between atoms: C_1  and  C_2
REMARK    2  A    between atoms: C_3  and  C_23
REMARK    3  A    between atoms: C_5  and  C_7
REMARK    4  A    between atoms: C_15  and  C_16
REMARK    5  A    between atoms: C_18  and  N_22
REMARK    6  A    between atoms: C_19  and  C_20
REMARK    7  A    between atoms: C_23  and  O_24
REMARK    8  A    between atoms: O_24  and  C_25
REMARK                            x       y       z     vdW  Elec       q    Type
REMARK                         _______ _______ _______ _____ _____    ______ ____
ROOT
ATOM      1  C   UNL     1      -0.018   1.503   0.010  0.00  0.00    +0.052 C 
ATOM      2  C   UNL     1       0.002  -0.004   0.002  0.00  0.00    -0.007 A 
ATOM      3  C   UNL     1      -1.039  -0.872   0.002  0.00  0.00    -0.000 A 
ATOM      4  C   UNL     1      -0.780  -2.230  -0.007  0.00  0.00    +0.019 A 
ATOM      5  C   UNL     1       0.507  -2.653  -0.016  0.00  0.00    -0.001 A 
ATOM      6  S   UNL     1       1.404  -1.109  -0.018  0.00  0.00    -0.097 S 
ENDROOT
BRANCH   5   7
ATOM      7  C   UNL     1       1.043  -4.062  -0.027  0.00  0.00    +0.085 C 
ATOM      8  C   UNL     1       1.876  -4.287   1.239  0.00  0.00    +0.108 C 
ATOM      9  C   UNL     1       2.859  -5.451   1.038  0.00  0.00    +0.286 C 
ATOM     10  N   UNL     1       2.028  -6.621   1.324  0.00  0.00    -0.230 N 
ATOM     11  N   UNL     1       1.034  -6.176   2.210  0.00  0.00    -0.193 NA
ATOM     12  C   UNL     1       0.909  -4.886   2.266  0.00  0.00    +0.043 C 
ATOM     13  C   UNL     1      -0.011  -4.105   3.168  0.00  0.00    +0.063 C 
ATOM     14  O   UNL     1       3.534  -5.456  -0.179  0.00  0.00    -0.455 OA
ATOM     15  C   UNL     1       2.988  -4.955  -1.297  0.00  0.00    +0.194 C 
ATOM     16  C   UNL     1       1.844  -4.266  -1.273  0.00  0.00    +0.094 C 
ATOM     17  H   UNL     1       2.140  -7.519   0.973  0.00  0.00    +0.172 HD
BRANCH  15  18
ATOM     18  N   UNL     1       3.624  -5.152  -2.497  0.00  0.00    -0.329 N 
ATOM     19  H   UNL     1       4.457  -5.648  -2.529  0.00  0.00    +0.145 HD
ATOM     20  H   UNL     1       3.241  -4.795  -3.313  0.00  0.00    +0.145 HD
ENDBRANCH  15  18
BRANCH  16  21
ATOM     21  C   UNL     1       1.375  -3.689  -2.497  0.00  0.00    +0.100 C 
ATOM     22  N   UNL     1       1.004  -3.230  -3.467  0.00  0.00    -0.191 NA
ENDBRANCH  16  21
ENDBRANCH   5   7
BRANCH   3  23
ATOM     23  C   UNL     1      -2.458  -0.364   0.012  0.00  0.00    +0.265 C 
BRANCH  23  24
ATOM     24  O   UNL     1      -3.361  -1.472   0.009  0.00  0.00    -0.486 OA
BRANCH  24  25
ATOM     25  C   UNL     1      -4.690  -1.185   0.018  0.00  0.00    +0.139 A 
ATOM     26  C   UNL     1      -5.115   0.135   0.022  0.00  0.00    +0.050 A 
ATOM     27  C   UNL     1      -6.466   0.424   0.030  0.00  0.00    +0.042 A 
ATOM     28  C   UNL     1      -7.395  -0.602   0.034  0.00  0.00    +0.125 A 
ATOM     29  C   UNL     1      -6.973  -1.920   0.029  0.00  0.00    +0.062 A 
ATOM     30  C   UNL     1      -5.622  -2.213   0.016  0.00  0.00    +0.085 A 
ATOM     31 CL   UNL     1      -5.092  -3.867   0.004  0.00  0.00    -0.080 Cl
ATOM     32  F   UNL     1      -8.716  -0.316   0.042  0.00  0.00    -0.205 F 
ENDBRANCH  24  25
ENDBRANCH  23  24
ENDBRANCH   3  23
TORSDOF 6
