REMARK  Name = ZINC04645887
REMARK  9 active torsions:
REMARK  status: ('A' for Active; 'I' for Inactive)
REMARK    1  A    between atoms: C_1  and  C_2
REMARK    2  A    between atoms: C_2  and  C_3
REMARK    3  A    between atoms: C_3  and  C_4
REMARK    4  A    between atoms: C_3  and  C_5
REMARK    5  A    between atoms: C_3  and  N_18
REMARK    6  A    between atoms: N_9  and  C_10
REMARK    7  A    between atoms: C_11  and  C_17
REMARK    8  A    between atoms: C_15  and  C_16
REMARK    9  A    between atoms: N_18  and  C_19
REMARK                            x       y       z     vdW  Elec       q    Type
REMARK                         _______ _______ _______ _____ _____    ______ ____
ROOT
ATOM      1  C   UNL     1      -0.782  -1.534   2.223  0.00  0.00    +0.179 A 
ATOM      2  N   UNL     1      -0.022  -2.452   2.761  0.00  0.00    -0.111 NA
ATOM      3  N   UNL     1       0.529  -2.011   3.834  0.00  0.00    -0.023 NA
ATOM      4  N   UNL     1       0.157  -0.798   4.060  0.00  0.00    -0.039 NA
ATOM      5  N   UNL     1      -0.715  -0.443   3.015  0.00  0.00    -0.194 N 
ENDROOT
BRANCH   5   6
ATOM      6  C   UNL     1      -1.373   0.783   2.834  0.00  0.00    +0.075 A 
ATOM      7  C   UNL     1      -2.494   1.088   3.593  0.00  0.00    -0.025 A 
ATOM      8  C   UNL     1      -3.138   2.298   3.416  0.00  0.00    +0.005 A 
ATOM      9  C   UNL     1      -2.671   3.199   2.477  0.00  0.00    +0.001 A 
ATOM     10  C   UNL     1      -1.557   2.896   1.716  0.00  0.00    +0.005 A 
ATOM     11  C   UNL     1      -0.907   1.690   1.893  0.00  0.00    -0.025 A 
ATOM     12  C   UNL     1       0.307   1.359   1.063  0.00  0.00    +0.046 C 
ATOM     13  C   UNL     1      -3.007   0.104   4.612  0.00  0.00    +0.046 C 
ENDBRANCH   5   6
BRANCH   1  14
ATOM     14  C   UNL     1      -1.590  -1.672   0.958  0.00  0.00    +0.091 C 
ATOM     15  C   UNL     1      -0.735  -2.338  -0.122  0.00  0.00    +0.040 C 
BRANCH  14  17
ATOM     16  C   UNL     1      -3.609  -1.938   2.406  0.00  0.00    +0.006 C 
ATOM     17  C   UNL     1      -2.825  -2.531   1.233  0.00  0.00    +0.030 C 
ENDBRANCH  14  17
BRANCH  14  18
ATOM     18  N   UNL     1      -2.009  -0.345   0.500  0.00  0.00    -0.332 N 
ATOM     19  H   UNL     1      -1.813   0.438   1.038  0.00  0.00    +0.147 HD
BRANCH  18  20
ATOM     20  C   UNL     1      -2.697  -0.209  -0.708  0.00  0.00    +0.028 A 
ATOM     21  C   UNL     1      -3.095  -1.337  -1.414  0.00  0.00    +0.023 A 
ATOM     22  C   UNL     1      -3.779  -1.198  -2.606  0.00  0.00    +0.002 A 
ATOM     23  C   UNL     1      -4.059   0.062  -3.101  0.00  0.00    +0.000 A 
ATOM     24  C   UNL     1      -3.660   1.187  -2.404  0.00  0.00    +0.002 A 
ATOM     25  C   UNL     1      -2.980   1.056  -1.209  0.00  0.00    +0.023 A 
ENDBRANCH  18  20
ENDBRANCH  14  18
ENDBRANCH   1  14
TORSDOF 5
