REMARK  Name = ZINC57344591
REMARK  5 active torsions:
REMARK  status: ('A' for Active; 'I' for Inactive)
REMARK    1  A    between atoms: C_3  and  O_26
REMARK    2  A    between atoms: C_6  and  C_7
REMARK    3  A    between atoms: C_7  and  N_8
REMARK    4  A    between atoms: C_22  and  N_25
REMARK    5  A    between atoms: O_26  and  C_27
REMARK                            x       y       z     vdW  Elec       q    Type
REMARK                         _______ _______ _______ _____ _____    ______ ____
ROOT
ATOM      1  N   UNL     1      -1.614  -0.832  -1.449  0.00  0.00    -0.276 N 
ATOM      2  C   UNL     1      -2.349   0.155  -2.016  0.00  0.00    +0.270 A 
ATOM      3  O   UNL     1      -2.460   1.242  -1.474  0.00  0.00    -0.266 OA
ATOM      4  C   UNL     1      -2.974  -0.103  -3.233  0.00  0.00    +0.102 A 
ATOM      5  C   UNL     1      -2.856  -1.351  -3.871  0.00  0.00    +0.087 A 
ATOM      6  C   UNL     1      -3.538  -1.472  -5.090  0.00  0.00    +0.036 A 
ATOM      7  C   UNL     1      -4.247  -0.432  -5.579  0.00  0.00    +0.048 A 
ATOM      8  S   UNL     1      -4.007   0.826  -4.335  0.00  0.00    -0.090 S 
ATOM      9  N   UNL     1      -2.092  -2.289  -3.224  0.00  0.00    -0.215 NA
ATOM     10  C   UNL     1      -1.506  -2.034  -2.086  0.00  0.00    +0.202 A 
ATOM     11  N   UNL     1      -0.753  -3.022  -1.500  0.00  0.00    -0.302 N 
ATOM     12  C   UNL     1      -0.959  -3.384  -0.090  0.00  0.00    +0.108 C 
ATOM     13  C   UNL     1      -1.201  -4.894   0.001  0.00  0.00    +0.017 C 
ATOM     14  C   UNL     1      -0.045  -5.634  -0.676  0.00  0.00    -0.013 C 
ATOM     15  C   UNL     1       0.018  -5.243  -2.154  0.00  0.00    -0.057 C 
ATOM     16  C   UNL     1       0.270  -3.741  -2.271  0.00  0.00    +0.092 C 
ENDROOT
BRANCH  15  17
ATOM     17  N   UNL     1       1.108  -5.978  -2.810  0.00  0.00    +0.381 N 
ATOM     18  H   UNL     1       0.939  -6.970  -2.732  0.00  0.00    -0.090 HD
ATOM     19  H   UNL     1       1.149  -5.720  -3.785  0.00  0.00    -0.090 HD
ATOM     20  H   UNL     1       1.984  -5.749  -2.365  0.00  0.00    -0.090 HD
ENDBRANCH  15  17
BRANCH   1  21
ATOM     21  C   UNL     1      -0.937  -0.609  -0.169  0.00  0.00    +0.163 C 
BRANCH  21  27
ATOM     22  C   UNL     1       0.720   1.205  -0.647  0.00  0.00    +0.009 A 
ATOM     23  C   UNL     1       2.010   1.641  -0.878  0.00  0.00    +0.046 A 
ATOM     24  C   UNL     1       3.058   0.731  -0.885  0.00  0.00    +0.130 A 
ATOM     25  C   UNL     1       2.806  -0.614  -0.659  0.00  0.00    +0.046 A 
ATOM     26  C   UNL     1       1.514  -1.045  -0.428  0.00  0.00    +0.009 A 
ATOM     27  C   UNL     1       0.472  -0.136  -0.422  0.00  0.00    -0.027 A 
BRANCH  24  28
ATOM     28  O   UNL     1       4.328   1.157  -1.113  0.00  0.00    -0.406 OA
BRANCH  28  29
ATOM     29  C   UNL     1       5.356   0.165  -1.106  0.00  0.00    +0.575 C 
ATOM     30  F   UNL     1       5.095  -0.785  -2.099  0.00  0.00    -0.133 F 
ATOM     31  F   UNL     1       6.592   0.772  -1.355  0.00  0.00    -0.133 F 
ATOM     32  F   UNL     1       5.389  -0.463   0.144  0.00  0.00    -0.133 F 
ENDBRANCH  28  29
ENDBRANCH  24  28
ENDBRANCH  21  27
ENDBRANCH   1  21
TORSDOF 5
