REMARK  Name = ZINC09546028
REMARK  11 active torsions:
REMARK  status: ('A' for Active; 'I' for Inactive)
REMARK    1  A    between atoms: C_1  and  C_2
REMARK    2  A    between atoms: C_2  and  C_4
REMARK    3  A    between atoms: C_2  and  N_50
REMARK    4  A    between atoms: N_6  and  C_7
REMARK    5  A    between atoms: C_10  and  N_14
REMARK    6  A    between atoms: C_17  and  N_50
REMARK    7  A    between atoms: C_18  and  C_19
REMARK    8  A    between atoms: C_18  and  N_50
REMARK    9  A    between atoms: N_21  and  C_22
REMARK   10  A    between atoms: C_27  and  O_28
REMARK   11  A    between atoms: O_28  and  C_29
REMARK                            x       y       z     vdW  Elec       q    Type
REMARK                         _______ _______ _______ _____ _____    ______ ____
ROOT
ATOM      1  C   UNL     1       2.749   7.938   0.942  0.00  0.00    -0.094 C 
ATOM      2  N   UNL     1       3.313   7.450  -0.335  0.00  0.00    +0.391 N 
ATOM      3  H   UNL     1       2.621   7.591  -1.080  0.00  0.00    -0.080 HD
ENDROOT
BRANCH   2   5
ATOM      4  C   UNL     1       5.567   8.084   0.457  0.00  0.00    -0.004 C 
ATOM      5  C   UNL     1       4.538   8.207  -0.668  0.00  0.00    +0.017 C 
BRANCH   5   6
ATOM      6  C   UNL     1       4.177   9.658  -0.862  0.00  0.00    +0.203 C 
ATOM      7  O   UNL     1       3.029  10.021  -0.720  0.00  0.00    -0.277 OA
ATOM      8  N   UNL     1       5.131  10.551  -1.194  0.00  0.00    -0.286 N 
ATOM      9  H   UNL     1       6.035  10.250  -1.375  0.00  0.00    +0.155 HD
BRANCH   8  10
ATOM     10  C   UNL     1       4.816  11.912  -1.277  0.00  0.00    +0.052 A 
ATOM     11  C   UNL     1       3.568  12.311  -1.736  0.00  0.00    +0.027 A 
ATOM     12  C   UNL     1       3.260  13.655  -1.816  0.00  0.00    +0.034 A 
ATOM     13  C   UNL     1       4.194  14.604  -1.442  0.00  0.00    +0.128 A 
ATOM     14  C   UNL     1       5.438  14.211  -0.985  0.00  0.00    +0.054 A 
ATOM     15  C   UNL     1       5.751  12.867  -0.896  0.00  0.00    +0.064 A 
ATOM     16 CL   UNL     1       7.311  12.374  -0.316  0.00  0.00    -0.082 Cl
BRANCH  13  17
ATOM     17  N   UNL     1       3.861  16.043  -1.530  0.00  0.00    +0.056 N 
ATOM     18  O   UNL     1       2.765  16.391  -1.931  0.00  0.00    -0.126 OA
ATOM     19  O   UNL     1       4.682  16.880  -1.200  0.00  0.00    -0.126 OA
ENDBRANCH  13  17
ENDBRANCH   8  10
ENDBRANCH   5   6
ENDBRANCH   2   5
BRANCH   2  20
ATOM     20  C   UNL     1       3.622   6.009  -0.232  0.00  0.00    +0.020 C 
BRANCH  20  21
ATOM     21  C   UNL     1       2.331   5.242  -0.113  0.00  0.00    +0.201 C 
ATOM     22  O   UNL     1       1.273   5.834  -0.097  0.00  0.00    -0.278 OA
ATOM     23  N   UNL     1       2.352   3.897  -0.023  0.00  0.00    -0.284 N 
ATOM     24  H   UNL     1       3.198   3.428   0.046  0.00  0.00    +0.155 HD
BRANCH  23  25
ATOM     25  C   UNL     1       1.150   3.176  -0.029  0.00  0.00    +0.077 A 
ATOM     26  C   UNL     1       0.018   3.716  -0.621  0.00  0.00    +0.047 A 
ATOM     27  C   UNL     1      -1.167   3.002  -0.626  0.00  0.00    +0.043 A 
ATOM     28  C   UNL     1      -1.224   1.747  -0.048  0.00  0.00    +0.024 A 
ATOM     29  C   UNL     1      -0.100   1.205   0.548  0.00  0.00    +0.049 A 
ATOM     30  C   UNL     1       1.090   1.914   0.558  0.00  0.00    +0.141 A 
ATOM     31 CL   UNL     1      -2.583   3.680  -1.366  0.00  0.00    -0.083 Cl
BRANCH  30  32
ATOM     32  O   UNL     1       2.197   1.379   1.138  0.00  0.00    -0.493 OA
ATOM     33  C   UNL     1       2.062   0.081   1.720  0.00  0.00    +0.277 C 
ENDBRANCH  30  32
ENDBRANCH  23  25
ENDBRANCH  20  21
ENDBRANCH   2  20
TORSDOF 8
