REMARK  Name = ZINC11592165
REMARK  7 active torsions:
REMARK  status: ('A' for Active; 'I' for Inactive)
REMARK    1  A    between atoms: C_1  and  C_2
REMARK    2  A    between atoms: C_2  and  C_4
REMARK    3  A    between atoms: C_2  and  S_20
REMARK    4  A    between atoms: C_10  and  C_15
REMARK    5  A    between atoms: S_20  and  C_21
REMARK    6  A    between atoms: C_24  and  C_27
REMARK    7  A    between atoms: N_25  and  N_26
REMARK                            x       y       z     vdW  Elec       q    Type
REMARK                         _______ _______ _______ _____ _____    ______ ____
ROOT
ATOM      1  C   UNL     1       2.310   9.620   1.433  0.00  0.00    +0.027 C 
ATOM      2  C   UNL     1       2.730   9.583  -0.038  0.00  0.00    +0.117 C 
ENDROOT
BRANCH   2   3
ATOM      3  C   UNL     1       3.694  10.708  -0.314  0.00  0.00    +0.124 A 
ATOM      4  N   UNL     1       3.226  11.882  -0.809  0.00  0.00    -0.309 N 
ATOM      5  H   UNL     1       2.276  11.982  -0.979  0.00  0.00    +0.170 HD
ATOM      6  C   UNL     1       4.054  12.911  -1.069  0.00  0.00    +0.260 A 
ATOM      7  O   UNL     1       3.618  13.959  -1.514  0.00  0.00    -0.267 OA
ATOM      8  C   UNL     1       5.454  12.756  -0.815  0.00  0.00    +0.080 A 
ATOM      9  C   UNL     1       6.539  13.712  -1.011  0.00  0.00    +0.010 A 
ATOM     10  C   UNL     1       7.803  13.335  -0.694  0.00  0.00    +0.057 A 
ATOM     11  S   UNL     1       7.602  11.663  -0.111  0.00  0.00    -0.076 S 
ATOM     12  C   UNL     1       5.845  11.508  -0.303  0.00  0.00    +0.116 A 
ATOM     13  N   UNL     1       4.965  10.538  -0.066  0.00  0.00    -0.225 NA
BRANCH   9  14
ATOM     14  C   UNL     1       6.266  15.063  -1.544  0.00  0.00    +0.021 A 
ATOM     15  C   UNL     1       6.660  16.279  -1.055  0.00  0.00    +0.016 A 
ATOM     16  C   UNL     1       6.284  17.419  -1.734  0.00  0.00    +0.008 A 
ATOM     17  C   UNL     1       5.529  17.303  -2.855  0.00  0.00    +0.046 A 
ATOM     18  S   UNL     1       5.330  15.534  -2.990  0.00  0.00    -0.097 S 
ENDBRANCH   9  14
ENDBRANCH   2   3
BRANCH   2  19
ATOM     19  S   UNL     1       3.530   8.000  -0.397  0.00  0.00    -0.074 S 
BRANCH  19  20
ATOM     20  C   UNL     1       2.172   6.906  -0.144  0.00  0.00    +0.209 A 
ATOM     21  N   UNL     1       0.953   7.247   0.208  0.00  0.00    -0.121 NA
ATOM     22  N   UNL     1       0.212   6.201   0.304  0.00  0.00    -0.126 NA
ATOM     23  C   UNL     1       0.914   5.126   0.019  0.00  0.00    +0.188 A 
ATOM     24  N   UNL     1       2.193   5.545  -0.272  0.00  0.00    -0.223 N 
BRANCH  23  25
ATOM     25  C   UNL     1       0.426   3.737   0.017  0.00  0.00    +0.058 A 
ATOM     26  C   UNL     1      -0.866   3.275   0.026  0.00  0.00    +0.019 A 
ATOM     27  C   UNL     1      -1.081   1.915   0.017  0.00  0.00    +0.008 A 
ATOM     28  C   UNL     1      -0.013   1.076   0.008  0.00  0.00    +0.046 A 
ATOM     29  S   UNL     1       1.361   2.216   0.001  0.00  0.00    -0.093 S 
ENDBRANCH  23  25
BRANCH  24  30
ATOM     30  N   UNL     1       3.259   4.764  -0.618  0.00  0.00    -0.295 N 
ATOM     31  H   UNL     1       3.308   4.641  -1.618  0.00  0.00    +0.163 HD
ATOM     32  H   UNL     1       4.120   5.149  -0.259  0.00  0.00    +0.163 HD
ENDBRANCH  24  30
ENDBRANCH  19  20
ENDBRANCH   2  19
TORSDOF 6
