REMARK  Name = ZINC05081452
REMARK  3 active torsions:
REMARK  status: ('A' for Active; 'I' for Inactive)
REMARK    1  A    between atoms: C_3  and  N_24
REMARK    2  A    between atoms: C_6  and  C_7
REMARK    3  A    between atoms: C_10  and  C_17
REMARK                            x       y       z     vdW  Elec       q    Type
REMARK                         _______ _______ _______ _____ _____    ______ ____
ROOT
ATOM      1  C   UNL     1      -1.293  -0.775   0.010  0.00  0.00    +0.147 C 
ATOM      2  C   UNL     1      -1.373  -1.667  -1.235  0.00  0.00    +0.087 C 
ATOM      3  C   UNL     1      -2.404  -2.746  -1.061  0.00  0.00    +0.055 C 
ATOM      4  N   UNL     1      -2.653  -3.303   0.094  0.00  0.00    -0.215 NA
ATOM      5  C   UNL     1      -2.006  -2.839   1.196  0.00  0.00    +0.249 A 
ATOM      6  N   UNL     1      -1.347  -1.639   1.190  0.00  0.00    -0.222 N 
ATOM      7  N   UNL     1      -0.804  -1.475   2.460  0.00  0.00    -0.156 NA
ATOM      8  C   UNL     1      -1.158  -2.526   3.161  0.00  0.00    +0.247 A 
ATOM      9  N   UNL     1      -1.887  -3.345   2.398  0.00  0.00    -0.198 NA
ENDROOT
BRANCH   3  10
ATOM     10  C   UNL     1      -3.163  -3.193  -2.239  0.00  0.00    -0.003 A 
ATOM     11  C   UNL     1      -2.918  -2.622  -3.492  0.00  0.00    +0.011 A 
ATOM     12  C   UNL     1      -3.633  -3.045  -4.591  0.00  0.00    +0.020 A 
ATOM     13  C   UNL     1      -4.594  -4.035  -4.457  0.00  0.00    +0.041 A 
ATOM     14  C   UNL     1      -4.843  -4.605  -3.220  0.00  0.00    +0.020 A 
ATOM     15  C   UNL     1      -4.131  -4.195  -2.113  0.00  0.00    +0.011 A 
ATOM     16 CL   UNL     1      -5.491  -4.562  -5.847  0.00  0.00    -0.084 Cl
ENDBRANCH   3  10
BRANCH   1  22
ATOM     17  C   UNL     1      -0.017   1.378   0.010  0.00  0.00    +0.008 A 
ATOM     18  C   UNL     1       1.171   2.086   0.002  0.00  0.00    +0.033 A 
ATOM     19  C   UNL     1       2.377   1.411  -0.013  0.00  0.00    +0.126 A 
ATOM     20  C   UNL     1       2.396   0.029  -0.020  0.00  0.00    +0.033 A 
ATOM     21  C   UNL     1       1.208  -0.679  -0.012  0.00  0.00    +0.008 A 
ATOM     22  C   UNL     1       0.002  -0.004   0.002  0.00  0.00    -0.022 A 
BRANCH  19  23
ATOM     23  N   UNL     1       3.649   2.168  -0.022  0.00  0.00    +0.056 N 
ATOM     24  O   UNL     1       3.633   3.377  -0.016  0.00  0.00    -0.126 OA
ATOM     25  O   UNL     1       4.704   1.578  -0.035  0.00  0.00    -0.126 OA
ENDBRANCH  19  23
ENDBRANCH   1  22
TORSDOF 3
