REMARK  Name = ZINC47614456
REMARK  6 active torsions:
REMARK  status: ('A' for Active; 'I' for Inactive)
REMARK    1  A    between atoms: C_8  and  C_11
REMARK    2  A    between atoms: C_11  and  N_12
REMARK    3  A    between atoms: N_12  and  C_13
REMARK    4  A    between atoms: N_12  and  C_20
REMARK    5  A    between atoms: C_13  and  C_14
REMARK    6  A    between atoms: C_20  and  C_21
REMARK                            x       y       z     vdW  Elec       q    Type
REMARK                         _______ _______ _______ _____ _____    ______ ____
ROOT
ATOM      1  N   UNL     1       5.004  -3.152   0.010  0.00  0.00    +0.394 N 
ATOM      2  H   UNL     1       4.843  -3.398   0.975  0.00  0.00    -0.080 HD
ENDROOT
BRANCH   1   3
ATOM      3  C   UNL     1       3.715  -2.961  -0.668  0.00  0.00    -0.032 C 
BRANCH   3  11
ATOM      4  C   UNL     1      -1.360  -5.854   0.725  0.00  0.00    +0.000 A 
ATOM      5  C   UNL     1      -0.673  -6.034   1.912  0.00  0.00    +0.004 A 
ATOM      6  C   UNL     1       0.619  -5.569   2.047  0.00  0.00    +0.046 A 
ATOM      7  C   UNL     1       1.243  -4.914   0.988  0.00  0.00    +0.124 A 
ATOM      8  C   UNL     1       0.545  -4.745  -0.201  0.00  0.00    -0.002 A 
ATOM      9  C   UNL     1      -0.746  -5.207  -0.333  0.00  0.00    +0.007 A 
ATOM     10  C   UNL     1       1.474  -4.031  -1.164  0.00  0.00    +0.081 C 
ATOM     11  C   UNL     1       2.847  -4.207  -0.473  0.00  0.00    +0.161 C 
ATOM     12  O   UNL     1       2.489  -4.371   0.909  0.00  0.00    -0.490 OA
ENDBRANCH   3  11
ENDBRANCH   1   3
BRANCH   1  13
ATOM     13  C   UNL     1       5.751  -4.230  -0.652  0.00  0.00    +0.020 C 
BRANCH  13  14
ATOM     14  C   UNL     1       7.017  -4.509   0.116  0.00  0.00    +0.204 C 
ATOM     15  O   UNL     1       7.272  -3.873   1.116  0.00  0.00    -0.277 OA
ATOM     16  N   UNL     1       7.866  -5.466  -0.309  0.00  0.00    -0.242 N 
ATOM     17  C   UNL     1       8.998  -5.715   0.378  0.00  0.00    +0.303 C 
ATOM     18  O   UNL     1       9.254  -5.078   1.380  0.00  0.00    -0.253 OA
ATOM     19  N   UNL     1       9.847  -6.672  -0.047  0.00  0.00    -0.313 N 
ATOM     20  H   UNL     1       7.662  -5.975  -1.109  0.00  0.00    +0.159 HD
ATOM     21  H   UNL     1       9.643  -7.181  -0.847  0.00  0.00    +0.146 HD
ATOM     22  H   UNL     1      10.662  -6.852   0.447  0.00  0.00    +0.146 HD
ENDBRANCH  13  14
ENDBRANCH   1  13
BRANCH   1  23
ATOM     23  C   UNL     1       5.781  -1.907  -0.056  0.00  0.00    +0.020 C 
BRANCH  23  24
ATOM     24  C   UNL     1       5.097  -0.845   0.766  0.00  0.00    +0.204 C 
ATOM     25  O   UNL     1       4.125  -1.127   1.435  0.00  0.00    -0.277 OA
ATOM     26  N   UNL     1       5.565   0.419   0.758  0.00  0.00    -0.242 N 
ATOM     27  C   UNL     1       4.954   1.369   1.494  0.00  0.00    +0.303 C 
ATOM     28  O   UNL     1       3.980   1.086   2.163  0.00  0.00    -0.253 OA
ATOM     29  N   UNL     1       5.422   2.633   1.486  0.00  0.00    -0.313 N 
ATOM     30  H   UNL     1       6.343   0.645   0.224  0.00  0.00    +0.159 HD
ATOM     31  H   UNL     1       6.199   2.858   0.951  0.00  0.00    +0.146 HD
ATOM     32  H   UNL     1       4.982   3.316   2.015  0.00  0.00    +0.146 HD
ENDBRANCH  23  24
ENDBRANCH   1  23
TORSDOF 6
