REMARK  Name = ZINC33135400
REMARK  10 active torsions:
REMARK  status: ('A' for Active; 'I' for Inactive)
REMARK    1  A    between atoms: C_1  and  C_2
REMARK    2  A    between atoms: C_5  and  C_8
REMARK    3  A    between atoms: C_8  and  N_9
REMARK    4  A    between atoms: C_11  and  C_16
REMARK    5  A    between atoms: N_18  and  C_19
REMARK    6  A    between atoms: C_19  and  C_20
REMARK    7  A    between atoms: C_20  and  C_21
REMARK    8  A    between atoms: C_21  and  N_22
REMARK    9  A    between atoms: N_25  and  C_35
REMARK   10  A    between atoms: C_27  and  C_29
REMARK                            x       y       z     vdW  Elec       q    Type
REMARK                         _______ _______ _______ _____ _____    ______ ____
ROOT
ATOM      1  C   UNL     1      -2.689  -0.489  -6.805  0.00  0.00    +0.218 C 
ATOM      2  O   UNL     1      -1.965   0.385  -7.232  0.00  0.00    -0.275 OA
ATOM      3  N   UNL     1      -2.647  -0.821  -5.500  0.00  0.00    -0.315 N 
ATOM      4  H   UNL     1      -3.304  -1.614  -5.112  0.00  0.00    +0.149 HD
ENDROOT
BRANCH   1   7
ATOM      5  N   UNL     1      -5.009  -0.638  -9.617  0.00  0.00    -0.296 N 
ATOM      6  C   UNL     1      -3.624  -0.560  -9.139  0.00  0.00    +0.121 C 
ATOM      7  C   UNL     1      -3.636  -1.204  -7.734  0.00  0.00    +0.101 C 
ATOM      8  C   UNL     1      -5.104  -0.989  -7.301  0.00  0.00    +0.110 C 
ATOM      9  C   UNL     1      -5.863  -0.873  -8.605  0.00  0.00    +0.217 C 
ATOM     10  O   UNL     1      -7.065  -0.977  -8.721  0.00  0.00    -0.276 OA
BRANCH   5  11
ATOM     11  C   UNL     1      -5.410  -0.482 -11.017  0.00  0.00    +0.142 C 
BRANCH  11  16
ATOM     12  C   UNL     1      -6.509   5.088 -12.096  0.00  0.00    +0.044 C 
ATOM     13  C   UNL     1      -6.222   3.635 -11.814  0.00  0.00    -0.050 A 
ATOM     14  C   UNL     1      -4.946   3.135 -11.994  0.00  0.00    +0.003 A 
ATOM     15  C   UNL     1      -4.684   1.803 -11.736  0.00  0.00    +0.005 A 
ATOM     16  C   UNL     1      -5.697   0.971 -11.298  0.00  0.00    -0.030 A 
ATOM     17  C   UNL     1      -6.974   1.470 -11.123  0.00  0.00    +0.005 A 
ATOM     18  C   UNL     1      -7.236   2.803 -11.377  0.00  0.00    +0.003 A 
ENDBRANCH  11  16
ENDBRANCH   5  11
ENDBRANCH   1   7
BRANCH   3  19
ATOM     19  C   UNL     1      -1.727  -0.126  -4.596  0.00  0.00    +0.102 C 
BRANCH  19  20
ATOM     20  C   UNL     1      -1.878  -0.689  -3.182  0.00  0.00    +0.000 C 
BRANCH  20  21
ATOM     21  C   UNL     1      -0.917   0.037  -2.238  0.00  0.00    -0.077 C 
BRANCH  21  22
ATOM     22  N   UNL     1      -1.062  -0.504  -0.880  0.00  0.00    +0.382 N 
ATOM     23  C   UNL     1      -1.080  -1.973  -0.897  0.00  0.00    -0.097 C 
ATOM     24  C   UNL     1      -1.312  -2.495   0.523  0.00  0.00    -0.098 C 
ATOM     25  N   UNL     1      -0.247  -1.995   1.405  0.00  0.00    +0.376 N 
ATOM     26  C   UNL     1      -0.229  -0.526   1.422  0.00  0.00    -0.090 C 
ATOM     27  C   UNL     1       0.002  -0.004   0.002  0.00  0.00    -0.055 C 
ATOM     28  C   UNL     1      -0.392  -2.536   2.763  0.00  0.00    -0.096 C 
ATOM     29  H   UNL     1      -2.026  -0.157  -0.481  0.00  0.00    -0.081 HD
ATOM     30  H   UNL     1       0.717  -2.342   1.005  0.00  0.00    -0.082 HD
BRANCH  27  31
ATOM     31  C   UNL     1      -0.018   1.503   0.010  0.00  0.00    -0.063 A 
ATOM     32  C   UNL     1      -1.225   2.178   0.020  0.00  0.00    +0.002 A 
ATOM     33  C   UNL     1      -1.244   3.560   0.032  0.00  0.00    +0.000 A 
ATOM     34  C   UNL     1      -0.056   4.267   0.025  0.00  0.00    +0.000 A 
ATOM     35  C   UNL     1       1.151   3.592   0.010  0.00  0.00    +0.000 A 
ATOM     36  C   UNL     1       1.169   2.210   0.003  0.00  0.00    +0.002 A 
ENDBRANCH  27  31
ENDBRANCH  21  22
ENDBRANCH  20  21
ENDBRANCH  19  20
ENDBRANCH   3  19
TORSDOF 8
