REMARK  Name = ZINC00909079
REMARK  7 active torsions:
REMARK  status: ('A' for Active; 'I' for Inactive)
REMARK    1  A    between atoms: C_1  and  O_2
REMARK    2  A    between atoms: O_2  and  C_3
REMARK    3  A    between atoms: C_6  and  C_9
REMARK    4  A    between atoms: C_11  and  C_23
REMARK    5  A    between atoms: C_13  and  C_18
REMARK    6  A    between atoms: C_13  and  O_22
REMARK    7  A    between atoms: C_23  and  C_25
REMARK                            x       y       z     vdW  Elec       q    Type
REMARK                         _______ _______ _______ _____ _____    ______ ____
ROOT
ATOM      1  C   UNL     1       0.234  -0.263   0.166  0.00  0.00    +0.120 C 
ATOM      2  C   UNL     1       1.695  -0.436  -0.262  0.00  0.00    +0.144 C 
ATOM      3  C   UNL     1       2.545   0.605   0.473  0.00  0.00    +0.243 C 
ATOM      4  N   UNL     1       2.007   1.940   0.206  0.00  0.00    -0.264 N 
ATOM      5  C   UNL     1       0.703   2.128  -0.048  0.00  0.00    +0.302 C 
ATOM      6  O   UNL     1       0.306   3.259  -0.254  0.00  0.00    -0.253 OA
ATOM      7  N   UNL     1      -0.179   1.119  -0.085  0.00  0.00    -0.292 N 
ATOM      8  H   UNL     1       2.605   2.704   0.212  0.00  0.00    +0.153 HD
ATOM      9  H   UNL     1      -1.109   1.308  -0.285  0.00  0.00    +0.151 HD
ENDROOT
BRANCH   1  13
ATOM     10  C   UNL     1      -0.148  -1.134   4.332  0.00  0.00    +0.120 A 
ATOM     11  C   UNL     1      -0.115   0.184   3.898  0.00  0.00    +0.046 A 
ATOM     12  C   UNL     1       0.008   0.462   2.551  0.00  0.00    +0.009 A 
ATOM     13  C   UNL     1       0.099  -0.570   1.635  0.00  0.00    -0.026 A 
ATOM     14  C   UNL     1       0.060  -1.883   2.065  0.00  0.00    +0.009 A 
ATOM     15  C   UNL     1      -0.057  -2.168   3.412  0.00  0.00    +0.046 A 
BRANCH  10  17
ATOM     16  C   UNL     1      -0.297  -2.789   6.032  0.00  0.00    +0.277 C 
ATOM     17  O   UNL     1      -0.270  -1.411   5.657  0.00  0.00    -0.495 OA
ENDBRANCH  10  17
ENDBRANCH   1  13
BRANCH   3  18
ATOM     18  C   UNL     1       3.990   0.528  -0.023  0.00  0.00    +0.436 C 
ATOM     19  F   UNL     1       4.046   0.933  -1.361  0.00  0.00    -0.166 F 
ATOM     20  F   UNL     1       4.796   1.368   0.753  0.00  0.00    -0.166 F 
ATOM     21  F   UNL     1       4.451  -0.789   0.085  0.00  0.00    -0.166 F 
ENDBRANCH   3  18
BRANCH   3  22
ATOM     22  O   UNL     1       2.507   0.348   1.878  0.00  0.00    -0.364 OA
ATOM     23  H   UNL     1       3.025   0.971   2.407  0.00  0.00    +0.212 HD
ENDBRANCH   3  22
BRANCH   2  24
ATOM     24  C   UNL     1       1.815  -0.229  -1.749  0.00  0.00    +0.173 C 
ATOM     25  O   UNL     1       1.584   0.860  -2.231  0.00  0.00    -0.292 OA
BRANCH  24  26
ATOM     26  C   UNL     1       2.212  -1.348  -2.618  0.00  0.00    +0.018 A 
ATOM     27  C   UNL     1       2.355  -2.634  -2.086  0.00  0.00    +0.013 A 
ATOM     28  C   UNL     1       2.722  -3.678  -2.907  0.00  0.00    +0.020 A 
ATOM     29  C   UNL     1       2.962  -3.454  -4.254  0.00  0.00    +0.041 A 
ATOM     30  C   UNL     1       2.828  -2.182  -4.786  0.00  0.00    +0.020 A 
ATOM     31  C   UNL     1       2.455  -1.129  -3.978  0.00  0.00    +0.013 A 
ATOM     32 CL   UNL     1       3.431  -4.775  -5.279  0.00  0.00    -0.084 Cl
ENDBRANCH  24  26
ENDBRANCH   2  24
TORSDOF 6
