REMARK  Name = ZINC08442811
REMARK  8 active torsions:
REMARK  status: ('A' for Active; 'I' for Inactive)
REMARK    1  A    between atoms: C_1  and  C_2
REMARK    2  A    between atoms: C_5  and  N_9
REMARK    3  A    between atoms: C_7  and  C_8
REMARK    4  A    between atoms: C_13  and  C_14
REMARK    5  A    between atoms: C_17  and  C_19
REMARK    6  A    between atoms: C_22  and  S_25
REMARK    7  A    between atoms: S_25  and  N_28
REMARK    8  A    between atoms: C_29  and  C_31
REMARK                            x       y       z     vdW  Elec       q    Type
REMARK                         _______ _______ _______ _____ _____    ______ ____
ROOT
ATOM      1  C   UNL     1      -0.088   9.074   3.297  0.00  0.00    +0.129 A 
ATOM      2  C   UNL     1      -0.415   8.500   4.520  0.00  0.00    +0.050 A 
ATOM      3  C   UNL     1      -0.723   7.165   4.268  0.00  0.00    +0.050 A 
ATOM      4  C   UNL     1      -0.567   6.963   2.912  0.00  0.00    +0.136 A 
ATOM      5  O   UNL     1      -0.189   8.122   2.345  0.00  0.00    -0.455 OA
ENDROOT
BRANCH   1  10
ATOM      6  N   UNL     1       0.934  10.928  -0.420  0.00  0.00    -0.156 N 
ATOM      7  C   UNL     1       0.577  10.074   0.561  0.00  0.00    +0.272 C 
ATOM      8  O   UNL     1       0.302   8.892   0.439  0.00  0.00    -0.268 OA
ATOM      9  C   UNL     1       0.585  10.856   1.803  0.00  0.00    +0.065 C 
ATOM     10  C   UNL     1       0.281  10.409   3.089  0.00  0.00    +0.061 C 
ATOM     11  C   UNL     1       0.988  12.208   1.399  0.00  0.00    +0.069 C 
ATOM     12  N   UNL     1       1.175  12.194   0.114  0.00  0.00    -0.177 NA
ATOM     13  C   UNL     1       1.154  13.397   2.310  0.00  0.00    +0.068 C 
BRANCH   6  18
ATOM     14  C   UNL     1       1.404   9.567  -5.909  0.00  0.00    +0.044 C 
ATOM     15  C   UNL     1       1.280   9.929  -4.451  0.00  0.00    -0.047 A 
ATOM     16  C   UNL     1       0.900   8.967  -3.531  0.00  0.00    +0.005 A 
ATOM     17  C   UNL     1       0.785   9.296  -2.195  0.00  0.00    +0.026 A 
ATOM     18  C   UNL     1       1.050  10.592  -1.774  0.00  0.00    +0.061 A 
ATOM     19  C   UNL     1       1.426  11.556  -2.700  0.00  0.00    +0.029 A 
ATOM     20  C   UNL     1       1.545  11.220  -4.035  0.00  0.00    -0.046 A 
ATOM     21  C   UNL     1       1.957  12.265  -5.040  0.00  0.00    +0.044 C 
ENDBRANCH   6  18
ENDBRANCH   1  10
BRANCH   4  22
ATOM     22  C   UNL     1      -0.786   5.689   2.201  0.00  0.00    +0.017 A 
ATOM     23  C   UNL     1      -0.600   5.615   0.818  0.00  0.00    +0.013 A 
ATOM     24  C   UNL     1      -0.805   4.420   0.161  0.00  0.00    +0.029 A 
ATOM     25  C   UNL     1      -1.195   3.296   0.867  0.00  0.00    +0.105 A 
ATOM     26  C   UNL     1      -1.387   3.363   2.236  0.00  0.00    +0.029 A 
ATOM     27  C   UNL     1      -1.180   4.549   2.908  0.00  0.00    +0.013 A 
BRANCH  25  28
ATOM     28  S   UNL     1      -1.456   1.774   0.019  0.00  0.00    +0.056 S 
ATOM     29  O   UNL     1      -1.746   2.107  -1.332  0.00  0.00    -0.153 OA
ATOM     30  O   UNL     1      -2.344   1.008   0.822  0.00  0.00    -0.153 OA
BRANCH  28  31
ATOM     31  N   UNL     1      -0.011   0.966   0.007  0.00  0.00    -0.204 NA
ATOM     32  H   UNL     1       0.002  -0.004   0.002  0.00  0.00    +0.144 HD
ATOM     33  H   UNL     1       0.822   1.462   0.002  0.00  0.00    +0.144 HD
ENDBRANCH  28  31
ENDBRANCH  25  28
ENDBRANCH   4  22
TORSDOF 5
