REMARK  Name = ZINC13294498
REMARK  6 active torsions:
REMARK  status: ('A' for Active; 'I' for Inactive)
REMARK    1  A    between atoms: C_1  and  C_2
REMARK    2  A    between atoms: C_5  and  C_8
REMARK    3  A    between atoms: C_10  and  C_13
REMARK    4  A    between atoms: C_13  and  C_14
REMARK    5  A    between atoms: N_16  and  N_17
REMARK    6  A    between atoms: C_18  and  C_20
REMARK                            x       y       z     vdW  Elec       q    Type
REMARK                         _______ _______ _______ _____ _____    ______ ____
ROOT
ATOM      1  C   UNL     1       1.262  -6.992   2.886  0.00  0.00    +0.235 C 
ATOM      2  O   UNL     1       2.004  -6.078   2.599  0.00  0.00    -0.274 OA
ATOM      3  N   UNL     1       1.473  -7.704   4.011  0.00  0.00    -0.234 N 
ATOM      4  H   UNL     1       0.879  -8.435   4.242  0.00  0.00    +0.173 HD
ENDROOT
BRANCH   3   5
ATOM      5  N   UNL     1       2.551  -7.386   4.849  0.00  0.00    -0.229 N 
ATOM      6  C   UNL     1       2.762  -8.097   5.974  0.00  0.00    +0.280 C 
ATOM      7  O   UNL     1       2.018  -9.014   6.262  0.00  0.00    -0.267 OA
ATOM      8  H   UNL     1       3.144  -6.654   4.618  0.00  0.00    +0.173 HD
BRANCH   6   9
ATOM      9  C   UNL     1       3.898  -7.762   6.856  0.00  0.00    +0.152 A 
ATOM     10  C   UNL     1       4.251  -8.410   8.052  0.00  0.00    +0.005 A 
ATOM     11  C   UNL     1       5.350  -7.764   8.515  0.00  0.00    +0.040 A 
ATOM     12  N   UNL     1       5.636  -6.788   7.639  0.00  0.00    -0.281 N 
ATOM     13  H   UNL     1       6.377  -6.168   7.720  0.00  0.00    +0.189 HD
ATOM     14  N   UNL     1       4.785  -6.799   6.672  0.00  0.00    -0.169 NA
ATOM     15  C   UNL     1       6.065  -8.132   9.790  0.00  0.00    +0.055 C 
ATOM     16  C   UNL     1       5.133  -9.015  10.629  0.00  0.00    +0.006 C 
ATOM     17  C   UNL     1       4.582 -10.150   9.763  0.00  0.00    +0.005 C 
ATOM     18  C   UNL     1       3.596  -9.579   8.735  0.00  0.00    +0.039 C 
ENDBRANCH   6   9
ENDBRANCH   3   5
BRANCH   1  19
ATOM     19  C   UNL     1       0.102  -7.334   1.986  0.00  0.00    +0.153 C 
BRANCH  19  22
ATOM     20  C   UNL     1       0.061  -4.251  -0.021  0.00  0.00    +0.109 A 
ATOM     21  N   UNL     1       0.072  -5.098   0.998  0.00  0.00    -0.243 NA
ATOM     22  C   UNL     1       0.089  -6.396   0.806  0.00  0.00    +0.058 A 
ATOM     23  C   UNL     1       0.097  -6.894  -0.459  0.00  0.00    +0.071 A 
ATOM     24  S   UNL     1       0.068  -5.379  -1.409  0.00  0.00    -0.075 S 
BRANCH  20  29
ATOM     25  C   UNL     1      -0.018   1.503   0.010  0.00  0.00    +0.044 C 
ATOM     26  C   UNL     1       0.002  -0.004   0.002  0.00  0.00    -0.050 A 
ATOM     27  C   UNL     1       0.006  -0.686  -1.202  0.00  0.00    +0.004 A 
ATOM     28  C   UNL     1       0.025  -2.066  -1.216  0.00  0.00    +0.011 A 
ATOM     29  C   UNL     1       0.041  -2.773  -0.013  0.00  0.00    +0.007 A 
ATOM     30  C   UNL     1       0.037  -2.079   1.197  0.00  0.00    +0.011 A 
ATOM     31  C   UNL     1       0.023  -0.699   1.198  0.00  0.00    +0.004 A 
ENDBRANCH  20  29
ENDBRANCH  19  22
ENDBRANCH   1  19
TORSDOF 5
