REMARK  Name = ZINC09383483
REMARK  12 active torsions:
REMARK  status: ('A' for Active; 'I' for Inactive)
REMARK    1  A    between atoms: C_1  and  C_2
REMARK    2  A    between atoms: C_2  and  C_3
REMARK    3  A    between atoms: C_3  and  N_71
REMARK    4  A    between atoms: C_9  and  N_15
REMARK    5  A    between atoms: C_10  and  C_11
REMARK    6  A    between atoms: C_11  and  O_13
REMARK    7  A    between atoms: O_13  and  C_14
REMARK    8  A    between atoms: C_16  and  C_18
REMARK    9  A    between atoms: C_21  and  S_24
REMARK   10  A    between atoms: S_24  and  N_27
REMARK   11  A    between atoms: C_32  and  C_34
REMARK   12  A    between atoms: C_34  and  C_35
REMARK                            x       y       z     vdW  Elec       q    Type
REMARK                         _______ _______ _______ _____ _____    ______ ____
ROOT
ATOM      1  N   UNL     1      -7.532  -0.902   1.413  0.00  0.00    -0.275 N 
ATOM      2  C   UNL     1      -7.311  -0.050   0.392  0.00  0.00    +0.249 C 
ATOM      3  O   UNL     1      -8.228   0.608  -0.060  0.00  0.00    -0.270 OA
ATOM      4  H   UNL     1      -6.801  -1.427   1.773  0.00  0.00    +0.156 HD
ENDROOT
BRANCH   1  10
ATOM      5  C   UNL     1     -12.601  -1.953   4.843  0.00  0.00    -0.074 C 
ATOM      6  C   UNL     1     -11.262  -2.601   4.479  0.00  0.00    +0.018 C 
ATOM      7  C   UNL     1     -10.627  -1.783   3.361  0.00  0.00    -0.025 A 
ATOM      8  C   UNL     1     -11.380  -0.926   2.635  0.00  0.00    -0.021 A 
ATOM      9  S   UNL     1     -10.253  -0.199   1.483  0.00  0.00    -0.079 S 
ATOM     10  C   UNL     1      -8.803  -1.027   1.948  0.00  0.00    +0.086 A 
ATOM     11  C   UNL     1      -9.225  -1.843   2.991  0.00  0.00    +0.091 A 
ATOM     12  C   UNL     1     -12.845  -0.670   2.803  0.00  0.00    -0.035 C 
ATOM     13  N   UNL     1     -13.408  -1.774   3.619  0.00  0.00    +0.383 N 
ATOM     14  H   UNL     1     -13.382  -2.642   3.071  0.00  0.00    -0.081 HD
BRANCH  11  15
ATOM     15  C   UNL     1      -8.291  -2.728   3.689  0.00  0.00    +0.342 C 
ATOM     16  O   UNL     1      -7.689  -2.328   4.667  0.00  0.00    -0.245 OA
BRANCH  15  17
ATOM     17  O   UNL     1      -8.099  -3.988   3.248  0.00  0.00    -0.464 OA
ATOM     18  C   UNL     1      -7.158  -4.810   3.989  0.00  0.00    +0.280 C 
ENDBRANCH  15  17
ENDBRANCH  11  15
BRANCH  13  19
ATOM     19  C   UNL     1     -14.811  -1.473   3.977  0.00  0.00    -0.079 C 
BRANCH  19  21
ATOM     20  C   UNL     1     -16.339   0.046   5.242  0.00  0.00    +0.002 C 
ATOM     21  C   UNL     1     -14.880  -0.243   4.884  0.00  0.00    -0.022 C 
ENDBRANCH  19  21
ENDBRANCH  13  19
ENDBRANCH   1  10
BRANCH   2  22
ATOM     22  C   UNL     1      -5.954   0.083  -0.178  0.00  0.00    +0.037 A 
ATOM     23  C   UNL     1      -5.722   0.964  -1.236  0.00  0.00    +0.015 A 
ATOM     24  C   UNL     1      -4.453   1.084  -1.764  0.00  0.00    +0.029 A 
ATOM     25  C   UNL     1      -3.412   0.332  -1.248  0.00  0.00    +0.106 A 
ATOM     26  C   UNL     1      -3.637  -0.547  -0.204  0.00  0.00    +0.029 A 
ATOM     27  C   UNL     1      -4.899  -0.671   0.338  0.00  0.00    +0.015 A 
BRANCH  25  28
ATOM     28  S   UNL     1      -1.795   0.491  -1.929  0.00  0.00    +0.061 S 
ATOM     29  O   UNL     1      -1.944   1.142  -3.183  0.00  0.00    -0.153 OA
ATOM     30  O   UNL     1      -1.174  -0.781  -1.800  0.00  0.00    -0.153 OA
BRANCH  28  31
ATOM     31  N   UNL     1      -0.952   1.530  -0.953  0.00  0.00    -0.174 NA
ATOM     32  C   UNL     1      -0.027   1.016   0.066  0.00  0.00    +0.110 C 
ATOM     33  C   UNL     1      -0.396   1.624   1.423  0.00  0.00    +0.017 C 
ATOM     34  C   UNL     1      -0.420   3.150   1.303  0.00  0.00    +0.003 C 
ATOM     35  C   UNL     1      -1.476   3.570   0.279  0.00  0.00    +0.021 C 
ATOM     36  C   UNL     1      -1.116   2.984  -1.090  0.00  0.00    +0.080 C 
BRANCH  36  37
ATOM     37  C   UNL     1      -2.235   3.282  -2.090  0.00  0.00    +0.017 C 
ATOM     38  C   UNL     1      -2.486   4.790  -2.139  0.00  0.00    +0.005 C 
ENDBRANCH  36  37
ENDBRANCH  28  31
ENDBRANCH  25  28
ENDBRANCH   2  22
TORSDOF 9
