REMARK  Name = ZINC50866923
REMARK  4 active torsions:
REMARK  status: ('A' for Active; 'I' for Inactive)
REMARK    1  A    between atoms: C_1  and  C_2
REMARK    2  A    between atoms: C_2  and  C_3
REMARK    3  A    between atoms: C_5  and  N_19
REMARK    4  A    between atoms: C_7  and  C_9
REMARK                            x       y       z     vdW  Elec       q    Type
REMARK                         _______ _______ _______ _____ _____    ______ ____
ROOT
ATOM      1  C   UNL     1      -1.412  -0.526   0.013  0.00  0.00    +0.047 A 
ATOM      2  C   UNL     1      -1.838  -1.409  -0.962  0.00  0.00    +0.066 A 
ATOM      3  C   UNL     1      -3.156  -1.868  -0.915  0.00  0.00    +0.120 A 
ATOM      4  N   UNL     1      -3.953  -1.444   0.060  0.00  0.00    -0.213 NA
ATOM      5  C   UNL     1      -3.505  -0.596   0.977  0.00  0.00    +0.162 A 
ATOM      6  N   UNL     1      -2.257  -0.147   0.959  0.00  0.00    -0.232 NA
ENDROOT
BRANCH   5   7
ATOM      7  C   UNL     1      -4.421  -0.142   2.050  0.00  0.00    +0.024 A 
ATOM      8  C   UNL     1      -5.734  -0.610   2.092  0.00  0.00    +0.061 A 
ATOM      9  C   UNL     1      -6.586  -0.186   3.095  0.00  0.00    +0.168 A 
ATOM     10  C   UNL     1      -6.132   0.709   4.062  0.00  0.00    +0.180 A 
ATOM     11  C   UNL     1      -4.825   1.174   4.019  0.00  0.00    +0.064 A 
ATOM     12  C   UNL     1      -3.970   0.749   3.022  0.00  0.00    +0.030 A 
ATOM     13 BR   UNL     1      -4.212   2.388   5.333  0.00  0.00    -0.046 Br
ATOM     14  O   UNL     1      -7.153   0.968   4.930  0.00  0.00    -0.451 OA
ATOM     15  C   UNL     1      -8.351   0.545   4.252  0.00  0.00    +0.466 C 
ATOM     16  O   UNL     1      -7.892  -0.486   3.358  0.00  0.00    -0.453 OA
ENDBRANCH   5   7
BRANCH   3  17
ATOM     17  N   UNL     1      -3.627  -2.753  -1.871  0.00  0.00    -0.343 N 
ATOM     18  H   UNL     1      -3.039  -3.059  -2.580  0.00  0.00    +0.144 HD
ATOM     19  H   UNL     1      -4.543  -3.068  -1.832  0.00  0.00    +0.144 HD
ENDBRANCH   3  17
BRANCH   1  21
ATOM     20  C   UNL     1      -0.019   1.526   0.010  0.00  0.00    +0.010 C 
ATOM     21  C   UNL     1       0.002  -0.004   0.002  0.00  0.00    +0.052 C 
ENDBRANCH   1  21
TORSDOF 3
