REMARK  Name = ZINC28956804
REMARK  8 active torsions:
REMARK  status: ('A' for Active; 'I' for Inactive)
REMARK    1  A    between atoms: C_1  and  C_2
REMARK    2  A    between atoms: N_6  and  C_12
REMARK    3  A    between atoms: C_7  and  C_9
REMARK    4  A    between atoms: C_16  and  C_18
REMARK    5  A    between atoms: C_18  and  C_19
REMARK    6  A    between atoms: C_19  and  C_21
REMARK    7  A    between atoms: C_19  and  N_31
REMARK    8  A    between atoms: C_21  and  C_22
REMARK                            x       y       z     vdW  Elec       q    Type
REMARK                         _______ _______ _______ _____ _____    ______ ____
ROOT
ATOM      1  C   UNL     1       1.917   2.109   1.386  0.00  0.00    +0.035 C 
ATOM      2  C   UNL     1       1.269   2.185   0.002  0.00  0.00    +0.121 C 
ATOM      3  C   UNL     1       2.154   1.508  -1.018  0.00  0.00    +0.057 A 
ATOM      4  C   UNL     1       1.864   0.321  -1.592  0.00  0.00    +0.042 A 
ATOM      5  N   UNL     1       2.888   0.029  -2.441  0.00  0.00    -0.335 N 
ATOM      6  C   UNL     1       3.772   1.050  -2.362  0.00  0.00    +0.090 A 
ATOM      7  N   UNL     1       3.322   1.931  -1.506  0.00  0.00    -0.345 N 
ATOM      8  C   UNL     1       3.010  -1.165  -3.281  0.00  0.00    +0.150 C 
ATOM      9  C   UNL     1       0.625  -0.490  -1.313  0.00  0.00    +0.074 C 
ATOM     10  C   UNL     1       0.002  -0.004   0.002  0.00  0.00    +0.114 C 
ATOM     11  N   UNL     1      -0.018   1.466   0.010  0.00  0.00    -0.293 N 
ATOM     12  C   UNL     1      -1.185   2.141   0.019  0.00  0.00    +0.215 C 
ATOM     13  O   UNL     1      -1.184   3.353   0.026  0.00  0.00    -0.276 OA
ATOM     14  H   UNL     1       3.745   2.888  -1.169  0.00  0.00    +0.167 HD
ENDROOT
BRANCH   6  15
ATOM     15  C   UNL     1       5.063   1.155  -3.133  0.00  0.00    +0.053 C 
ATOM     16  C   UNL     1       6.021   2.287  -2.756  0.00  0.00    +0.012 C 
ATOM     17  C   UNL     1       5.233   2.356  -4.065  0.00  0.00    +0.012 C 
ENDBRANCH   6  15
BRANCH  12  18
ATOM     18  C   UNL     1      -2.490   1.388   0.021  0.00  0.00    +0.080 C 
BRANCH  18  19
ATOM     19  C   UNL     1      -3.653   2.382   0.032  0.00  0.00    -0.062 C 
BRANCH  19  20
ATOM     20  N   UNL     1      -3.638   3.139   1.292  0.00  0.00    +0.381 N 
ATOM     21  H   UNL     1      -4.474   3.854   1.300  0.00  0.00    -0.090 HD
ATOM     22  H   UNL     1      -2.687   3.685   1.381  0.00  0.00    -0.090 HD
ATOM     23  H   UNL     1      -3.742   2.444   2.138  0.00  0.00    -0.090 HD
ENDBRANCH  19  20
BRANCH  19  24
ATOM     24  C   UNL     1      -4.975   1.623  -0.091  0.00  0.00    +0.022 C 
BRANCH  24  25
ATOM     25  C   UNL     1      -6.111   2.607  -0.204  0.00  0.00    -0.011 A 
ATOM     26  C   UNL     1      -6.817   2.979   0.925  0.00  0.00    +0.047 A 
ATOM     27  C   UNL     1      -7.856   3.887   0.823  0.00  0.00    +0.159 A 
ATOM     28  C   UNL     1      -8.197   4.414  -0.413  0.00  0.00    +0.161 A 
ATOM     29  C   UNL     1      -7.494   4.037  -1.543  0.00  0.00    +0.080 A 
ATOM     30  C   UNL     1      -6.450   3.133  -1.438  0.00  0.00    +0.129 A 
ATOM     31  F   UNL     1      -5.763   2.764  -2.542  0.00  0.00    -0.205 F 
ATOM     32  F   UNL     1      -9.216   5.296  -0.514  0.00  0.00    -0.202 F 
ATOM     33  F   UNL     1      -8.542   4.255   1.927  0.00  0.00    -0.202 F 
ENDBRANCH  24  25
ENDBRANCH  19  24
ENDBRANCH  18  19
ENDBRANCH  12  18
TORSDOF 6
