REMARK  Name = ZINC06721676
REMARK  5 active torsions:
REMARK  status: ('A' for Active; 'I' for Inactive)
REMARK    1  A    between atoms: C_1  and  C_2
REMARK    2  A    between atoms: C_5  and  O_30
REMARK    3  A    between atoms: C_6  and  C_8
REMARK    4  A    between atoms: C_21  and  C_23
REMARK    5  A    between atoms: C_27  and  O_29
REMARK                            x       y       z     vdW  Elec       q    Type
REMARK                         _______ _______ _______ _____ _____    ______ ____
ROOT
ATOM      1  C   UNL     1       3.354  -0.534   1.359  0.00  0.00    +0.072 C 
ATOM      2  N   UNL     1       2.308   0.199   1.158  0.00  0.00    -0.184 NA
ATOM      3  N   UNL     1       1.245  -0.495   0.609  0.00  0.00    -0.205 N 
ATOM      4  C   UNL     1       1.554  -1.943   0.636  0.00  0.00    +0.136 C 
ATOM      5  C   UNL     1       3.055  -1.963   0.953  0.00  0.00    +0.086 C 
ATOM      6  C   UNL     1       1.262  -2.464  -0.747  0.00  0.00    +0.017 A 
ATOM      7  C   UNL     1       1.759  -3.699  -1.122  0.00  0.00    +0.009 A 
ATOM      8  C   UNL     1       1.485  -4.210  -2.376  0.00  0.00    +0.001 A 
ATOM      9  C   UNL     1       0.710  -3.480  -3.259  0.00  0.00    +0.004 A 
ATOM     10  C   UNL     1       0.220  -2.245  -2.892  0.00  0.00    +0.046 A 
ATOM     11  C   UNL     1       0.497  -1.718  -1.630  0.00  0.00    +0.129 A 
ATOM     12  O   UNL     1      -0.004  -0.489  -1.346  0.00  0.00    -0.465 OA
ATOM     13  C   UNL     1       0.002  -0.004   0.002  0.00  0.00    +0.310 C 
ENDROOT
BRANCH   1  19
ATOM     14  C   UNL     1       8.051  -1.443   2.765  0.00  0.00    +0.044 C 
ATOM     15  C   UNL     1       6.903  -0.485   2.578  0.00  0.00    -0.050 A 
ATOM     16  C   UNL     1       7.057   0.849   2.914  0.00  0.00    +0.007 A 
ATOM     17  C   UNL     1       6.011   1.737   2.747  0.00  0.00    +0.046 A 
ATOM     18  C   UNL     1       4.801   1.297   2.236  0.00  0.00    +0.126 A 
ATOM     19  C   UNL     1       4.639  -0.054   1.899  0.00  0.00    +0.039 A 
ATOM     20  C   UNL     1       5.704  -0.941   2.072  0.00  0.00    +0.016 A 
BRANCH  18  21
ATOM     21  O   UNL     1       3.774   2.170   2.066  0.00  0.00    -0.506 OA
ATOM     22  H   UNL     1       3.196   2.252   2.837  0.00  0.00    +0.292 HD
ENDBRANCH  18  21
ENDBRANCH   1  19
BRANCH  13  23
ATOM     23  C   UNL     1      -0.018   1.503   0.010  0.00  0.00    +0.016 A 
ATOM     24  C   UNL     1       1.170   2.210   0.003  0.00  0.00    +0.009 A 
ATOM     25  C   UNL     1       1.155   3.592   0.010  0.00  0.00    +0.004 A 
ATOM     26  C   UNL     1      -0.049   4.271   0.025  0.00  0.00    +0.045 A 
ATOM     27  C   UNL     1      -1.242   3.564   0.033  0.00  0.00    +0.117 A 
ATOM     28  C   UNL     1      -1.224   2.176   0.020  0.00  0.00    +0.054 A 
BRANCH  27  29
ATOM     29  O   UNL     1      -2.427   4.229   0.048  0.00  0.00    -0.507 OA
ATOM     30  H   UNL     1      -2.779   4.427  -0.831  0.00  0.00    +0.292 HD
ENDBRANCH  27  29
ENDBRANCH  13  23
TORSDOF 4
