REMARK  Name = ZINC35756377
REMARK  11 active torsions:
REMARK  status: ('A' for Active; 'I' for Inactive)
REMARK    1  A    between atoms: C_1  and  C_2
REMARK    2  A    between atoms: C_2  and  C_3
REMARK    3  A    between atoms: C_2  and  C_4
REMARK    4  A    between atoms: C_4  and  C_5
REMARK    5  A    between atoms: C_5  and  N_6
REMARK    6  A    between atoms: C_7  and  C_9
REMARK    7  A    between atoms: C_11  and  C_24
REMARK    8  A    between atoms: N_16  and  C_17
REMARK    9  A    between atoms: C_17  and  C_18
REMARK   10  A    between atoms: C_27  and  N_30
REMARK   11  A    between atoms: C_31  and  C_33
REMARK                            x       y       z     vdW  Elec       q    Type
REMARK                         _______ _______ _______ _____ _____    ______ ____
ROOT
ATOM      1  C   UNL     1      -5.755  -1.070  -2.172  0.00  0.00    +0.210 C 
ATOM      2  C   UNL     1      -6.649   0.024  -1.541  0.00  0.00    +0.238 C 
ATOM      3  O   UNL     1      -7.007   0.817  -2.689  0.00  0.00    -0.440 OA
ATOM      4  C   UNL     1      -6.950   0.027  -3.774  0.00  0.00    +0.405 C 
ATOM      5  O   UNL     1      -7.498   0.290  -4.827  0.00  0.00    -0.226 OA
ATOM      6  N   UNL     1      -6.221  -1.092  -3.572  0.00  0.00    -0.248 N 
ENDROOT
BRANCH   2   7
ATOM      7  C   UNL     1      -5.873   0.842  -0.541  0.00  0.00    -0.005 A 
ATOM      8  C   UNL     1      -5.121   1.921  -0.967  0.00  0.00    +0.009 A 
ATOM      9  C   UNL     1      -4.409   2.672  -0.053  0.00  0.00    +0.024 A 
ATOM     10  C   UNL     1      -4.449   2.344   1.296  0.00  0.00    +0.034 A 
ATOM     11  C   UNL     1      -5.207   1.260   1.721  0.00  0.00    +0.024 A 
ATOM     12  C   UNL     1      -5.920   0.515   0.802  0.00  0.00    +0.009 A 
BRANCH  10  13
ATOM     13  N   UNL     1      -3.729   3.103   2.224  0.00  0.00    -0.281 N 
ATOM     14  C   UNL     1      -3.565   4.426   2.030  0.00  0.00    +0.251 C 
ATOM     15  O   UNL     1      -4.122   4.978   1.101  0.00  0.00    -0.270 OA
ATOM     16  H   UNL     1      -3.348   2.676   3.007  0.00  0.00    +0.155 HD
BRANCH  14  17
ATOM     17  C   UNL     1      -2.708   5.206   2.945  0.00  0.00    +0.072 A 
ATOM     18  C   UNL     1      -2.062   4.574   4.010  0.00  0.00    +0.016 A 
ATOM     19  C   UNL     1      -1.263   5.308   4.861  0.00  0.00    +0.001 A 
ATOM     20  C   UNL     1      -1.100   6.669   4.664  0.00  0.00    +0.003 A 
ATOM     21  C   UNL     1      -1.736   7.303   3.613  0.00  0.00    +0.039 A 
ATOM     22  C   UNL     1      -2.535   6.579   2.747  0.00  0.00    +0.135 A 
ATOM     23  F   UNL     1      -3.151   7.198   1.716  0.00  0.00    -0.205 F 
ENDBRANCH  14  17
ENDBRANCH  10  13
ENDBRANCH   2   7
BRANCH   1  25
ATOM     24  N   UNL     1      -3.600  -0.908  -0.967  0.00  0.00    -0.314 N 
ATOM     25  C   UNL     1      -4.300  -0.683  -2.097  0.00  0.00    +0.238 C 
ATOM     26  O   UNL     1      -3.759  -0.170  -3.053  0.00  0.00    -0.274 OA
ATOM     27  H   UNL     1      -4.033  -1.319  -0.202  0.00  0.00    +0.149 HD
BRANCH  24  28
ATOM     28  C   UNL     1      -2.186  -0.532  -0.894  0.00  0.00    +0.104 C 
BRANCH  28  29
ATOM     29  C   UNL     1      -1.633  -0.893   0.486  0.00  0.00    +0.022 C 
BRANCH  29  31
ATOM     30  C   UNL     1      -0.027   1.021   0.460  0.00  0.00    +0.007 C 
ATOM     31  C   UNL     1      -0.156  -0.500   0.562  0.00  0.00    -0.016 C 
ATOM     32  C   UNL     1       0.429  -0.973   1.894  0.00  0.00    +0.007 C 
ENDBRANCH  29  31
ENDBRANCH  28  29
ENDBRANCH  24  28
ENDBRANCH   1  25
BRANCH   6  33
ATOM     33  C   UNL     1      -5.942  -2.139  -4.559  0.00  0.00    +0.147 C 
BRANCH  33  34
ATOM     34  C   UNL     1      -7.021  -3.189  -4.496  0.00  0.00    -0.030 A 
ATOM     35  C   UNL     1      -6.883  -4.270  -3.645  0.00  0.00    +0.005 A 
ATOM     36  C   UNL     1      -7.872  -5.234  -3.587  0.00  0.00    +0.000 A 
ATOM     37  C   UNL     1      -8.999  -5.117  -4.379  0.00  0.00    +0.000 A 
ATOM     38  C   UNL     1      -9.137  -4.035  -5.229  0.00  0.00    +0.000 A 
ATOM     39  C   UNL     1      -8.150  -3.069  -5.284  0.00  0.00    +0.005 A 
ENDBRANCH  33  34
ENDBRANCH   6  33
TORSDOF 9
