REMARK  Name = ZINC04945355
REMARK  3 active torsions:
REMARK  status: ('A' for Active; 'I' for Inactive)
REMARK    1  A    between atoms: C_6  and  C_7
REMARK    2  A    between atoms: C_7  and  S_8
REMARK    3  A    between atoms: S_8  and  C_9
REMARK                            x       y       z     vdW  Elec       q    Type
REMARK                         _______ _______ _______ _____ _____    ______ ____
ROOT
ATOM      1  C   UNL     1      -3.334  -1.973  -1.519  0.00  0.00    +0.138 A 
ATOM      2  N   UNL     1      -3.936  -2.337  -0.406  0.00  0.00    -0.215 NA
ATOM      3  C   UNL     1      -5.079  -3.019  -0.408  0.00  0.00    +0.153 A 
ATOM      4  C   UNL     1      -5.568  -3.304  -1.688  0.00  0.00    +0.104 A 
ATOM      5  S   UNL     1      -4.343  -2.560  -2.733  0.00  0.00    -0.056 S 
ATOM      6  C   UNL     1      -6.748  -4.007  -1.893  0.00  0.00    +0.201 A 
ATOM      7  C   UNL     1      -7.466  -4.440  -0.784  0.00  0.00    +0.122 A 
ATOM      8  C   UNL     1      -6.973  -4.152   0.490  0.00  0.00    +0.254 A 
ATOM      9  O   UNL     1      -7.599  -4.530   1.468  0.00  0.00    -0.268 OA
ATOM     10  N   UNL     1      -5.832  -3.472   0.669  0.00  0.00    -0.306 N 
ATOM     11  H   UNL     1      -5.524  -3.293   1.571  0.00  0.00    +0.170 HD
ATOM     12  O   UNL     1      -7.191  -4.264  -3.147  0.00  0.00    -0.286 OA
ENDROOT
BRANCH   1  13
ATOM     13  S   UNL     1      -1.829  -1.075  -1.697  0.00  0.00    -0.094 S 
BRANCH  13  14
ATOM     14  C   UNL     1      -1.293  -0.775   0.010  0.00  0.00    +0.111 C 
BRANCH  14  20
ATOM     15  C   UNL     1      -0.017   1.378   0.010  0.00  0.00    +0.005 A 
ATOM     16  C   UNL     1       1.171   2.086   0.002  0.00  0.00    +0.015 A 
ATOM     17  C   UNL     1       2.378   1.411  -0.013  0.00  0.00    +0.018 A 
ATOM     18  C   UNL     1       2.396   0.027  -0.021  0.00  0.00    +0.015 A 
ATOM     19  C   UNL     1       1.208  -0.679  -0.013  0.00  0.00    +0.005 A 
ATOM     20  C   UNL     1       0.002  -0.004   0.002  0.00  0.00    -0.037 A 
ATOM     21 BR   UNL     1       4.003   2.378  -0.024  0.00  0.00    -0.050 Br
ENDBRANCH  14  20
ENDBRANCH  13  14
ENDBRANCH   1  13
TORSDOF 3
