REMARK  Name = ZINC67247593
REMARK  7 active torsions:
REMARK  status: ('A' for Active; 'I' for Inactive)
REMARK    1  A    between atoms: C_4  and  C_24
REMARK    2  A    between atoms: C_5  and  C_7
REMARK    3  A    between atoms: C_7  and  N_8
REMARK    4  A    between atoms: N_8  and  C_9
REMARK    5  A    between atoms: C_9  and  C_10
REMARK    6  A    between atoms: C_13  and  C_15
REMARK    7  A    between atoms: C_24  and  O_25
REMARK                            x       y       z     vdW  Elec       q    Type
REMARK                         _______ _______ _______ _____ _____    ______ ____
ROOT
ATOM      1  C   UNL     1       1.510  -4.149   1.330  0.00  0.00    -0.006 C 
ENDROOT
BRANCH   1   2
ATOM      2  C   UNL     1       1.779  -4.655   2.723  0.00  0.00    +0.089 A 
ATOM      3  C   UNL     1       0.841  -4.941   3.650  0.00  0.00    +0.043 A 
ATOM      4  C   UNL     1       1.518  -5.381   4.801  0.00  0.00    +0.052 A 
ATOM      5  C   UNL     1       2.849  -5.341   4.513  0.00  0.00    +0.160 A 
ATOM      6  O   UNL     1       2.990  -4.903   3.245  0.00  0.00    -0.460 OA
BRANCH   5   7
ATOM      7  C   UNL     1       3.942  -5.715   5.423  0.00  0.00    +0.144 A 
ATOM      8  N   UNL     1       3.871  -6.157   6.662  0.00  0.00    -0.236 NA
ATOM      9  C   UNL     1       4.966  -6.464   7.384  0.00  0.00    +0.079 A 
ATOM     10  C   UNL     1       5.030  -6.944   8.714  0.00  0.00    +0.029 A 
ATOM     11  C   UNL     1       6.227  -7.207   9.304  0.00  0.00    +0.002 A 
ATOM     12  C   UNL     1       7.427  -7.017   8.633  0.00  0.00    +0.001 A 
ATOM     13  C   UNL     1       7.409  -6.549   7.332  0.00  0.00    +0.017 A 
ATOM     14  C   UNL     1       6.206  -6.281   6.727  0.00  0.00    +0.040 A 
ATOM     15  S   UNL     1       5.705  -5.692   5.128  0.00  0.00    -0.064 S 
ENDBRANCH   5   7
ENDBRANCH   1   2
BRANCH   1  16
ATOM     16  N   UNL     1       1.490  -2.680   1.338  0.00  0.00    +0.386 N 
ATOM     17  H   UNL     1       2.383  -2.333   1.656  0.00  0.00    -0.085 HD
ATOM     18  H   UNL     1       0.764  -2.357   1.959  0.00  0.00    -0.085 HD
BRANCH  16  19
ATOM     19  C   UNL     1       1.229  -2.186  -0.020  0.00  0.00    -0.046 C 
BRANCH  19  24
ATOM     20  C   UNL     1      -0.017   1.378   0.010  0.00  0.00    +0.000 A 
ATOM     21  C   UNL     1       1.171   2.085   0.002  0.00  0.00    +0.000 A 
ATOM     22  C   UNL     1       2.377   1.411  -0.013  0.00  0.00    +0.006 A 
ATOM     23  C   UNL     1       2.396   0.028  -0.020  0.00  0.00    -0.021 A 
ATOM     24  C   UNL     1       1.209  -0.679  -0.012  0.00  0.00    -0.059 A 
ATOM     25  C   UNL     1       0.002  -0.004   0.002  0.00  0.00    +0.002 A 
BRANCH  23  26
ATOM     26  C   UNL     1       3.711  -0.707  -0.038  0.00  0.00    +0.191 C 
BRANCH  26  27
ATOM     27  O   UNL     1       4.785   0.236  -0.044  0.00  0.00    -0.390 OA
ATOM     28  H   UNL     1       5.663  -0.168  -0.055  0.00  0.00    +0.210 HD
ENDBRANCH  26  27
ENDBRANCH  23  26
ENDBRANCH  19  24
ENDBRANCH  16  19
ENDBRANCH   1  16
TORSDOF 7
