REMARK  Name = ZINC39596380
REMARK  9 active torsions:
REMARK  status: ('A' for Active; 'I' for Inactive)
REMARK    1  A    between atoms: C_1  and  C_2
REMARK    2  A    between atoms: C_4  and  C_11
REMARK    3  A    between atoms: C_5  and  C_7
REMARK    4  A    between atoms: C_15  and  C_24
REMARK    5  A    between atoms: N_26  and  C_27
REMARK    6  A    between atoms: C_27  and  C_28
REMARK    7  A    between atoms: C_28  and  C_30
REMARK    8  A    between atoms: C_28  and  O_31
REMARK    9  A    between atoms: O_31  and  C_32
REMARK                            x       y       z     vdW  Elec       q    Type
REMARK                         _______ _______ _______ _____ _____    ______ ____
ROOT
ATOM      1  C   UNL     1      -1.397  -3.490   0.089  0.00  0.00    +0.250 C 
ATOM      2  O   UNL     1      -0.850  -4.572  -0.009  0.00  0.00    -0.270 OA
ATOM      3  N   UNL     1      -2.739  -3.420   0.183  0.00  0.00    -0.296 N 
ATOM      4  C   UNL     1      -3.587  -2.204   0.187  0.00  0.00    +0.121 C 
ATOM      5  C   UNL     1      -4.824  -2.589  -0.656  0.00  0.00    +0.100 C 
ATOM      6  C   UNL     1      -4.895  -4.123  -0.572  0.00  0.00    -0.004 C 
ATOM      7  C   UNL     1      -3.702  -4.541   0.300  0.00  0.00    +0.115 C 
ATOM      8  C   UNL     1      -4.763  -4.735  -1.963  0.00  0.00    -0.010 C 
ATOM      9  C   UNL     1      -4.894  -6.257  -1.860  0.00  0.00    -0.082 C 
ATOM     10  N   UNL     1      -6.195  -6.600  -1.273  0.00  0.00    +0.379 N 
ATOM     11  C   UNL     1      -6.277  -6.086   0.100  0.00  0.00    -0.082 C 
ATOM     12  C   UNL     1      -6.204  -4.557   0.080  0.00  0.00    -0.010 C 
ATOM     13  H   UNL     1      -6.931  -6.190  -1.828  0.00  0.00    -0.086 HD
ATOM     14  H   UNL     1      -6.304  -7.603  -1.262  0.00  0.00    -0.086 HD
ENDROOT
BRANCH   1  18
ATOM     15  C   UNL     1       0.169   1.296   0.908  0.00  0.00    +0.086 C 
ATOM     16  C   UNL     1       0.082  -0.145   0.475  0.00  0.00    +0.103 A 
ATOM     17  C   UNL     1      -0.955  -0.965   0.708  0.00  0.00    +0.058 A 
ATOM     18  C   UNL     1      -0.591  -2.256   0.105  0.00  0.00    +0.087 A 
ATOM     19  C   UNL     1       0.647  -2.073  -0.436  0.00  0.00    +0.220 A 
ATOM     20  O   UNL     1       1.025  -0.811  -0.209  0.00  0.00    -0.455 OA
BRANCH  19  21
ATOM     21  C   UNL     1       1.452  -3.114  -1.171  0.00  0.00    +0.451 C 
ATOM     22  F   UNL     1       1.148  -3.061  -2.535  0.00  0.00    -0.163 F 
ATOM     23  F   UNL     1       2.816  -2.865  -0.987  0.00  0.00    -0.163 F 
ATOM     24  F   UNL     1       1.137  -4.383  -0.672  0.00  0.00    -0.163 F 
ENDBRANCH  19  21
ENDBRANCH   1  18
BRANCH   5  25
ATOM     25  C   UNL     1      -6.069  -1.971  -0.073  0.00  0.00    +0.218 C 
ATOM     26  O   UNL     1      -6.110  -1.687   1.106  0.00  0.00    -0.275 OA
ATOM     27  N   UNL     1      -7.136  -1.734  -0.861  0.00  0.00    -0.312 N 
ATOM     28  H   UNL     1      -7.103  -1.960  -1.803  0.00  0.00    +0.149 HD
BRANCH  27  29
ATOM     29  C   UNL     1      -8.346  -1.133  -0.294  0.00  0.00    +0.148 C 
BRANCH  29  30
ATOM     30  C   UNL     1      -9.398  -0.972  -1.393  0.00  0.00    +0.187 C 
ATOM     31  C   UNL     1     -10.614  -0.232  -0.831  0.00  0.00    +0.053 C 
BRANCH  30  32
ATOM     32  O   UNL     1      -9.800  -2.261  -1.861  0.00  0.00    -0.488 OA
BRANCH  32  33
ATOM     33  C   UNL     1     -10.308  -2.330  -3.120  0.00  0.00    +0.121 A 
ATOM     34  C   UNL     1     -10.324  -1.201  -3.925  0.00  0.00    +0.048 A 
ATOM     35  C   UNL     1     -10.841  -1.273  -5.204  0.00  0.00    +0.042 A 
ATOM     36  C   UNL     1     -11.343  -2.471  -5.682  0.00  0.00    +0.124 A 
ATOM     37  C   UNL     1     -11.327  -3.599  -4.880  0.00  0.00    +0.042 A 
ATOM     38  C   UNL     1     -10.805  -3.532  -3.603  0.00  0.00    +0.048 A 
ATOM     39  F   UNL     1     -11.848  -2.540  -6.933  0.00  0.00    -0.205 F 
ENDBRANCH  32  33
ENDBRANCH  30  32
ENDBRANCH  29  30
ENDBRANCH  27  29
ENDBRANCH   5  25
TORSDOF 7
