REMARK  Name = ZINC40988504
REMARK  6 active torsions:
REMARK  status: ('A' for Active; 'I' for Inactive)
REMARK    1  A    between atoms: C_5  and  C_7
REMARK    2  A    between atoms: C_7  and  C_9
REMARK    3  A    between atoms: C_7  and  N_30
REMARK    4  A    between atoms: C_9  and  N_10
REMARK    5  A    between atoms: C_11  and  C_13
REMARK    6  A    between atoms: N_16  and  C_18
REMARK                            x       y       z     vdW  Elec       q    Type
REMARK                         _______ _______ _______ _____ _____    ______ ____
ROOT
ATOM      1  N   UNL     1       1.087  -4.153   1.450  0.00  0.00    -0.311 N 
ATOM      2  C   UNL     1       1.032  -4.807   2.627  0.00  0.00    +0.264 C 
ATOM      3  O   UNL     1       1.192  -4.200   3.668  0.00  0.00    -0.268 OA
ATOM      4  H   UNL     1       0.959  -4.637   0.619  0.00  0.00    +0.149 HD
ENDROOT
BRANCH   2   5
ATOM      5  C   UNL     1       0.777  -6.262   2.652  0.00  0.00    +0.150 A 
ATOM      6  C   UNL     1       0.685  -7.078   3.792  0.00  0.00    +0.006 A 
ATOM      7  C   UNL     1       0.445  -8.332   3.334  0.00  0.00    +0.044 A 
ATOM      8  N   UNL     1       0.394  -8.262   1.993  0.00  0.00    -0.263 N 
ATOM      9  N   UNL     1       0.584  -7.048   1.607  0.00  0.00    -0.166 NA
ATOM     10  C   UNL     1       0.280  -9.535   4.226  0.00  0.00    +0.055 C 
ATOM     11  C   UNL     1       0.831  -9.185   5.614  0.00  0.00    +0.006 C 
ATOM     12  C   UNL     1       0.235  -7.856   6.085  0.00  0.00    +0.005 C 
ATOM     13  C   UNL     1       0.814  -6.709   5.244  0.00  0.00    +0.039 C 
BRANCH   8  14
ATOM     14  C   UNL     1       0.152  -9.399   1.102  0.00  0.00    +0.130 C 
ATOM     15  C   UNL     1       1.334  -9.559   0.132  0.00  0.00    +0.051 C 
ATOM     16  C   UNL     1       0.954 -10.536  -1.007  0.00  0.00    +0.168 C 
ATOM     17  S   UNL     1      -0.870 -10.330  -1.123  0.00  0.00    -0.029 S 
ATOM     18  O   UNL     1      -1.186  -9.685  -2.349  0.00  0.00    -0.174 OA
ATOM     19  O   UNL     1      -1.496 -11.565  -0.801  0.00  0.00    -0.174 OA
ATOM     20  C   UNL     1      -1.132  -9.144   0.262  0.00  0.00    +0.192 C 
ENDBRANCH   8  14
ENDBRANCH   2   5
BRANCH   1  21
ATOM     21  C   UNL     1       1.340  -2.710   1.425  0.00  0.00    +0.094 C 
BRANCH  21  22
ATOM     22  C   UNL     1       1.234  -2.198  -0.013  0.00  0.00    -0.019 C 
BRANCH  22  27
ATOM     23  C   UNL     1      -1.855  -3.607  -1.663  0.00  0.00    +0.000 A 
ATOM     24  C   UNL     1      -2.789  -2.626  -1.386  0.00  0.00    +0.001 A 
ATOM     25  C   UNL     1      -2.422  -1.506  -0.664  0.00  0.00    +0.020 A 
ATOM     26  C   UNL     1      -1.119  -1.367  -0.219  0.00  0.00    +0.043 A 
ATOM     27  C   UNL     1      -0.185  -2.349  -0.497  0.00  0.00    -0.041 A 
ATOM     28  C   UNL     1      -0.554  -3.469  -1.219  0.00  0.00    +0.003 A 
ATOM     29 CL   UNL     1      -0.656   0.040   0.686  0.00  0.00    -0.083 Cl
ENDBRANCH  22  27
BRANCH  22  30
ATOM     30  N   UNL     1       2.131  -2.977  -0.877  0.00  0.00    +0.385 N 
ATOM     31  C   UNL     1       3.498  -2.913  -0.344  0.00  0.00    -0.078 C 
ATOM     32  C   UNL     1       4.422  -3.788  -1.194  0.00  0.00    -0.019 C 
ATOM     33  C   UNL     1       4.411  -3.280  -2.638  0.00  0.00    -0.004 C 
ATOM     34  C   UNL     1       2.971  -3.280  -3.159  0.00  0.00    -0.019 C 
ATOM     35  C   UNL     1       2.101  -2.424  -2.236  0.00  0.00    -0.078 C 
ATOM     36  H   UNL     1       1.825  -3.938  -0.899  0.00  0.00    -0.081 HD
ENDBRANCH  22  30
ENDBRANCH  21  22
ENDBRANCH   1  21
TORSDOF 6
