REMARK  Name = ZINC59170628
REMARK  7 active torsions:
REMARK  status: ('A' for Active; 'I' for Inactive)
REMARK    1  A    between atoms: C_1  and  C_2
REMARK    2  A    between atoms: C_2  and  C_3
REMARK    3  A    between atoms: C_6  and  N_9
REMARK    4  A    between atoms: C_10  and  C_12
REMARK    5  A    between atoms: N_22  and  C_23
REMARK    6  A    between atoms: C_26  and  S_29
REMARK    7  A    between atoms: S_29  and  N_32
REMARK                            x       y       z     vdW  Elec       q    Type
REMARK                         _______ _______ _______ _____ _____    ______ ____
ROOT
ATOM      1  C   UNL     1       4.684  -2.266  -5.917  0.00  0.00    +0.098 A 
ATOM      2  C   UNL     1       6.053  -2.501  -5.913  0.00  0.00    +0.030 A 
ATOM      3  C   UNL     1       6.668  -2.918  -7.175  0.00  0.00    +0.021 A 
ATOM      4  C   UNL     1       7.971  -3.429  -7.202  0.00  0.00    +0.031 A 
ATOM      5  C   UNL     1       8.526  -3.817  -8.402  0.00  0.00    +0.043 A 
ATOM      6  C   UNL     1       7.799  -3.705  -9.580  0.00  0.00    +0.043 A 
ATOM      7  C   UNL     1       6.513  -3.202  -9.569  0.00  0.00    +0.085 A 
ATOM      8  C   UNL     1       5.936  -2.804  -8.371  0.00  0.00    +0.156 A 
ATOM      9  O   UNL     1       4.677  -2.301  -8.346  0.00  0.00    -0.437 OA
ATOM     10  C   UNL     1       3.972  -2.465  -7.195  0.00  0.00    +0.212 A 
ATOM     11  N   UNL     1       2.696  -2.785  -7.217  0.00  0.00    -0.325 N 
ATOM     12 CL   UNL     1       5.620  -3.068 -11.051  0.00  0.00    -0.080 Cl
ATOM     13 CL   UNL     1      10.142  -4.450  -8.441  0.00  0.00    -0.083 Cl
ATOM     14  H   UNL     1       2.236  -3.001  -6.391  0.00  0.00    +0.169 HD
ENDROOT
BRANCH  11  15
ATOM     15  C   UNL     1       2.019  -2.813  -8.405  0.00  0.00    +0.042 A 
ATOM     16  C   UNL     1       2.180  -1.778  -9.330  0.00  0.00    +0.027 A 
ATOM     17  C   UNL     1       1.494  -1.814 -10.526  0.00  0.00    +0.030 A 
ATOM     18  C   UNL     1       0.648  -2.872 -10.811  0.00  0.00    +0.105 A 
ATOM     19  C   UNL     1       0.484  -3.900  -9.900  0.00  0.00    +0.030 A 
ATOM     20  C   UNL     1       1.167  -3.880  -8.702  0.00  0.00    +0.027 A 
BRANCH  18  21
ATOM     21  S   UNL     1      -0.224  -2.909 -12.342  0.00  0.00    +0.056 S 
ATOM     22  O   UNL     1      -1.367  -3.727 -12.138  0.00  0.00    -0.153 OA
ATOM     23  O   UNL     1      -0.319  -1.563 -12.787  0.00  0.00    -0.153 OA
BRANCH  21  24
ATOM     24  N   UNL     1       0.737  -3.701 -13.433  0.00  0.00    -0.204 NA
ATOM     25  H   UNL     1       1.604  -4.040 -13.160  0.00  0.00    +0.144 HD
ATOM     26  H   UNL     1       0.432  -3.828 -14.345  0.00  0.00    +0.144 HD
ENDBRANCH  21  24
ENDBRANCH  18  21
ENDBRANCH  11  15
BRANCH   1  28
ATOM     27  N   UNL     1       2.674  -1.492  -4.764  0.00  0.00    -0.281 N 
ATOM     28  C   UNL     1       3.973  -1.844  -4.698  0.00  0.00    +0.253 C 
ATOM     29  O   UNL     1       4.559  -1.813  -3.633  0.00  0.00    -0.270 OA
ATOM     30  H   UNL     1       2.193  -1.568  -5.603  0.00  0.00    +0.155 HD
BRANCH  27  34
ATOM     31  C   UNL     1       0.724  -0.081  -1.365  0.00  0.00    -0.048 A 
ATOM     32  C   UNL     1       0.402   0.432  -2.607  0.00  0.00    +0.005 A 
ATOM     33  C   UNL     1       1.047  -0.033  -3.737  0.00  0.00    +0.023 A 
ATOM     34  C   UNL     1       2.019  -1.018  -3.623  0.00  0.00    +0.034 A 
ATOM     35  C   UNL     1       2.341  -1.532  -2.373  0.00  0.00    +0.023 A 
ATOM     36  C   UNL     1       1.696  -1.058  -1.247  0.00  0.00    +0.005 A 
BRANCH  31  38
ATOM     37  C   UNL     1       0.786   1.623   0.436  0.00  0.00    +0.009 C 
ATOM     38  C   UNL     1       0.018   0.429  -0.135  0.00  0.00    +0.032 C 
ENDBRANCH  31  38
ENDBRANCH  27  34
ENDBRANCH   1  28
TORSDOF 6
