REMARK  Name = ZINC06162314
REMARK  16 active torsions:
REMARK  status: ('A' for Active; 'I' for Inactive)
REMARK    1  A    between atoms: C_1  and  C_2
REMARK    2  A    between atoms: C_2  and  C_3
REMARK    3  A    between atoms: C_3  and  O_4
REMARK    4  A    between atoms: O_4  and  C_5
REMARK    5  A    between atoms: C_5  and  C_7
REMARK    6  A    between atoms: C_8  and  C_40
REMARK    7  A    between atoms: C_12  and  C_14
REMARK    8  A    between atoms: C_19  and  O_20
REMARK    9  A    between atoms: O_20  and  C_21
REMARK   10  A    between atoms: C_21  and  C_22
REMARK   11  A    between atoms: C_21  and  C_23
REMARK   12  A    between atoms: C_27  and  C_30
REMARK   13  A    between atoms: C_33  and  O_38
REMARK   14  A    between atoms: C_34  and  O_36
REMARK   15  A    between atoms: O_36  and  C_37
REMARK   16  A    between atoms: O_38  and  C_39
REMARK                            x       y       z     vdW  Elec       q    Type
REMARK                         _______ _______ _______ _____ _____    ______ ____
ROOT
ATOM      1  C   UNL     1      -3.243   2.789   3.966  0.00  0.00    +0.154 C 
ATOM      2  C   UNL     1      -3.850   3.605   4.845  0.00  0.00    +0.031 C 
ATOM      3  N   UNL     1      -3.136   4.570   5.500  0.00  0.00    -0.260 NA
ATOM      4  C   UNL     1      -1.773   4.484   5.598  0.00  0.00    +0.049 C 
ATOM      5  C   UNL     1      -1.074   3.705   4.745  0.00  0.00    +0.025 C 
ATOM      6  C   UNL     1      -1.778   2.911   3.674  0.00  0.00    +0.077 C 
ATOM      7  C   UNL     1       0.326   3.611   4.831  0.00  0.00    +0.162 C 
ATOM      8  O   UNL     1       0.924   2.890   4.058  0.00  0.00    -0.292 OA
ATOM      9  C   UNL     1       1.097   4.388   5.863  0.00  0.00    +0.088 C 
ATOM     10  C   UNL     1       0.325   5.668   6.203  0.00  0.00    +0.032 C 
ATOM     11  C   UNL     1      -1.077   5.277   6.676  0.00  0.00    +0.064 C 
ATOM     12  C   UNL     1      -5.325   3.455   5.111  0.00  0.00    +0.061 C 
ENDROOT
BRANCH   6  13
ATOM     13  C   UNL     1      -1.602   3.605   2.348  0.00  0.00    +0.003 A 
ATOM     14  C   UNL     1      -2.092   4.884   2.167  0.00  0.00    +0.008 A 
ATOM     15  C   UNL     1      -1.937   5.519   0.949  0.00  0.00    +0.001 A 
ATOM     16  C   UNL     1      -1.285   4.879  -0.089  0.00  0.00    +0.004 A 
ATOM     17  C   UNL     1      -0.788   3.603   0.088  0.00  0.00    +0.046 A 
ATOM     18  C   UNL     1      -0.943   2.963   1.310  0.00  0.00    +0.125 A 
BRANCH  18  19
ATOM     19  O   UNL     1      -0.455   1.707   1.487  0.00  0.00    -0.489 OA
BRANCH  19  20
ATOM     20  C   UNL     1       0.201   1.102   0.371  0.00  0.00    +0.167 C 
ATOM     21  C   UNL     1       0.140  -0.420   0.507  0.00  0.00    +0.051 C 
ATOM     22  C   UNL     1       1.662   1.553   0.332  0.00  0.00    +0.051 C 
ENDBRANCH  19  20
ENDBRANCH  18  19
ENDBRANCH   6  13
BRANCH  10  23
ATOM     23  C   UNL     1       1.039   6.415   7.299  0.00  0.00    -0.040 A 
ATOM     24  C   UNL     1       1.253   5.806   8.522  0.00  0.00    +0.008 A 
ATOM     25  C   UNL     1       1.913   6.485   9.529  0.00  0.00    +0.049 A 
ATOM     26  C   UNL     1       2.352   7.783   9.318  0.00  0.00    +0.161 A 
ATOM     27  C   UNL     1       2.131   8.397   8.089  0.00  0.00    +0.162 A 
ATOM     28  C   UNL     1       1.474   7.709   7.082  0.00  0.00    +0.053 A 
BRANCH  27  29
ATOM     29  O   UNL     1       2.560   9.670   7.877  0.00  0.00    -0.491 OA
ATOM     30  C   UNL     1       2.300  10.236   6.591  0.00  0.00    +0.277 C 
ENDBRANCH  27  29
BRANCH  26  31
ATOM     31  O   UNL     1       2.996   8.454  10.310  0.00  0.00    -0.491 OA
ATOM     32  C   UNL     1       3.187   7.761  11.545  0.00  0.00    +0.277 C 
ENDBRANCH  26  31
ENDBRANCH  10  23
BRANCH   1  33
ATOM     33  C   UNL     1      -4.000   1.792   3.308  0.00  0.00    +0.317 C 
ATOM     34  O   UNL     1      -3.923   0.632   3.667  0.00  0.00    -0.250 OA
BRANCH  33  35
ATOM     35  O   UNL     1      -4.810   2.128   2.281  0.00  0.00    -0.464 OA
BRANCH  35  36
ATOM     36  C   UNL     1      -5.545   1.071   1.663  0.00  0.00    +0.232 C 
BRANCH  36  38
ATOM     37  C   UNL     1      -7.188   0.508  -0.134  0.00  0.00    +0.007 C 
ATOM     38  C   UNL     1      -6.400   1.640   0.529  0.00  0.00    +0.038 C 
ENDBRANCH  36  38
ENDBRANCH  35  36
ENDBRANCH  33  35
ENDBRANCH   1  33
TORSDOF 10
