REMARK  Name = ZINC58300333
REMARK  5 active torsions:
REMARK  status: ('A' for Active; 'I' for Inactive)
REMARK    1  A    between atoms: C_1  and  C_2
REMARK    2  A    between atoms: C_2  and  C_3
REMARK    3  A    between atoms: C_2  and  N_15
REMARK    4  A    between atoms: N_5  and  C_6
REMARK    5  A    between atoms: C_16  and  C_18
REMARK                            x       y       z     vdW  Elec       q    Type
REMARK                         _______ _______ _______ _____ _____    ______ ____
ROOT
ATOM      1  C   UNL     1      -1.412  -0.526   0.013  0.00  0.00    +0.233 C 
ATOM      2  O   UNL     1      -1.790  -1.233   0.922  0.00  0.00    -0.274 OA
ATOM      3  N   UNL     1      -2.256  -0.206  -0.988  0.00  0.00    -0.313 N 
ATOM      4  H   UNL     1      -1.953   0.360  -1.716  0.00  0.00    +0.149 HD
ENDROOT
BRANCH   3   5
ATOM      5  C   UNL     1      -3.630  -0.713  -0.978  0.00  0.00    +0.058 C 
ATOM      6  C   UNL     1      -4.569   0.279  -0.245  0.00  0.00    +0.002 C 
ATOM      7  C   UNL     1      -5.563   0.766  -1.333  0.00  0.00    -0.077 C 
ATOM      8  N   UNL     1      -4.825   0.559  -2.589  0.00  0.00    +0.383 N 
ATOM      9  C   UNL     1      -4.190  -0.774  -2.402  0.00  0.00    -0.048 C 
ATOM     10  C   UNL     1      -3.132  -0.935  -3.484  0.00  0.00    -0.014 C 
ATOM     11  C   UNL     1      -3.856  -0.934  -4.840  0.00  0.00    -0.003 C 
ATOM     12  C   UNL     1      -4.705   0.328  -4.994  0.00  0.00    -0.019 C 
ATOM     13  C   UNL     1      -5.645   0.501  -3.791  0.00  0.00    -0.078 C 
ATOM     14  H   UNL     1      -4.116   1.269  -2.691  0.00  0.00    -0.081 HD
ENDBRANCH   3   5
BRANCH   1  16
ATOM     15  C   UNL     1      -0.019   1.526   0.010  0.00  0.00    +0.038 C 
ATOM     16  C   UNL     1       0.002  -0.004   0.002  0.00  0.00    +0.156 C 
BRANCH  16  17
ATOM     17  N   UNL     1       0.711  -0.489   1.189  0.00  0.00    -0.304 N 
ATOM     18  C   UNL     1       2.054  -0.600   1.174  0.00  0.00    +0.217 C 
ATOM     19  O   UNL     1       2.676  -0.297   0.177  0.00  0.00    -0.275 OA
ATOM     20  H   UNL     1       0.213  -0.731   1.986  0.00  0.00    +0.149 HD
BRANCH  18  21
ATOM     21  C   UNL     1       2.783  -1.099   2.395  0.00  0.00    +0.075 C 
ATOM     22  C   UNL     1       2.300  -2.510   2.736  0.00  0.00    +0.013 C 
ATOM     23  C   UNL     1       3.040  -3.017   3.975  0.00  0.00    +0.001 C 
ATOM     24  C   UNL     1       4.543  -3.046   3.695  0.00  0.00    +0.000 C 
ATOM     25  C   UNL     1       5.026  -1.635   3.354  0.00  0.00    +0.001 C 
ATOM     26  C   UNL     1       4.287  -1.129   2.114  0.00  0.00    +0.013 C 
ENDBRANCH  18  21
ENDBRANCH  16  17
ENDBRANCH   1  16
TORSDOF 4
