REMARK  Name = ZINC64352860
REMARK  12 active torsions:
REMARK  status: ('A' for Active; 'I' for Inactive)
REMARK    1  A    between atoms: C_1  and  N_2
REMARK    2  A    between atoms: C_6  and  C_7
REMARK    3  A    between atoms: C_7  and  C_9
REMARK    4  A    between atoms: C_7  and  N_17
REMARK    5  A    between atoms: C_12  and  O_15
REMARK    6  A    between atoms: O_15  and  C_16
REMARK    7  A    between atoms: C_18  and  C_20
REMARK    8  A    between atoms: C_20  and  C_21
REMARK    9  A    between atoms: C_21  and  C_22
REMARK   10  A    between atoms: C_30  and  C_32
REMARK   11  A    between atoms: C_35  and  O_38
REMARK   12  A    between atoms: O_38  and  C_39
REMARK                            x       y       z     vdW  Elec       q    Type
REMARK                         _______ _______ _______ _____ _____    ______ ____
ROOT
ATOM      1  C   UNL     1      -3.215  -1.617   4.112  0.00  0.00    +0.100 C 
ENDROOT
BRANCH   1   3
ATOM      2  N   UNL     1      -0.929  -1.151   3.291  0.00  0.00    -0.302 N 
ATOM      3  C   UNL     1      -2.229  -0.798   3.320  0.00  0.00    +0.214 C 
ATOM      4  O   UNL     1      -2.606   0.180   2.708  0.00  0.00    -0.276 OA
ATOM      5  H   UNL     1      -0.627  -1.932   3.780  0.00  0.00    +0.150 HD
BRANCH   2   6
ATOM      6  C   UNL     1       0.030  -0.354   2.521  0.00  0.00    +0.169 C 
BRANCH   6  12
ATOM      7  C   UNL     1      -0.018   1.461   0.010  0.00  0.00    +0.150 C 
ATOM      8  N   UNL     1       0.002  -0.004   0.002  0.00  0.00    -0.336 N 
ATOM      9  C   UNL     1       0.009  -0.810  -1.104  0.00  0.00    +0.106 A 
ATOM     10  C   UNL     1       0.029  -2.081  -0.660  0.00  0.00    +0.130 A 
ATOM     11  N   UNL     1       0.034  -2.052   0.681  0.00  0.00    -0.238 NA
ATOM     12  C   UNL     1       0.023  -0.811   1.085  0.00  0.00    +0.134 A 
ENDBRANCH   6  12
BRANCH   6  13
ATOM     13  C   UNL     1       1.410  -0.533   3.098  0.00  0.00    -0.020 A 
ATOM     14  C   UNL     1       1.824  -1.782   3.524  0.00  0.00    +0.009 A 
ATOM     15  C   UNL     1       3.089  -1.948   4.054  0.00  0.00    +0.046 A 
ATOM     16  C   UNL     1       3.944  -0.861   4.159  0.00  0.00    +0.120 A 
ATOM     17  C   UNL     1       3.527   0.391   3.731  0.00  0.00    +0.046 A 
ATOM     18  C   UNL     1       2.263   0.551   3.197  0.00  0.00    +0.009 A 
BRANCH  16  19
ATOM     19  O   UNL     1       5.189  -1.022   4.681  0.00  0.00    -0.495 OA
ATOM     20  C   UNL     1       6.015   0.141   4.759  0.00  0.00    +0.277 C 
ENDBRANCH  16  19
ENDBRANCH   6  13
ENDBRANCH   2   6
ENDBRANCH   1   3
BRANCH   1  21
ATOM     21  C   UNL     1      -4.611  -1.005   3.978  0.00  0.00    +0.043 C 
BRANCH  21  22
ATOM     22  C   UNL     1      -5.597  -1.824   4.770  0.00  0.00    -0.034 C 
ATOM     23  C   UNL     1      -5.332  -2.929   5.503  0.00  0.00    -0.000 A 
ATOM     24  C   UNL     1      -4.095  -3.671   5.772  0.00  0.00    +0.010 A 
ATOM     25  C   UNL     1      -4.145  -4.766   6.564  0.00  0.00    +0.001 A 
ATOM     26  C   UNL     1      -5.347  -5.209   7.133  0.00  0.00    +0.002 A 
ATOM     27  C   UNL     1      -6.524  -4.580   6.933  0.00  0.00    +0.026 A 
ATOM     28  C   UNL     1      -6.588  -3.417   6.117  0.00  0.00    +0.043 A 
ATOM     29  N   UNL     1      -7.590  -2.644   5.775  0.00  0.00    -0.374 N 
ATOM     30  C   UNL     1      -7.082  -1.573   4.911  0.00  0.00    +0.137 C 
ATOM     31  H   UNL     1      -8.513  -2.759   6.051  0.00  0.00    +0.161 HD
BRANCH  30  32
ATOM     32  C   UNL     1      -7.750  -1.638   3.561  0.00  0.00    -0.021 A 
ATOM     33  C   UNL     1      -8.059  -2.864   3.002  0.00  0.00    +0.009 A 
ATOM     34  C   UNL     1      -8.671  -2.925   1.765  0.00  0.00    +0.046 A 
ATOM     35  C   UNL     1      -8.976  -1.756   1.084  0.00  0.00    +0.120 A 
ATOM     36  C   UNL     1      -8.665  -0.527   1.648  0.00  0.00    +0.046 A 
ATOM     37  C   UNL     1      -8.058  -0.470   2.887  0.00  0.00    +0.009 A 
BRANCH  35  38
ATOM     38  O   UNL     1      -9.577  -1.814  -0.133  0.00  0.00    -0.495 OA
ATOM     39  C   UNL     1      -9.861  -0.570  -0.776  0.00  0.00    +0.277 C 
ENDBRANCH  35  38
ENDBRANCH  30  32
ENDBRANCH  21  22
ENDBRANCH   1  21
TORSDOF 9
