REMARK  Name = ZINC39024428
REMARK  6 active torsions:
REMARK  status: ('A' for Active; 'I' for Inactive)
REMARK    1  A    between atoms: C_1  and  C_2
REMARK    2  A    between atoms: C_5  and  N_8
REMARK    3  A    between atoms: C_13  and  C_16
REMARK    4  A    between atoms: C_16  and  N_18
REMARK    5  A    between atoms: C_25  and  O_29
REMARK    6  A    between atoms: O_29  and  C_30
REMARK                            x       y       z     vdW  Elec       q    Type
REMARK                         _______ _______ _______ _____ _____    ______ ____
ROOT
ATOM      1  N   UNL     1       0.057  -4.168  -0.021  0.00  0.00    -0.242 N 
ATOM      2  C   UNL     1       0.066  -4.857  -1.202  0.00  0.00    +0.097 C 
ATOM      3  C   UNL     1       0.642  -6.087  -1.243  0.00  0.00    +0.065 C 
ATOM      4  C   UNL     1       1.225  -6.611  -0.078  0.00  0.00    +0.185 C 
ATOM      5  O   UNL     1       1.733  -7.715  -0.090  0.00  0.00    -0.290 OA
ATOM      6  C   UNL     1       1.216  -5.790   1.188  0.00  0.00    +0.231 C 
ATOM      7  N   UNL     1       0.072  -4.872   1.155  0.00  0.00    -0.217 NA
ATOM      8  H   UNL     1      -0.793  -5.372   1.288  0.00  0.00    +0.146 HD
ENDROOT
BRANCH   1  13
ATOM      9  C   UNL     1      -0.018   1.503   0.010  0.00  0.00    +0.044 C 
ATOM     10  C   UNL     1       0.002  -0.004   0.002  0.00  0.00    -0.050 A 
ATOM     11  C   UNL     1       0.006  -0.687  -1.200  0.00  0.00    +0.005 A 
ATOM     12  C   UNL     1       0.024  -2.068  -1.212  0.00  0.00    +0.025 A 
ATOM     13  C   UNL     1       0.039  -2.771  -0.013  0.00  0.00    +0.049 A 
ATOM     14  C   UNL     1       0.036  -2.081   1.193  0.00  0.00    +0.025 A 
ATOM     15  C   UNL     1       0.023  -0.700   1.197  0.00  0.00    +0.005 A 
ENDBRANCH   1  13
BRANCH   6  16
ATOM     16  C   UNL     1       2.495  -4.997   1.285  0.00  0.00    +0.265 C 
ATOM     17  O   UNL     1       2.455  -3.783   1.331  0.00  0.00    -0.271 OA
BRANCH  16  18
ATOM     18  N   UNL     1       3.665  -5.626   1.319  0.00  0.00    -0.155 NA
ATOM     19  C   UNL     1       4.794  -4.926   1.405  0.00  0.00    +0.164 A 
ATOM     20  N   UNL     1       6.065  -5.399   1.445  0.00  0.00    -0.335 N 
ATOM     21  H   UNL     1       6.230  -6.354   1.411  0.00  0.00    +0.168 HD
ATOM     22  C   UNL     1       7.126  -4.514   1.534  0.00  0.00    +0.055 A 
ATOM     23  C   UNL     1       8.500  -4.785   1.589  0.00  0.00    +0.030 A 
ATOM     24  C   UNL     1       9.414  -3.761   1.678  0.00  0.00    +0.048 A 
ATOM     25  C   UNL     1       9.003  -2.434   1.717  0.00  0.00    +0.121 A 
ATOM     26  C   UNL     1       7.647  -2.142   1.663  0.00  0.00    +0.062 A 
ATOM     27  C   UNL     1       6.737  -3.168   1.574  0.00  0.00    +0.042 A 
ATOM     28  S   UNL     1       4.968  -3.256   1.479  0.00  0.00    -0.052 S 
BRANCH  25  29
ATOM     29  O   UNL     1       9.919  -1.433   1.806  0.00  0.00    -0.495 OA
ATOM     30  C   UNL     1      11.295  -1.816   1.857  0.00  0.00    +0.277 C 
ENDBRANCH  25  29
ENDBRANCH  16  18
ENDBRANCH   6  16
TORSDOF 4
