REMARK  Name = ZINC40826750
REMARK  11 active torsions:
REMARK  status: ('A' for Active; 'I' for Inactive)
REMARK    1  A    between atoms: C_1  and  C_2
REMARK    2  A    between atoms: C_2  and  N_3
REMARK    3  A    between atoms: N_3  and  C_4
REMARK    4  A    between atoms: C_8  and  C_10
REMARK    5  A    between atoms: C_11  and  C_13
REMARK    6  A    between atoms: C_14  and  C_38
REMARK    7  A    between atoms: N_22  and  N_23
REMARK    8  A    between atoms: C_24  and  C_26
REMARK    9  A    between atoms: C_26  and  C_27
REMARK   10  A    between atoms: C_34  and  C_37
REMARK   11  A    between atoms: C_35  and  C_36
REMARK                            x       y       z     vdW  Elec       q    Type
REMARK                         _______ _______ _______ _____ _____    ______ ____
ROOT
ATOM      1  C   UNL     1      -1.033  -0.585   2.394  0.00  0.00    +0.193 A 
ATOM      2  C   UNL     1      -1.450  -0.819   3.675  0.00  0.00    +0.009 A 
ATOM      3  C   UNL     1      -0.398  -0.417   4.508  0.00  0.00    +0.042 A 
ATOM      4  C   UNL     1       0.614   0.047   3.701  0.00  0.00    +0.115 A 
ATOM      5  O   UNL     1       0.217  -0.070   2.436  0.00  0.00    -0.454 OA
ATOM      6  C   UNL     1       1.918   0.575   4.242  0.00  0.00    +0.075 C 
ATOM      7  C   UNL     1       1.732   0.986   5.705  0.00  0.00    +0.014 C 
ATOM      8  C   UNL     1       1.125  -0.164   6.516  0.00  0.00    +0.058 C 
ATOM      9  C   UNL     1      -0.274  -0.436   5.983  0.00  0.00    +0.070 C 
ATOM     10  N   UNL     1      -1.284  -0.669   6.763  0.00  0.00    -0.184 NA
ATOM     11  C   UNL     1      -2.775  -1.394   4.105  0.00  0.00    +0.048 C 
ENDROOT
BRANCH  10  12
ATOM     12  N   UNL     1      -1.108  -0.675   8.153  0.00  0.00    -0.206 N 
ATOM     13  C   UNL     1      -2.157  -0.916   8.964  0.00  0.00    +0.237 C 
ATOM     14  O   UNL     1      -3.253  -1.128   8.491  0.00  0.00    -0.274 OA
ATOM     15  H   UNL     1      -0.231  -0.506   8.532  0.00  0.00    +0.177 HD
BRANCH  13  16
ATOM     16  C   UNL     1      -1.967  -0.923  10.459  0.00  0.00    +0.136 C 
BRANCH  16  17
ATOM     17  C   UNL     1      -3.284  -1.216  11.131  0.00  0.00    +0.007 A 
ATOM     18  C   UNL     1      -4.164  -0.321  11.600  0.00  0.00    +0.200 A 
ATOM     19  O   UNL     1      -5.226  -0.951  12.134  0.00  0.00    -0.462 OA
ATOM     20  C   UNL     1      -5.089  -2.289  12.039  0.00  0.00    +0.138 A 
ATOM     21  C   UNL     1      -3.863  -2.538  11.398  0.00  0.00    +0.024 A 
ATOM     22  C   UNL     1      -3.454  -3.848  11.155  0.00  0.00    +0.012 A 
ATOM     23  C   UNL     1      -4.259  -4.896  11.545  0.00  0.00    +0.004 A 
ATOM     24  C   UNL     1      -5.470  -4.651  12.174  0.00  0.00    -0.044 A 
ATOM     25  C   UNL     1      -5.883  -3.360  12.427  0.00  0.00    -0.005 A 
ATOM     26  C   UNL     1      -7.203  -3.111  13.110  0.00  0.00    +0.048 C 
ATOM     27  C   UNL     1      -6.340  -5.807  12.594  0.00  0.00    +0.044 C 
ENDBRANCH  16  17
ENDBRANCH  13  16
ENDBRANCH  10  12
BRANCH   1  29
ATOM     28  N   UNL     1      -1.240  -0.696  -0.033  0.00  0.00    -0.265 N 
ATOM     29  C   UNL     1      -1.809  -0.854   1.179  0.00  0.00    +0.286 C 
ATOM     30  O   UNL     1      -2.967  -1.219   1.264  0.00  0.00    -0.266 OA
BRANCH  28  31
ATOM     31  C   UNL     1      -2.014  -0.821  -1.191  0.00  0.00    +0.037 A 
ATOM     32  C   UNL     1      -1.403  -0.827  -2.438  0.00  0.00    +0.023 A 
ATOM     33  C   UNL     1      -2.170  -0.951  -3.580  0.00  0.00    +0.002 A 
ATOM     34  C   UNL     1      -3.545  -1.068  -3.482  0.00  0.00    +0.003 A 
ATOM     35  C   UNL     1      -4.155  -1.062  -2.241  0.00  0.00    -0.049 A 
ATOM     36  C   UNL     1      -3.393  -0.945  -1.095  0.00  0.00    +0.027 A 
ATOM     37  C   UNL     1      -5.654  -1.191  -2.139  0.00  0.00    +0.044 C 
ENDBRANCH  28  31
BRANCH  28  39
ATOM     38  C   UNL     1       0.396   1.121  -0.087  0.00  0.00    +0.025 C 
ATOM     39  C   UNL     1       0.190  -0.394  -0.136  0.00  0.00    +0.111 C 
ENDBRANCH  28  39
ENDBRANCH   1  29
TORSDOF 6
