REMARK  Name = ZINC11683748
REMARK  11 active torsions:
REMARK  status: ('A' for Active; 'I' for Inactive)
REMARK    1  A    between atoms: C_4  and  S_22
REMARK    2  A    between atoms: C_5  and  C_7
REMARK    3  A    between atoms: C_7  and  O_9
REMARK    4  A    between atoms: O_9  and  C_10
REMARK    5  A    between atoms: C_10  and  C_11
REMARK    6  A    between atoms: N_13  and  C_14
REMARK    7  A    between atoms: C_14  and  C_15
REMARK    8  A    between atoms: S_22  and  C_23
REMARK    9  A    between atoms: C_23  and  C_24
REMARK   10  A    between atoms: N_26  and  C_27
REMARK   11  A    between atoms: C_31  and  C_33
REMARK                            x       y       z     vdW  Elec       q    Type
REMARK                         _______ _______ _______ _____ _____    ______ ____
ROOT
ATOM      1  C   UNL     1       1.997  12.505   0.689  0.00  0.00    +0.001 A 
ATOM      2  C   UNL     1       0.941  11.613   0.581  0.00  0.00    +0.001 A 
ATOM      3  C   UNL     1       1.178  10.259   0.474  0.00  0.00    +0.015 A 
ATOM      4  C   UNL     1       2.483   9.777   0.484  0.00  0.00    +0.022 A 
ATOM      5  C   UNL     1       3.555  10.678   0.594  0.00  0.00    +0.072 A 
ATOM      6  C   UNL     1       3.297  12.049   0.696  0.00  0.00    +0.016 A 
ENDROOT
BRANCH   5   7
ATOM      7  C   UNL     1       4.942  10.183   0.600  0.00  0.00    +0.341 C 
ATOM      8  O   UNL     1       5.162   8.991   0.510  0.00  0.00    -0.245 OA
BRANCH   7   9
ATOM      9  O   UNL     1       5.967  11.052   0.705  0.00  0.00    -0.452 OA
BRANCH   9  10
ATOM     10  C   UNL     1       7.307  10.493   0.705  0.00  0.00    +0.328 C 
BRANCH  10  11
ATOM     11  C   UNL     1       8.315  11.605   0.829  0.00  0.00    +0.251 C 
ATOM     12  O   UNL     1       7.942  12.756   0.910  0.00  0.00    -0.272 OA
ATOM     13  N   UNL     1       9.633  11.322   0.850  0.00  0.00    -0.308 N 
ATOM     14  H   UNL     1       9.932  10.401   0.785  0.00  0.00    +0.149 HD
BRANCH  13  15
ATOM     15  C   UNL     1      10.613  12.404   0.971  0.00  0.00    +0.139 C 
BRANCH  15  16
ATOM     16  C   UNL     1      12.004  11.823   0.971  0.00  0.00    -0.029 A 
ATOM     17  C   UNL     1      12.604  11.466   2.164  0.00  0.00    +0.005 A 
ATOM     18  C   UNL     1      13.878  10.929   2.164  0.00  0.00    +0.002 A 
ATOM     19  C   UNL     1      14.557  10.760   0.972  0.00  0.00    +0.020 A 
ATOM     20  C   UNL     1      13.959  11.122  -0.222  0.00  0.00    +0.041 A 
ATOM     21  C   UNL     1      12.682  11.655  -0.222  0.00  0.00    +0.025 A 
ATOM     22 CL   UNL     1      14.811  10.910  -1.720  0.00  0.00    -0.084 Cl
ENDBRANCH  15  16
ENDBRANCH  13  15
ENDBRANCH  10  11
ENDBRANCH   9  10
ENDBRANCH   7   9
ENDBRANCH   5   7
BRANCH   4  23
ATOM     23  S   UNL     1       2.789   8.047   0.354  0.00  0.00    -0.115 S 
BRANCH  23  24
ATOM     24  C   UNL     1       1.090   7.434   0.247  0.00  0.00    +0.170 C 
BRANCH  24  25
ATOM     25  C   UNL     1       1.104   5.932   0.125  0.00  0.00    +0.227 C 
ATOM     26  O   UNL     1       2.160   5.335   0.112  0.00  0.00    -0.275 OA
ATOM     27  N   UNL     1      -0.056   5.252   0.030  0.00  0.00    -0.285 N 
ATOM     28  H   UNL     1      -0.895   5.733  -0.036  0.00  0.00    +0.155 HD
BRANCH  27  29
ATOM     29  C   UNL     1      -0.048   3.852   0.029  0.00  0.00    +0.035 A 
ATOM     30  C   UNL     1      -0.994   3.154  -0.713  0.00  0.00    +0.023 A 
ATOM     31  C   UNL     1      -0.991   1.772  -0.718  0.00  0.00    +0.003 A 
ATOM     32  C   UNL     1      -0.050   1.076   0.012  0.00  0.00    +0.019 A 
ATOM     33  C   UNL     1       0.901   1.768   0.765  0.00  0.00    +0.054 A 
ATOM     34  C   UNL     1       0.902   3.164   0.766  0.00  0.00    +0.042 A 
BRANCH  33  35
ATOM     35  C   UNL     1       1.876   1.049   1.529  0.00  0.00    +0.099 C 
ATOM     36  N   UNL     1       2.649   0.478   2.135  0.00  0.00    -0.191 NA
ENDBRANCH  33  35
ENDBRANCH  27  29
ENDBRANCH  24  25
ENDBRANCH  23  24
ENDBRANCH   4  23
TORSDOF 11
