REMARK  Name = ZINC08773101
REMARK  4 active torsions:
REMARK  status: ('A' for Active; 'I' for Inactive)
REMARK    1  A    between atoms: C_1  and  C_2
REMARK    2  A    between atoms: C_2  and  C_3
REMARK    3  A    between atoms: C_23  and  C_31
REMARK    4  A    between atoms: C_31  and  C_33
REMARK                            x       y       z     vdW  Elec       q    Type
REMARK                         _______ _______ _______ _____ _____    ______ ____
ROOT
ATOM      1  C   UNL     1       0.757  -0.287  -1.139  0.00  0.00    -0.047 A 
ATOM      2  C   UNL     1       0.007  -0.491  -2.282  0.00  0.00    +0.005 A 
ATOM      3  C   UNL     1       0.604  -0.967  -3.431  0.00  0.00    +0.024 A 
ATOM      4  C   UNL     1       1.969  -1.245  -3.448  0.00  0.00    +0.036 A 
ATOM      5  C   UNL     1       2.713  -1.036  -2.292  0.00  0.00    -0.026 A 
ATOM      6  C   UNL     1       2.115  -0.555  -1.148  0.00  0.00    +0.008 A 
ATOM      7  C   UNL     1       4.128  -1.423  -2.631  0.00  0.00    +0.060 C 
ATOM      8  C   UNL     1       4.070  -1.857  -4.074  0.00  0.00    +0.212 C 
ATOM      9  O   UNL     1       4.999  -2.249  -4.748  0.00  0.00    -0.277 OA
ATOM     10  N   UNL     1       2.791  -1.725  -4.469  0.00  0.00    -0.286 N 
ATOM     11  C   UNL     1       4.627  -2.550  -1.734  0.00  0.00    +0.085 C 
ATOM     12  C   UNL     1       4.953  -3.790  -2.516  0.00  0.00    -0.011 A 
ATOM     13  C   UNL     1       5.818  -4.056  -3.554  0.00  0.00    +0.006 A 
ATOM     14  C   UNL     1       5.898  -5.333  -4.079  0.00  0.00    +0.000 A 
ATOM     15  C   UNL     1       5.107  -6.342  -3.559  0.00  0.00    +0.002 A 
ATOM     16  C   UNL     1       4.240  -6.080  -2.519  0.00  0.00    +0.023 A 
ATOM     17  C   UNL     1       4.153  -4.797  -1.984  0.00  0.00    +0.038 A 
ATOM     18  N   UNL     1       3.364  -4.291  -0.949  0.00  0.00    -0.285 N 
ATOM     19  C   UNL     1       3.582  -2.979  -0.739  0.00  0.00    +0.228 C 
ATOM     20  O   UNL     1       3.041  -2.279   0.090  0.00  0.00    -0.275 OA
ATOM     21  C   UNL     1       5.873  -1.997  -1.020  0.00  0.00    +0.066 C 
ATOM     22  C   UNL     1       5.685  -0.464  -1.127  0.00  0.00    -0.055 C 
ATOM     23  N   UNL     1       5.040  -0.278  -2.464  0.00  0.00    +0.395 N 
ATOM     24  C   UNL     1       6.152  -0.403  -3.437  0.00  0.00    -0.076 C 
ATOM     25  C   UNL     1       7.364   0.266  -2.759  0.00  0.00    -0.020 C 
ATOM     26  C   UNL     1       7.066   0.206  -1.232  0.00  0.00    -0.016 C 
ATOM     27  H   UNL     1       2.476  -1.940  -5.361  0.00  0.00    +0.155 HD
ATOM     28  H   UNL     1       2.732  -4.823  -0.440  0.00  0.00    +0.155 HD
ATOM     29  H   UNL     1       4.556   0.605  -2.533  0.00  0.00    -0.079 HD
ENDROOT
BRANCH   1  31
ATOM     30  C   UNL     1       0.141   1.763   0.114  0.00  0.00    +0.009 C 
ATOM     31  C   UNL     1       0.099   0.234   0.113  0.00  0.00    +0.032 C 
ENDBRANCH   1  31
BRANCH  21  32
ATOM     32  C   UNL     1       5.900  -2.435   0.421  0.00  0.00    +0.166 C 
ATOM     33  O   UNL     1       5.417  -1.727   1.279  0.00  0.00    -0.292 OA
BRANCH  32  34
ATOM     34  C   UNL     1       6.512  -3.721   0.787  0.00  0.00    +0.018 A 
ATOM     35  C   UNL     1       7.181  -4.482  -0.192  0.00  0.00    +0.012 A 
ATOM     36  C   UNL     1       7.753  -5.671   0.123  0.00  0.00    +0.009 A 
ATOM     37  C   UNL     1       7.683  -6.161   1.441  0.00  0.00    -0.018 A 
ATOM     38  C   UNL     1       8.268  -7.389   1.789  0.00  0.00    +0.008 A 
ATOM     39  C   UNL     1       8.185  -7.838   3.072  0.00  0.00    +0.001 A 
ATOM     40  C   UNL     1       7.526  -7.096   4.050  0.00  0.00    +0.001 A 
ATOM     41  C   UNL     1       6.947  -5.901   3.752  0.00  0.00    +0.008 A 
ATOM     42  C   UNL     1       7.012  -5.405   2.437  0.00  0.00    -0.017 A 
ATOM     43  C   UNL     1       6.431  -4.175   2.097  0.00  0.00    +0.020 A 
ENDBRANCH  32  34
ENDBRANCH  21  32
TORSDOF 3
