REMARK  Name = ZINC02352879
REMARK  6 active torsions:
REMARK  status: ('A' for Active; 'I' for Inactive)
REMARK    1  A    between atoms: C_1  and  C_2
REMARK    2  A    between atoms: C_4  and  N_25
REMARK    3  A    between atoms: C_7  and  C_8
REMARK    4  A    between atoms: C_11  and  C_13
REMARK    5  A    between atoms: N_14  and  N_15
REMARK    6  A    between atoms: C_16  and  C_18
REMARK                            x       y       z     vdW  Elec       q    Type
REMARK                         _______ _______ _______ _____ _____    ______ ____
ROOT
ATOM      1  C   UNL     1       6.523   9.530  -0.013  0.00  0.00    +0.136 A 
ATOM      2  C   UNL     1       5.794  10.745   0.000  0.00  0.00    +0.050 A 
ATOM      3  C   UNL     1       4.474  10.431   0.006  0.00  0.00    +0.051 A 
ATOM      4  C   UNL     1       4.399   8.961   0.005  0.00  0.00    +0.148 A 
ATOM      5  O   UNL     1       5.667   8.494  -0.010  0.00  0.00    -0.454 OA
ENDROOT
BRANCH   1  12
ATOM      6  C   UNL     1       7.800   7.797   1.901  0.00  0.00    +0.044 C 
ATOM      7  C   UNL     1       8.594   8.586   0.892  0.00  0.00    -0.038 A 
ATOM      8  C   UNL     1       9.967   8.492   0.866  0.00  0.00    +0.036 A 
ATOM      9  C   UNL     1      10.697   9.218  -0.063  0.00  0.00    +0.126 A 
ATOM     10  C   UNL     1      10.053  10.045  -0.973  0.00  0.00    +0.033 A 
ATOM     11  C   UNL     1       8.692  10.150  -0.969  0.00  0.00    +0.014 A 
ATOM     12  C   UNL     1       7.936   9.424  -0.029  0.00  0.00    +0.020 A 
BRANCH   9  13
ATOM     13  N   UNL     1      12.173   9.111  -0.085  0.00  0.00    +0.056 N 
ATOM     14  O   UNL     1      12.789   8.328   0.777  0.00  0.00    -0.126 OA
ATOM     15  O   UNL     1      12.871   9.798  -0.965  0.00  0.00    -0.126 OA
ENDBRANCH   9  13
ENDBRANCH   1  12
BRANCH   4  16
ATOM     16  C   UNL     1       3.240   8.197   0.013  0.00  0.00    +0.176 C 
ATOM     17  N   UNL     1       3.320   6.871   0.005  0.00  0.00    -0.184 NA
BRANCH  17  18
ATOM     18  N   UNL     1       2.243   6.160   0.012  0.00  0.00    -0.203 N 
ATOM     19  C   UNL     1       2.324   4.815   0.005  0.00  0.00    +0.265 C 
ATOM     20  O   UNL     1       3.410   4.272  -0.009  0.00  0.00    -0.268 OA
ATOM     21  H   UNL     1       1.376   6.594   0.023  0.00  0.00    +0.178 HD
BRANCH  19  22
ATOM     22  C   UNL     1       1.091   4.002   0.013  0.00  0.00    +0.057 A 
ATOM     23  C   UNL     1       1.161   2.602   0.005  0.00  0.00    +0.031 A 
ATOM     24  C   UNL     1      -0.024   1.887   0.012  0.00  0.00    +0.037 A 
ATOM     25  C   UNL     1      -1.228   2.570   0.022  0.00  0.00    +0.126 A 
ATOM     26  N   UNL     1      -1.263   3.889   0.034  0.00  0.00    -0.261 NA
ATOM     27  C   UNL     1      -0.164   4.614   0.027  0.00  0.00    +0.123 A 
ATOM     28 BR   UNL     1       0.002  -0.004   0.002  0.00  0.00    -0.049 Br
ENDBRANCH  19  22
ENDBRANCH  17  18
ENDBRANCH   4  16
TORSDOF 5
