REMARK  Name = ZINC36207194
REMARK  16 active torsions:
REMARK  status: ('A' for Active; 'I' for Inactive)
REMARK    1  A    between atoms: C_1  and  C_2
REMARK    2  A    between atoms: C_2  and  O_3
REMARK    3  A    between atoms: O_3  and  C_4
REMARK    4  A    between atoms: C_4  and  C_6
REMARK    5  A    between atoms: C_7  and  C_37
REMARK    6  A    between atoms: C_13  and  C_17
REMARK    7  A    between atoms: C_17  and  N_18
REMARK    8  A    between atoms: N_18  and  C_19
REMARK    9  A    between atoms: N_18  and  C_25
REMARK   10  A    between atoms: C_19  and  C_20
REMARK   11  A    between atoms: C_25  and  C_26
REMARK   12  A    between atoms: C_26  and  C_28
REMARK   13  A    between atoms: C_26  and  O_36
REMARK   14  A    between atoms: C_28  and  O_29
REMARK   15  A    between atoms: O_29  and  C_30
REMARK   16  A    between atoms: C_30  and  C_31
REMARK                            x       y       z     vdW  Elec       q    Type
REMARK                         _______ _______ _______ _____ _____    ______ ____
ROOT
ATOM      1  N   UNL     1       5.066  -2.868  -8.032  0.00  0.00    +0.391 N 
ATOM      2  H   UNL     1       5.812  -2.344  -7.599  0.00  0.00    -0.080 HD
ENDROOT
BRANCH   1   3
ATOM      3  C   UNL     1       4.905  -4.153  -7.338  0.00  0.00    -0.003 C 
BRANCH   3  11
ATOM      4  C   UNL     1      10.967  -5.889  -7.833  0.00  0.00    +0.102 A 
ATOM      5  C   UNL     1       9.996  -6.601  -7.190  0.00  0.00    -0.015 A 
ATOM      6  C   UNL     1       8.689  -6.113  -7.147  0.00  0.00    +0.076 A 
ATOM      7  C   UNL     1       7.488  -6.706  -6.516  0.00  0.00    +0.260 A 
ATOM      8  O   UNL     1       7.554  -7.770  -5.926  0.00  0.00    -0.267 OA
ATOM      9  N   UNL     1       6.321  -6.039  -6.611  0.00  0.00    -0.312 N 
ATOM     10  H   UNL     1       5.525  -6.414  -6.202  0.00  0.00    +0.170 HD
ATOM     11  C   UNL     1       6.237  -4.854  -7.264  0.00  0.00    +0.094 A 
ATOM     12  N   UNL     1       7.276  -4.304  -7.832  0.00  0.00    -0.229 NA
ATOM     13  C   UNL     1       8.472  -4.877  -7.799  0.00  0.00    +0.116 A 
ATOM     14  S   UNL     1      10.080  -4.457  -8.422  0.00  0.00    -0.062 S 
ATOM     15  C   UNL     1      10.335  -7.912  -6.527  0.00  0.00    +0.046 C 
BRANCH   4  16
ATOM     16  C   UNL     1      12.385  -6.216  -7.994  0.00  0.00    +0.346 C 
ATOM     17  O   UNL     1      12.829  -7.245  -7.523  0.00  0.00    -0.244 OA
BRANCH  16  18
ATOM     18  O   UNL     1      13.199  -5.375  -8.666  0.00  0.00    -0.461 OA
BRANCH  18  20
ATOM     19  C   UNL     1      15.332  -4.688  -9.571  0.00  0.00    +0.048 C 
ATOM     20  C   UNL     1      14.571  -5.757  -8.784  0.00  0.00    +0.229 C 
ENDBRANCH  18  20
ENDBRANCH  16  18
ENDBRANCH   4  16
ENDBRANCH   3  11
ENDBRANCH   1   3
BRANCH   1  21
ATOM     21  C   UNL     1       3.815  -2.104  -7.944  0.00  0.00    -0.002 C 
BRANCH  21  22
ATOM     22  C   UNL     1       3.503  -1.814  -6.498  0.00  0.00    +0.089 A 
ATOM     23  C   UNL     1       3.831  -0.692  -5.832  0.00  0.00    +0.042 A 
ATOM     24  C   UNL     1       3.349  -0.844  -4.512  0.00  0.00    +0.041 A 
ATOM     25  C   UNL     1       2.755  -2.049  -4.450  0.00  0.00    +0.195 A 
ATOM     26  O   UNL     1       2.847  -2.630  -5.657  0.00  0.00    -0.470 OA
ENDBRANCH  21  22
ENDBRANCH   1  21
BRANCH   1  27
ATOM     27  C   UNL     1       5.394  -3.111  -9.443  0.00  0.00    -0.044 C 
BRANCH  27  28
ATOM     28  C   UNL     1       5.741  -1.784 -10.121  0.00  0.00    +0.124 C 
BRANCH  28  29
ATOM     29  O   UNL     1       4.565  -0.978 -10.222  0.00  0.00    -0.391 OA
ATOM     30  H   UNL     1       3.853  -1.384 -10.736  0.00  0.00    +0.210 HD
ENDBRANCH  28  29
BRANCH  28  31
ATOM     31  C   UNL     1       6.294  -2.057 -11.522  0.00  0.00    +0.189 C 
BRANCH  31  32
ATOM     32  O   UNL     1       6.726  -0.829 -12.111  0.00  0.00    -0.370 OA
BRANCH  32  33
ATOM     33  C   UNL     1       7.262  -0.972 -13.427  0.00  0.00    +0.234 C 
BRANCH  33  34
ATOM     34  C   UNL     1       7.684   0.377 -13.948  0.00  0.00    +0.130 A 
ATOM     35  C   UNL     1       8.901   0.931 -13.803  0.00  0.00    +0.047 A 
ATOM     36  C   UNL     1       8.856   2.192 -14.441  0.00  0.00    +0.041 A 
ATOM     37  C   UNL     1       7.614   2.334 -14.937  0.00  0.00    +0.195 A 
ATOM     38  O   UNL     1       6.910   1.229 -14.641  0.00  0.00    -0.465 OA
ENDBRANCH  33  34
ENDBRANCH  32  33
ENDBRANCH  31  32
ENDBRANCH  28  31
ENDBRANCH  27  28
ENDBRANCH   1  27
TORSDOF 14
