REMARK  Name = ZINC21080239
REMARK  8 active torsions:
REMARK  status: ('A' for Active; 'I' for Inactive)
REMARK    1  A    between atoms: C_1  and  C_2
REMARK    2  A    between atoms: C_9  and  C_12
REMARK    3  A    between atoms: C_12  and  S_13
REMARK    4  A    between atoms: S_13  and  C_14
REMARK    5  A    between atoms: N_19  and  N_20
REMARK    6  A    between atoms: C_21  and  C_22
REMARK    7  A    between atoms: C_27  and  O_28
REMARK    8  A    between atoms: O_28  and  C_29
REMARK                            x       y       z     vdW  Elec       q    Type
REMARK                         _______ _______ _______ _____ _____    ______ ____
ROOT
ATOM      1  C   UNL     1      -1.130   1.716   0.012  0.00  0.00    +0.210 A 
ATOM      2  N   UNL     1      -0.020   0.920   0.000  0.00  0.00    -0.186 NA
ATOM      3  C   UNL     1       1.081   1.730  -0.005  0.00  0.00    +0.232 A 
ATOM      4  N   UNL     1       0.668   2.975   0.009  0.00  0.00    -0.245 N 
ATOM      5  N   UNL     1      -0.733   2.966   0.022  0.00  0.00    -0.144 NA
ATOM      6  N   UNL     1       2.403   1.310  -0.020  0.00  0.00    -0.205 N 
ATOM      7  H   UNL     1       2.639   0.236  -0.030  0.00  0.00    +0.177 HD
ATOM      8  H   UNL     1       1.399   3.797   0.008  0.00  0.00    +0.192 HD
ENDROOT
BRANCH   6   9
ATOM      9  N   UNL     1       3.438   2.254  -0.023  0.00  0.00    -0.187 NA
ATOM     10  C   UNL     1       4.676   1.860  -0.038  0.00  0.00    +0.142 C 
BRANCH  10  11
ATOM     11  C   UNL     1       5.765   2.853  -0.041  0.00  0.00    +0.036 A 
ATOM     12  C   UNL     1       7.098   2.434  -0.051  0.00  0.00    +0.013 A 
ATOM     13  C   UNL     1       8.112   3.369  -0.059  0.00  0.00    +0.001 A 
ATOM     14  C   UNL     1       7.815   4.721  -0.047  0.00  0.00    +0.004 A 
ATOM     15  C   UNL     1       6.501   5.148  -0.032  0.00  0.00    +0.046 A 
ATOM     16  C   UNL     1       5.470   4.223  -0.029  0.00  0.00    +0.129 A 
BRANCH  16  17
ATOM     17  O   UNL     1       4.178   4.642  -0.013  0.00  0.00    -0.494 OA
ATOM     18  C   UNL     1       3.953   6.053  -0.001  0.00  0.00    +0.277 C 
ENDBRANCH  16  17
ENDBRANCH  10  11
ENDBRANCH   6   9
BRANCH   1  19
ATOM     19  S   UNL     1      -2.802   1.161   0.015  0.00  0.00    -0.077 S 
BRANCH  19  20
ATOM     20  C   UNL     1      -3.773   2.693   0.032  0.00  0.00    +0.151 C 
BRANCH  20  29
ATOM     21  C   UNL     1     -10.831   1.057  -1.497  0.00  0.00    +0.044 C 
ATOM     22  C   UNL     1      -9.575   1.348  -0.718  0.00  0.00    -0.048 A 
ATOM     23  C   UNL     1      -9.607   1.331   0.670  0.00  0.00    +0.005 A 
ATOM     24  C   UNL     1      -8.468   1.594   1.399  0.00  0.00    +0.030 A 
ATOM     25  C   UNL     1      -7.280   1.879   0.739  0.00  0.00    +0.089 A 
ATOM     26  C   UNL     1      -7.247   1.896  -0.665  0.00  0.00    +0.066 A 
ATOM     27  C   UNL     1      -8.415   1.626  -1.384  0.00  0.00    +0.031 A 
ATOM     28  N   UNL     1      -5.974   2.199  -1.028  0.00  0.00    -0.341 N 
ATOM     29  C   UNL     1      -5.242   2.357   0.037  0.00  0.00    +0.118 A 
ATOM     30  N   UNL     1      -5.998   2.179   1.154  0.00  0.00    -0.232 NA
ATOM     31  H   UNL     1      -5.526   2.317  -2.025  0.00  0.00    +0.167 HD
ENDBRANCH  20  29
ENDBRANCH  19  20
ENDBRANCH   1  19
TORSDOF 6
