REMARK  Name = ZINC58849531
REMARK  10 active torsions:
REMARK  status: ('A' for Active; 'I' for Inactive)
REMARK    1  A    between atoms: C_1  and  O_2
REMARK    2  A    between atoms: O_2  and  C_3
REMARK    3  A    between atoms: C_6  and  C_9
REMARK    4  A    between atoms: C_20  and  S_25
REMARK    5  A    between atoms: S_25  and  N_28
REMARK    6  A    between atoms: N_28  and  C_29
REMARK    7  A    between atoms: C_32  and  O_37
REMARK    8  A    between atoms: C_33  and  O_35
REMARK    9  A    between atoms: O_35  and  C_36
REMARK   10  A    between atoms: O_37  and  C_38
REMARK                            x       y       z     vdW  Elec       q    Type
REMARK                         _______ _______ _______ _____ _____    ______ ____
ROOT
ATOM      1  C   UNL     1       6.962  -2.255  -4.298  0.00  0.00    +0.105 C 
ATOM      2  C   UNL     1       5.487  -2.111  -4.527  0.00  0.00    +0.029 C 
ATOM      3  C   UNL     1       4.675  -2.267  -3.224  0.00  0.00    +0.033 C 
ATOM      4  C   UNL     1       3.334  -2.787  -3.696  0.00  0.00    -0.030 C 
ATOM      5  C   UNL     1       3.420  -3.272  -4.907  0.00  0.00    -0.023 C 
ATOM      6  C   UNL     1       4.839  -3.174  -5.409  0.00  0.00    +0.049 C 
ATOM      7  C   UNL     1       5.476  -4.527  -5.269  0.00  0.00    -0.018 A 
ATOM      8  C   UNL     1       4.800  -5.629  -5.774  0.00  0.00    +0.034 A 
ATOM      9  C   UNL     1       5.339  -6.894  -5.659  0.00  0.00    +0.109 A 
ATOM     10  C   UNL     1       6.561  -7.075  -5.036  0.00  0.00    +0.030 A 
ATOM     11  C   UNL     1       7.242  -5.985  -4.535  0.00  0.00    +0.025 A 
ATOM     12  C   UNL     1       6.703  -4.707  -4.655  0.00  0.00    +0.031 A 
ATOM     13  N   UNL     1       7.422  -3.623  -4.189  0.00  0.00    -0.336 N 
ATOM     14  H   UNL     1       8.266  -3.796  -3.744  0.00  0.00    +0.147 HD
ENDROOT
BRANCH   1  18
ATOM     15  C   UNL     1       7.980  -0.195  -0.695  0.00  0.00    +0.120 A 
ATOM     16  C   UNL     1       8.159   0.424  -1.923  0.00  0.00    +0.046 A 
ATOM     17  C   UNL     1       7.830  -0.244  -3.087  0.00  0.00    +0.009 A 
ATOM     18  C   UNL     1       7.321  -1.528  -3.027  0.00  0.00    -0.027 A 
ATOM     19  C   UNL     1       7.141  -2.147  -1.804  0.00  0.00    +0.009 A 
ATOM     20  C   UNL     1       7.475  -1.486  -0.638  0.00  0.00    +0.046 A 
BRANCH  15  22
ATOM     21  C   UNL     1       8.818   1.787   0.317  0.00  0.00    +0.277 C 
ATOM     22  O   UNL     1       8.304   0.460   0.451  0.00  0.00    -0.495 OA
ENDBRANCH  15  22
ENDBRANCH   1  18
BRANCH   9  23
ATOM     23  S   UNL     1       4.468  -8.283  -6.305  0.00  0.00    +0.072 S 
ATOM     24  O   UNL     1       4.832  -9.399  -5.504  0.00  0.00    -0.150 OA
ATOM     25  O   UNL     1       3.118  -7.873  -6.474  0.00  0.00    -0.150 OA
BRANCH  23  26
ATOM     26  N   UNL     1       5.068  -8.574  -7.822  0.00  0.00    -0.216 N 
ATOM     27  H   UNL     1       5.517  -9.411  -8.013  0.00  0.00    +0.174 HD
BRANCH  26  28
ATOM     28  C   UNL     1       4.925  -7.611  -8.827  0.00  0.00    +0.052 A 
ATOM     29  C   UNL     1       3.691  -7.419  -9.435  0.00  0.00    +0.028 A 
ATOM     30  C   UNL     1       3.549  -6.468 -10.428  0.00  0.00    +0.051 A 
ATOM     31  C   UNL     1       4.636  -5.704 -10.818  0.00  0.00    +0.162 A 
ATOM     32  C   UNL     1       5.874  -5.894 -10.211  0.00  0.00    +0.163 A 
ATOM     33  C   UNL     1       6.015  -6.843  -9.212  0.00  0.00    +0.074 A 
BRANCH  32  34
ATOM     34  O   UNL     1       6.942  -5.145 -10.595  0.00  0.00    -0.491 OA
ATOM     35  C   UNL     1       8.182  -5.393  -9.928  0.00  0.00    +0.277 C 
ENDBRANCH  32  34
BRANCH  31  36
ATOM     36  O   UNL     1       4.495  -4.768 -11.796  0.00  0.00    -0.491 OA
ATOM     37  C   UNL     1       3.196  -4.627 -12.376  0.00  0.00    +0.277 C 
ENDBRANCH  31  36
ENDBRANCH  26  28
ENDBRANCH  23  26
ENDBRANCH   9  23
TORSDOF 7
