REMARK  Name = ZINC18179531
REMARK  9 active torsions:
REMARK  status: ('A' for Active; 'I' for Inactive)
REMARK    1  A    between atoms: C_1  and  C_2
REMARK    2  A    between atoms: C_5  and  N_8
REMARK    3  A    between atoms: C_13  and  C_27
REMARK    4  A    between atoms: N_15  and  C_21
REMARK    5  A    between atoms: C_29  and  O_36
REMARK    6  A    between atoms: C_30  and  O_35
REMARK    7  A    between atoms: C_31  and  O_33
REMARK    8  A    between atoms: O_33  and  C_34
REMARK    9  A    between atoms: O_36  and  C_37
REMARK                            x       y       z     vdW  Elec       q    Type
REMARK                         _______ _______ _______ _____ _____    ______ ____
ROOT
ATOM      1  N   UNL     1       0.059  -4.172  -0.021  0.00  0.00    -0.208 N 
ATOM      2  C   UNL     1       0.069  -4.939   1.117  0.00  0.00    +0.235 C 
ATOM      3  O   UNL     1      -0.151  -4.578   2.253  0.00  0.00    -0.274 OA
ATOM      4  C   UNL     1       0.401  -6.268   0.666  0.00  0.00    +0.145 C 
ATOM      5  C   UNL     1       0.274  -7.669   1.098  0.00  0.00    +0.157 C 
ATOM      6  N   UNL     1       0.352  -8.412  -0.201  0.00  0.00    -0.244 N 
ATOM      7  O   UNL     1       0.431  -7.431  -1.260  0.00  0.00    -0.257 OA
ATOM      8  C   UNL     1      -0.318  -6.317  -0.742  0.00  0.00    +0.249 C 
ATOM      9  C   UNL     1       0.062  -4.922  -1.161  0.00  0.00    +0.259 C 
ATOM     10  O   UNL     1       0.320  -4.544  -2.284  0.00  0.00    -0.272 OA
ENDROOT
BRANCH   1  15
ATOM     11  C   UNL     1      -0.018   1.503   0.010  0.00  0.00    +0.044 C 
ATOM     12  C   UNL     1       0.002  -0.004   0.002  0.00  0.00    -0.050 A 
ATOM     13  C   UNL     1       0.006  -0.688  -1.200  0.00  0.00    +0.005 A 
ATOM     14  C   UNL     1       0.025  -2.068  -1.211  0.00  0.00    +0.024 A 
ATOM     15  C   UNL     1       0.040  -2.771  -0.013  0.00  0.00    +0.044 A 
ATOM     16  C   UNL     1       0.037  -2.082   1.192  0.00  0.00    +0.024 A 
ATOM     17  C   UNL     1       0.023  -0.700   1.196  0.00  0.00    +0.005 A 
ENDBRANCH   1  15
BRANCH   6  18
ATOM     18  C   UNL     1       0.348  -9.800  -0.360  0.00  0.00    +0.065 A 
ATOM     19  C   UNL     1       0.262 -10.627   0.752  0.00  0.00    +0.028 A 
ATOM     20  C   UNL     1       0.259 -11.999   0.591  0.00  0.00    +0.002 A 
ATOM     21  C   UNL     1       0.342 -12.549  -0.675  0.00  0.00    +0.000 A 
ATOM     22  C   UNL     1       0.428 -11.727  -1.785  0.00  0.00    +0.002 A 
ATOM     23  C   UNL     1       0.426 -10.355  -1.631  0.00  0.00    +0.028 A 
ENDBRANCH   6  18
BRANCH   5  24
ATOM     24  C   UNL     1       1.411  -8.055   2.009  0.00  0.00    -0.015 A 
ATOM     25  C   UNL     1       2.643  -8.379   1.474  0.00  0.00    +0.055 A 
ATOM     26  C   UNL     1       3.691  -8.735   2.310  0.00  0.00    +0.165 A 
ATOM     27  C   UNL     1       3.502  -8.764   3.686  0.00  0.00    +0.201 A 
ATOM     28  C   UNL     1       2.261  -8.437   4.220  0.00  0.00    +0.165 A 
ATOM     29  C   UNL     1       1.219  -8.077   3.378  0.00  0.00    +0.055 A 
BRANCH  28  30
ATOM     30  O   UNL     1       2.070  -8.464   5.566  0.00  0.00    -0.491 OA
ATOM     31  C   UNL     1       0.769  -8.115   6.044  0.00  0.00    +0.277 C 
ENDBRANCH  28  30
BRANCH  27  32
ATOM     32  O   UNL     1       4.528  -9.113   4.509  0.00  0.00    -0.501 OA
ATOM     33  H   UNL     1       5.070  -8.367   4.799  0.00  0.00    +0.292 HD
ENDBRANCH  27  32
BRANCH  26  34
ATOM     34  O   UNL     1       4.904  -9.055   1.783  0.00  0.00    -0.491 OA
ATOM     35  C   UNL     1       5.026  -9.003   0.360  0.00  0.00    +0.277 C 
ENDBRANCH  26  34
ENDBRANCH   5  24
TORSDOF 6
