REMARK  Name = ZINC46145681
REMARK  9 active torsions:
REMARK  status: ('A' for Active; 'I' for Inactive)
REMARK    1  A    between atoms: C_1  and  C_2
REMARK    2  A    between atoms: C_2  and  O_3
REMARK    3  A    between atoms: O_3  and  C_4
REMARK    4  A    between atoms: C_4  and  C_6
REMARK    5  A    between atoms: N_8  and  C_9
REMARK    6  A    between atoms: C_14  and  S_15
REMARK    7  A    between atoms: S_15  and  C_18
REMARK    8  A    between atoms: N_24  and  C_29
REMARK    9  A    between atoms: N_27  and  C_28
REMARK                            x       y       z     vdW  Elec       q    Type
REMARK                         _______ _______ _______ _____ _____    ______ ____
ROOT
ATOM      1  C   UNL     1       2.486  -4.223   3.718  0.00  0.00    +0.061 A 
ATOM      2  C   UNL     1       3.004  -3.366   4.680  0.00  0.00    +0.053 A 
ATOM      3  C   UNL     1       3.623  -3.887   5.804  0.00  0.00    +0.071 A 
ATOM      4  C   UNL     1       3.725  -5.271   5.966  0.00  0.00    +0.071 A 
ATOM      5  C   UNL     1       3.206  -6.121   5.002  0.00  0.00    +0.057 A 
ATOM      6  C   UNL     1       2.584  -5.600   3.885  0.00  0.00    +0.117 A 
ATOM      7  N   UNL     1       4.386  -5.486   7.174  0.00  0.00    -0.295 N 
ATOM      8  C   UNL     1       4.673  -4.290   7.720  0.00  0.00    +0.330 A 
ATOM      9  O   UNL     1       5.249  -4.122   8.779  0.00  0.00    -0.246 OA
ATOM     10  N   UNL     1       4.225  -3.306   6.918  0.00  0.00    -0.295 N 
ATOM     11  C   UNL     1       4.351  -1.868   7.172  0.00  0.00    +0.154 C 
ATOM     12  C   UNL     1       4.713  -6.793   7.752  0.00  0.00    +0.154 C 
ENDROOT
BRANCH   1  15
ATOM     13  C   UNL     1       1.302  -2.475   2.624  0.00  0.00    +0.326 C 
ATOM     14  O   UNL     1       1.254  -1.865   3.672  0.00  0.00    -0.263 OA
ATOM     15  N   UNL     1       1.861  -3.700   2.582  0.00  0.00    -0.274 N 
ATOM     16  H   UNL     1       1.829  -4.220   1.763  0.00  0.00    +0.155 HD
BRANCH  13  17
ATOM     17  C   UNL     1       0.741  -1.867   1.381  0.00  0.00    +0.395 C 
ATOM     18  O   UNL     1       0.789  -2.476   0.333  0.00  0.00    -0.240 OA
BRANCH  17  19
ATOM     19  O   UNL     1       0.183  -0.643   1.423  0.00  0.00    -0.458 OA
BRANCH  19  21
ATOM     20  C   UNL     1      -0.924   1.267   0.439  0.00  0.00    +0.048 C 
ATOM     21  C   UNL     1      -0.334  -0.123   0.196  0.00  0.00    +0.229 C 
ENDBRANCH  19  21
ENDBRANCH  17  19
ENDBRANCH  13  17
ENDBRANCH   1  15
BRANCH   6  22
ATOM     22  S   UNL     1       1.919  -6.682   2.664  0.00  0.00    +0.027 S 
ATOM     23  O   UNL     1       2.366  -6.197   1.405  0.00  0.00    -0.164 OA
ATOM     24  O   UNL     1       2.184  -8.006   3.108  0.00  0.00    -0.164 OA
BRANCH  22  25
ATOM     25  C   UNL     1       0.169  -6.483   2.689  0.00  0.00    +0.094 A 
ATOM     26  C   UNL     1      -0.610  -7.314   3.471  0.00  0.00    +0.027 A 
ATOM     27  C   UNL     1      -1.984  -7.158   3.491  0.00  0.00    +0.002 A 
ATOM     28  C   UNL     1      -2.578  -6.170   2.728  0.00  0.00    +0.000 A 
ATOM     29  C   UNL     1      -1.798  -5.338   1.946  0.00  0.00    +0.002 A 
ATOM     30  C   UNL     1      -0.425  -5.491   1.930  0.00  0.00    +0.027 A 
ENDBRANCH  22  25
ENDBRANCH   6  22
TORSDOF 6
