REMARK  Name = ZINC39726120
REMARK  9 active torsions:
REMARK  status: ('A' for Active; 'I' for Inactive)
REMARK    1  A    between atoms: C_4  and  S_23
REMARK    2  A    between atoms: C_5  and  C_7
REMARK    3  A    between atoms: C_7  and  O_9
REMARK    4  A    between atoms: O_9  and  C_10
REMARK    5  A    between atoms: C_10  and  C_11
REMARK    6  A    between atoms: C_11  and  C_13
REMARK    7  A    between atoms: S_23  and  C_24
REMARK    8  A    between atoms: C_24  and  C_25
REMARK    9  A    between atoms: N_27  and  C_28
REMARK                            x       y       z     vdW  Elec       q    Type
REMARK                         _______ _______ _______ _____ _____    ______ ____
ROOT
ATOM      1  C   UNL     1      -0.017   1.374  -0.020  0.00  0.00    +0.001 A 
ATOM      2  C   UNL     1       1.170   2.091  -0.029  0.00  0.00    +0.001 A 
ATOM      3  C   UNL     1       2.383   1.435  -0.035  0.00  0.00    +0.015 A 
ATOM      4  C   UNL     1       2.423   0.045  -0.034  0.00  0.00    +0.022 A 
ATOM      5  C   UNL     1       1.223  -0.684  -0.026  0.00  0.00    +0.072 A 
ATOM      6  C   UNL     1       0.002  -0.003  -0.019  0.00  0.00    +0.016 A 
ENDROOT
BRANCH   5   7
ATOM      7  C   UNL     1       1.250  -2.156  -0.025  0.00  0.00    +0.341 C 
ATOM      8  O   UNL     1       2.314  -2.744  -0.032  0.00  0.00    -0.245 OA
BRANCH   7   9
ATOM      9  O   UNL     1       0.096  -2.852  -0.017  0.00  0.00    -0.453 OA
BRANCH   9  10
ATOM     10  C   UNL     1       0.197  -4.277  -0.017  0.00  0.00    +0.311 C 
BRANCH  10  11
ATOM     11  C   UNL     1      -1.184  -4.879  -0.008  0.00  0.00    +0.200 C 
ATOM     12  O   UNL     1      -2.160  -4.159  -0.002  0.00  0.00    -0.288 OA
BRANCH  11  13
ATOM     13  C   UNL     1      -1.350  -6.340  -0.006  0.00  0.00    +0.023 A 
ATOM     14  C   UNL     1      -0.163  -7.203  -0.007  0.00  0.00    +0.013 A 
ATOM     15  C   UNL     1      -0.257  -8.550  -0.005  0.00  0.00    +0.026 A 
ATOM     16  C   UNL     1      -1.519  -9.181  -0.002  0.00  0.00    +0.056 A 
ATOM     17  N   UNL     1      -1.921 -10.435   0.001  0.00  0.00    -0.268 N 
ATOM     18  C   UNL     1      -3.285 -10.451   0.004  0.00  0.00    +0.308 C 
ATOM     19  O   UNL     1      -3.971 -11.452   0.007  0.00  0.00    -0.252 OA
ATOM     20  N   UNL     1      -3.769  -9.156   0.003  0.00  0.00    -0.268 N 
ATOM     21  C   UNL     1      -2.754  -8.337   0.000  0.00  0.00    +0.057 A 
ATOM     22  C   UNL     1      -2.608  -6.876   0.003  0.00  0.00    +0.036 A 
ATOM     23  H   UNL     1      -4.705  -8.900   0.005  0.00  0.00    +0.156 HD
ATOM     24  H   UNL     1      -1.344 -11.215  -0.000  0.00  0.00    +0.156 HD
ENDBRANCH  11  13
ENDBRANCH  10  11
ENDBRANCH   9  10
ENDBRANCH   7   9
ENDBRANCH   5   7
BRANCH   4  25
ATOM     25  S   UNL     1       3.971  -0.796  -0.044  0.00  0.00    -0.115 S 
BRANCH  25  26
ATOM     26  C   UNL     1       5.197   0.541  -0.053  0.00  0.00    +0.170 C 
BRANCH  26  27
ATOM     27  C   UNL     1       6.584  -0.049  -0.062  0.00  0.00    +0.227 C 
ATOM     28  O   UNL     1       6.731  -1.253  -0.062  0.00  0.00    -0.275 OA
ATOM     29  N   UNL     1       7.661   0.761  -0.070  0.00  0.00    -0.285 N 
ATOM     30  H   UNL     1       7.545   1.722  -0.138  0.00  0.00    +0.155 HD
BRANCH  29  31
ATOM     31  C   UNL     1       8.948   0.216   0.019  0.00  0.00    +0.034 A 
ATOM     32  C   UNL     1       9.942   0.891   0.714  0.00  0.00    +0.026 A 
ATOM     33  C   UNL     1      11.211   0.352   0.801  0.00  0.00    +0.040 A 
ATOM     34  C   UNL     1      11.492  -0.861   0.196  0.00  0.00    +0.124 A 
ATOM     35  C   UNL     1      10.501  -1.536  -0.498  0.00  0.00    +0.040 A 
ATOM     36  C   UNL     1       9.230  -1.003  -0.582  0.00  0.00    +0.026 A 
ATOM     37  F   UNL     1      12.733  -1.386   0.281  0.00  0.00    -0.205 F 
ENDBRANCH  29  31
ENDBRANCH  26  27
ENDBRANCH  25  26
ENDBRANCH   4  25
TORSDOF 9
