REMARK  Name = ZINC63617055
REMARK  7 active torsions:
REMARK  status: ('A' for Active; 'I' for Inactive)
REMARK    1  A    between atoms: C_1  and  N_2
REMARK    2  A    between atoms: N_2  and  C_3
REMARK    3  A    between atoms: C_3  and  C_5
REMARK    4  A    between atoms: C_3  and  C_11
REMARK    5  A    between atoms: N_13  and  C_14
REMARK    6  A    between atoms: C_23  and  C_25
REMARK    7  A    between atoms: C_25  and  C_26
REMARK                            x       y       z     vdW  Elec       q    Type
REMARK                         _______ _______ _______ _____ _____    ______ ____
ROOT
ATOM      1  C   UNL     1       0.153  -0.753   1.194  0.00  0.00    +0.192 C 
ENDROOT
BRANCH   1   2
ATOM      2  C   UNL     1       1.466  -0.265   1.750  0.00  0.00    -0.018 A 
ATOM      3  C   UNL     1       2.534  -1.135   1.865  0.00  0.00    +0.006 A 
ATOM      4  C   UNL     1       3.739  -0.688   2.375  0.00  0.00    +0.000 A 
ATOM      5  C   UNL     1       3.875   0.630   2.770  0.00  0.00    +0.000 A 
ATOM      6  C   UNL     1       2.807   1.500   2.654  0.00  0.00    +0.000 A 
ATOM      7  C   UNL     1       1.604   1.054   2.140  0.00  0.00    +0.006 A 
ENDBRANCH   1   2
BRANCH   1   9
ATOM      8  C   UNL     1      -0.187   1.425  -0.064  0.00  0.00    +0.133 C 
ATOM      9  N   UNL     1      -0.145  -0.040  -0.051  0.00  0.00    -0.289 N 
ATOM     10  C   UNL     1      -0.381  -0.731  -1.183  0.00  0.00    +0.220 C 
ATOM     11  O   UNL     1      -0.347  -1.943  -1.173  0.00  0.00    -0.275 OA
BRANCH  10  12
ATOM     12  C   UNL     1      -0.688   0.003  -2.463  0.00  0.00    +0.129 C 
BRANCH  12  13
ATOM     13  C   UNL     1      -0.911  -0.993  -3.572  0.00  0.00    -0.033 C 
ATOM     14  C   UNL     1      -2.097  -1.483  -3.999  0.00  0.00    -0.001 A 
ATOM     15  C   UNL     1      -3.482  -1.246  -3.573  0.00  0.00    +0.010 A 
ATOM     16  C   UNL     1      -4.483  -1.900  -4.205  0.00  0.00    +0.001 A 
ATOM     17  C   UNL     1      -4.232  -2.796  -5.253  0.00  0.00    +0.002 A 
ATOM     18  C   UNL     1      -2.987  -3.066  -5.700  0.00  0.00    +0.026 A 
ATOM     19  C   UNL     1      -1.859  -2.434  -5.108  0.00  0.00    +0.043 A 
ATOM     20  N   UNL     1      -0.575  -2.528  -5.358  0.00  0.00    -0.380 N 
ATOM     21  C   UNL     1       0.146  -1.641  -4.438  0.00  0.00    +0.145 C 
ATOM     22  H   UNL     1      -0.171  -3.087  -6.040  0.00  0.00    +0.160 HD
ENDBRANCH  12  13
ENDBRANCH  10  12
ENDBRANCH   1   9
BRANCH   1  23
ATOM     23  C   UNL     1      -0.943  -0.496   2.195  0.00  0.00    +0.242 C 
ATOM     24  O   UNL     1      -1.881   0.213   1.899  0.00  0.00    -0.273 OA
ATOM     25  N   UNL     1      -0.881  -1.055   3.421  0.00  0.00    -0.284 N 
ATOM     26  H   UNL     1      -0.159  -1.665   3.639  0.00  0.00    +0.155 HD
BRANCH  25  27
ATOM     27  C   UNL     1      -1.858  -0.753   4.378  0.00  0.00    +0.037 A 
ATOM     28  C   UNL     1      -1.510  -0.655   5.718  0.00  0.00    +0.027 A 
ATOM     29  C   UNL     1      -2.473  -0.358   6.664  0.00  0.00    +0.051 A 
ATOM     30  C   UNL     1      -3.788  -0.157   6.277  0.00  0.00    +0.166 A 
ATOM     31  C   UNL     1      -4.141  -0.255   4.933  0.00  0.00    +0.168 A 
ATOM     32  C   UNL     1      -3.174  -0.547   3.986  0.00  0.00    +0.072 A 
ATOM     33  O   UNL     1      -5.480  -0.017   4.815  0.00  0.00    -0.453 OA
ATOM     34  C   UNL     1      -6.017  -0.177   6.141  0.00  0.00    +0.466 C 
ATOM     35  O   UNL     1      -4.907   0.142   7.001  0.00  0.00    -0.453 OA
ENDBRANCH  25  27
ENDBRANCH   1  23
TORSDOF 6
