REMARK  Name = ZINC21084343
REMARK  8 active torsions:
REMARK  status: ('A' for Active; 'I' for Inactive)
REMARK    1  A    between atoms: C_1  and  N_2
REMARK    2  A    between atoms: N_2  and  C_3
REMARK    3  A    between atoms: N_2  and  C_4
REMARK    4  A    between atoms: C_7  and  N_10
REMARK    5  A    between atoms: C_11  and  C_13
REMARK    6  A    between atoms: C_13  and  S_14
REMARK    7  A    between atoms: S_14  and  C_15
REMARK    8  A    between atoms: N_20  and  N_21
REMARK                            x       y       z     vdW  Elec       q    Type
REMARK                         _______ _______ _______ _____ _____    ______ ____
ROOT
ATOM      1  S   UNL     1       6.017   2.021  -0.108  0.00  0.00    -0.075 S 
ENDROOT
BRANCH   1   2
ATOM      2  C   UNL     1       4.261   1.880  -0.088  0.00  0.00    +0.211 A 
ATOM      3  N   UNL     1       3.548   0.715  -0.108  0.00  0.00    -0.186 NA
ATOM      4  C   UNL     1       2.219   1.032  -0.082  0.00  0.00    +0.232 A 
ATOM      5  N   UNL     1       2.114   2.338  -0.052  0.00  0.00    -0.245 N 
ATOM      6  N   UNL     1       3.408   2.876  -0.051  0.00  0.00    -0.144 NA
ATOM      7  N   UNL     1       1.164   0.129  -0.091  0.00  0.00    -0.205 N 
ATOM      8  H   UNL     1       1.366  -0.952  -0.117  0.00  0.00    +0.177 HD
ATOM      9  H   UNL     1       1.121   2.810  -0.034  0.00  0.00    +0.192 HD
BRANCH   7  10
ATOM     10  N   UNL     1      -0.157   0.595  -0.067  0.00  0.00    -0.189 NA
ATOM     11  C   UNL     1      -1.129  -0.232  -0.170  0.00  0.00    +0.037 C 
ATOM     12  C   UNL     1      -0.879  -1.723  -0.204  0.00  0.00    +0.052 C 
ATOM     13  C   UNL     1      -1.781  -2.388   0.848  0.00  0.00    +0.006 C 
ATOM     14  C   UNL     1      -3.235  -1.988   0.593  0.00  0.00    +0.001 C 
ATOM     15  C   UNL     1      -3.398  -0.479   0.781  0.00  0.00    +0.006 C 
ATOM     16  C   UNL     1      -2.557   0.258  -0.268  0.00  0.00    +0.052 C 
ENDBRANCH   7  10
ENDBRANCH   1   2
BRANCH   1  17
ATOM     17  C   UNL     1       6.314   3.810  -0.067  0.00  0.00    +0.173 C 
BRANCH  17  19
ATOM     18  N   UNL     1       8.259   5.339  -0.055  0.00  0.00    -0.285 N 
ATOM     19  C   UNL     1       7.798   4.072  -0.081  0.00  0.00    +0.227 C 
ATOM     20  O   UNL     1       8.578   3.144  -0.115  0.00  0.00    -0.275 OA
ATOM     21  H   UNL     1       7.556   6.177   0.067  0.00  0.00    +0.155 HD
BRANCH  18  25
ATOM     22  C   UNL     1      12.345   6.081  -0.437  0.00  0.00    +0.029 A 
ATOM     23  C   UNL     1      11.763   5.025  -1.127  0.00  0.00    +0.025 A 
ATOM     24  C   UNL     1      10.411   4.780  -1.000  0.00  0.00    +0.025 A 
ATOM     25  C   UNL     1       9.632   5.588  -0.183  0.00  0.00    +0.034 A 
ATOM     26  C   UNL     1      10.212   6.647   0.502  0.00  0.00    +0.025 A 
ATOM     27  C   UNL     1      11.566   6.889   0.380  0.00  0.00    +0.025 A 
BRANCH  22  29
ATOM     28  C   UNL     1      14.559   5.408  -1.330  0.00  0.00    +0.129 C 
ATOM     29  N   UNL     1      13.716   6.330  -0.565  0.00  0.00    -0.336 N 
ATOM     30  C   UNL     1      14.308   7.511   0.066  0.00  0.00    +0.129 C 
ENDBRANCH  22  29
ENDBRANCH  18  25
ENDBRANCH  17  19
ENDBRANCH   1  17
TORSDOF 6
