REMARK  Name = ZINC13113497
REMARK  10 active torsions:
REMARK  status: ('A' for Active; 'I' for Inactive)
REMARK    1  A    between atoms: C_1  and  C_2
REMARK    2  A    between atoms: C_2  and  C_25
REMARK    3  A    between atoms: N_5  and  C_9
REMARK    4  A    between atoms: C_9  and  C_10
REMARK    5  A    between atoms: N_12  and  C_13
REMARK    6  A    between atoms: C_18  and  C_19
REMARK    7  A    between atoms: C_25  and  C_26
REMARK    8  A    between atoms: C_26  and  C_27
REMARK    9  A    between atoms: C_30  and  O_33
REMARK   10  A    between atoms: O_33  and  C_34
REMARK                            x       y       z     vdW  Elec       q    Type
REMARK                         _______ _______ _______ _____ _____    ______ ____
ROOT
ATOM      1  C   UNL     1      -0.018   1.083   0.018  0.00  0.00    +0.041 C 
ATOM      2  C   UNL     1      -0.727   1.573   1.283  0.00  0.00    +0.110 C 
ATOM      3  C   UNL     1      -0.656   3.084   1.382  0.00  0.00    +0.247 C 
ATOM      4  O   UNL     1      -1.113   3.891   0.602  0.00  0.00    -0.273 OA
ATOM      5  N   UNL     1       0.022   3.343   2.518  0.00  0.00    -0.215 N 
ATOM      6  C   UNL     1       0.385   2.217   3.143  0.00  0.00    +0.310 C 
ATOM      7  O   UNL     1       1.006   2.195   4.188  0.00  0.00    -0.252 OA
ATOM      8  N   UNL     1      -0.014   1.113   2.487  0.00  0.00    -0.285 N 
ATOM      9  H   UNL     1       0.139   0.193   2.754  0.00  0.00    +0.151 HD
ENDROOT
BRANCH   5  10
ATOM     10  C   UNL     1       0.324   4.690   3.007  0.00  0.00    +0.214 C 
BRANCH  10  11
ATOM     11  C   UNL     1       1.649   5.142   2.448  0.00  0.00    +0.235 C 
ATOM     12  O   UNL     1       2.278   4.411   1.714  0.00  0.00    -0.274 OA
ATOM     13  N   UNL     1       2.133   6.359   2.764  0.00  0.00    -0.284 N 
ATOM     14  H   UNL     1       1.595   6.975   3.286  0.00  0.00    +0.155 HD
BRANCH  13  15
ATOM     15  C   UNL     1       3.412   6.734   2.342  0.00  0.00    +0.041 A 
ATOM     16  C   UNL     1       4.367   5.765   2.071  0.00  0.00    +0.024 A 
ATOM     17  C   UNL     1       5.628   6.137   1.647  0.00  0.00    +0.002 A 
ATOM     18  C   UNL     1       5.950   7.475   1.502  0.00  0.00    +0.001 A 
ATOM     19  C   UNL     1       5.011   8.450   1.773  0.00  0.00    +0.010 A 
ATOM     20  C   UNL     1       3.735   8.087   2.195  0.00  0.00    +0.003 A 
BRANCH  20  21
ATOM     21  C   UNL     1       2.722   9.131   2.488  0.00  0.00    -0.016 A 
ATOM     22  C   UNL     1       1.450   9.048   1.925  0.00  0.00    +0.008 A 
ATOM     23  C   UNL     1       0.509  10.019   2.206  0.00  0.00    +0.001 A 
ATOM     24  C   UNL     1       0.832  11.079   3.034  0.00  0.00    +0.000 A 
ATOM     25  C   UNL     1       2.095  11.169   3.591  0.00  0.00    +0.001 A 
ATOM     26  C   UNL     1       3.041  10.201   3.322  0.00  0.00    +0.008 A 
ENDBRANCH  20  21
ENDBRANCH  13  15
ENDBRANCH  10  11
ENDBRANCH   5  10
BRANCH   2  27
ATOM     27  C   UNL     1      -2.180   1.096   1.303  0.00  0.00    +0.039 C 
BRANCH  27  28
ATOM     28  C   UNL     1      -2.215  -0.431   1.383  0.00  0.00    +0.038 C 
BRANCH  28  29
ATOM     29  C   UNL     1      -3.647  -0.900   1.402  0.00  0.00    -0.047 A 
ATOM     30  C   UNL     1      -4.305  -1.058   2.608  0.00  0.00    +0.007 A 
ATOM     31  C   UNL     1      -5.620  -1.483   2.628  0.00  0.00    +0.046 A 
ATOM     32  C   UNL     1      -6.276  -1.762   1.438  0.00  0.00    +0.120 A 
ATOM     33  C   UNL     1      -5.612  -1.609   0.230  0.00  0.00    +0.046 A 
ATOM     34  C   UNL     1      -4.299  -1.178   0.215  0.00  0.00    +0.007 A 
BRANCH  32  35
ATOM     35  O   UNL     1      -7.567  -2.185   1.456  0.00  0.00    -0.495 OA
ATOM     36  C   UNL     1      -8.188  -2.320   2.736  0.00  0.00    +0.277 C 
ENDBRANCH  32  35
ENDBRANCH  28  29
ENDBRANCH  27  28
ENDBRANCH   2  27
TORSDOF 8
