REMARK  Name = ZINC38615198
REMARK  11 active torsions:
REMARK  status: ('A' for Active; 'I' for Inactive)
REMARK    1  A    between atoms: C_1  and  C_2
REMARK    2  A    between atoms: C_5  and  C_8
REMARK    3  A    between atoms: N_12  and  C_16
REMARK    4  A    between atoms: C_16  and  C_17
REMARK    5  A    between atoms: C_17  and  C_18
REMARK    6  A    between atoms: N_20  and  C_21
REMARK    7  A    between atoms: C_21  and  C_22
REMARK    8  A    between atoms: C_22  and  C_24
REMARK    9  A    between atoms: C_22  and  N_32
REMARK   10  A    between atoms: C_27  and  O_30
REMARK   11  A    between atoms: O_30  and  C_31
REMARK                            x       y       z     vdW  Elec       q    Type
REMARK                         _______ _______ _______ _____ _____    ______ ____
ROOT
ATOM      1  C   UNL     1       2.227 -10.077   3.018  0.00  0.00    +0.214 C 
ATOM      2  O   UNL     1       1.238 -10.758   3.190  0.00  0.00    -0.276 OA
ATOM      3  N   UNL     1       3.452 -10.614   3.179  0.00  0.00    -0.316 N 
ATOM      4  H   UNL     1       4.243 -10.070   3.042  0.00  0.00    +0.149 HD
ENDROOT
BRANCH   1   5
ATOM      5  C   UNL     1       2.085  -8.629   2.623  0.00  0.00    +0.115 C 
BRANCH   5   6
ATOM      6  C   UNL     1       0.602  -8.275   2.508  0.00  0.00    +0.124 C 
BRANCH   6  11
ATOM      7  C   UNL     1       0.205  -4.499  -0.686  0.00  0.00    +0.028 C 
ATOM      8  C   UNL     1       0.278  -5.113   0.521  0.00  0.00    +0.077 C 
ATOM      9  C   UNL     1       0.418  -6.549   0.841  0.00  0.00    +0.258 C 
ATOM     10  O   UNL     1       0.486  -7.395  -0.030  0.00  0.00    -0.269 OA
ATOM     11  N   UNL     1       0.464  -6.867   2.124  0.00  0.00    -0.255 N 
ATOM     12  C   UNL     1       0.387  -5.927   3.087  0.00  0.00    +0.121 C 
ATOM     13  S   UNL     1       0.429  -6.138   4.785  0.00  0.00    -0.027 S 
ATOM     14  S   UNL     1       0.239  -4.406   2.163  0.00  0.00    -0.061 S 
BRANCH   7  19
ATOM     15  C   UNL     1      -0.940   1.125  -0.988  0.00  0.00    +0.044 C 
ATOM     16  C   UNL     1      -0.639  -0.350  -0.908  0.00  0.00    -0.050 A 
ATOM     17  C   UNL     1      -0.102  -1.002  -2.005  0.00  0.00    +0.004 A 
ATOM     18  C   UNL     1       0.175  -2.351  -1.941  0.00  0.00    +0.008 A 
ATOM     19  C   UNL     1      -0.087  -3.060  -0.763  0.00  0.00    -0.024 A 
ATOM     20  C   UNL     1      -0.629  -2.393   0.341  0.00  0.00    +0.008 A 
ATOM     21  C   UNL     1      -0.897  -1.043   0.262  0.00  0.00    +0.004 A 
ENDBRANCH   7  19
ENDBRANCH   6  11
ENDBRANCH   5   6
ENDBRANCH   1   5
BRANCH   3  22
ATOM     22  C   UNL     1       3.590 -12.021   3.563  0.00  0.00    +0.093 C 
BRANCH  22  23
ATOM     23  C   UNL     1       5.066 -12.342   3.807  0.00  0.00    -0.020 C 
BRANCH  23  24
ATOM     24  N   UNL     1       5.214 -13.773   4.103  0.00  0.00    +0.385 N 
ATOM     25  C   UNL     1       6.624 -14.070   4.383  0.00  0.00    -0.078 C 
ATOM     26  C   UNL     1       6.772 -15.542   4.771  0.00  0.00    -0.019 C 
ATOM     27  C   UNL     1       6.283 -16.421   3.616  0.00  0.00    -0.004 C 
ATOM     28  C   UNL     1       4.834 -16.051   3.284  0.00  0.00    -0.019 C 
ATOM     29  C   UNL     1       4.758 -14.559   2.951  0.00  0.00    -0.078 C 
ATOM     30  H   UNL     1       4.657 -14.008   4.911  0.00  0.00    -0.081 HD
ENDBRANCH  23  24
BRANCH  23  31
ATOM     31  C   UNL     1       5.569 -11.532   4.974  0.00  0.00    -0.059 A 
ATOM     32  C   UNL     1       5.306 -11.948   6.266  0.00  0.00    +0.005 A 
ATOM     33  C   UNL     1       5.767 -11.207   7.338  0.00  0.00    +0.046 A 
ATOM     34  C   UNL     1       6.493 -10.046   7.117  0.00  0.00    +0.120 A 
ATOM     35  C   UNL     1       6.756  -9.632   5.819  0.00  0.00    +0.046 A 
ATOM     36  C   UNL     1       6.298 -10.379   4.751  0.00  0.00    +0.005 A 
BRANCH  34  37
ATOM     37  O   UNL     1       6.947  -9.316   8.169  0.00  0.00    -0.495 OA
ATOM     38  C   UNL     1       7.688  -8.132   7.867  0.00  0.00    +0.277 C 
ENDBRANCH  34  37
ENDBRANCH  23  31
ENDBRANCH  22  23
ENDBRANCH   3  22
TORSDOF 9
