REMARK  Name = ZINC12679108
REMARK  6 active torsions:
REMARK  status: ('A' for Active; 'I' for Inactive)
REMARK    1  A    between atoms: C_3  and  C_6
REMARK    2  A    between atoms: C_15  and  C_16
REMARK    3  A    between atoms: C_15  and  N_57
REMARK    4  A    between atoms: N_18  and  C_19
REMARK    5  A    between atoms: C_22  and  S_25
REMARK    6  A    between atoms: S_25  and  N_28
REMARK                            x       y       z     vdW  Elec       q    Type
REMARK                         _______ _______ _______ _____ _____    ______ ____
ROOT
ATOM      1  C   UNL     1       4.776   0.037  -0.145  0.00  0.00    +0.201 C 
ATOM      2  O   UNL     1       4.761   1.250  -0.139  0.00  0.00    -0.278 OA
ATOM      3  N   UNL     1       3.622  -0.651  -0.036  0.00  0.00    -0.287 N 
ATOM      4  H   UNL     1       3.638  -1.619   0.026  0.00  0.00    +0.155 HD
ENDROOT
BRANCH   3   5
ATOM      5  C   UNL     1       2.400   0.032  -0.013  0.00  0.00    +0.033 A 
ATOM      6  C   UNL     1       1.278  -0.530  -0.607  0.00  0.00    +0.025 A 
ATOM      7  C   UNL     1       0.074   0.146  -0.582  0.00  0.00    +0.030 A 
ATOM      8  C   UNL     1      -0.015   1.381   0.033  0.00  0.00    +0.106 A 
ATOM      9  C   UNL     1       1.101   1.943   0.626  0.00  0.00    +0.030 A 
ATOM     10  C   UNL     1       2.308   1.272   0.605  0.00  0.00    +0.025 A 
BRANCH   8  11
ATOM     11  S   UNL     1      -1.552   2.243   0.056  0.00  0.00    +0.061 S 
ATOM     12  O   UNL     1      -1.242   3.620   0.217  0.00  0.00    -0.153 OA
ATOM     13  O   UNL     1      -2.307   1.756  -1.044  0.00  0.00    -0.153 OA
BRANCH  11  14
ATOM     14  N   UNL     1      -2.355   1.776   1.427  0.00  0.00    -0.177 NA
ATOM     15  C   UNL     1      -3.287   0.643   1.530  0.00  0.00    +0.109 C 
ATOM     16  C   UNL     1      -3.806   0.607   2.982  0.00  0.00    +0.018 C 
ATOM     17  C   UNL     1      -3.580   2.064   3.466  0.00  0.00    +0.018 C 
ATOM     18  C   UNL     1      -2.259   2.430   2.744  0.00  0.00    +0.109 C 
ENDBRANCH  11  14
ENDBRANCH   8  11
ENDBRANCH   3   5
BRANCH   1  19
ATOM     19  C   UNL     1       6.083  -0.701  -0.276  0.00  0.00    +0.020 C 
BRANCH  19  28
ATOM     20  C   UNL     1       7.005   1.146  -1.541  0.00  0.00    +0.002 C 
ATOM     21  C   UNL     1       8.160   2.142  -1.582  0.00  0.00    -0.046 A 
ATOM     22  C   UNL     1       8.522   2.865  -2.716  0.00  0.00    +0.010 A 
ATOM     23  C   UNL     1       9.565   3.727  -2.665  0.00  0.00    +0.045 A 
ATOM     24  S   UNL     1      10.102   3.555  -0.969  0.00  0.00    -0.101 S 
ATOM     25  C   UNL     1       8.902   2.357  -0.460  0.00  0.00    -0.010 A 
ATOM     26  C   UNL     1       8.713   1.709   0.872  0.00  0.00    +0.024 C 
ATOM     27  C   UNL     1       7.334   1.028   0.870  0.00  0.00    -0.072 C 
ATOM     28  N   UNL     1       7.211   0.245  -0.383  0.00  0.00    +0.393 N 
ATOM     29  H   UNL     1       8.078  -0.286  -0.528  0.00  0.00    -0.080 HD
BRANCH  20  32
ATOM     30  C   UNL     1       6.402  -0.430  -4.957  0.00  0.00    +0.008 A 
ATOM     31  C   UNL     1       6.227   0.451  -3.906  0.00  0.00    +0.010 A 
ATOM     32  C   UNL     1       7.003   0.321  -2.803  0.00  0.00    -0.019 A 
ATOM     33  S   UNL     1       8.027  -1.076  -3.234  0.00  0.00    -0.103 S 
ATOM     34  C   UNL     1       7.346  -1.397  -4.853  0.00  0.00    +0.045 A 
ENDBRANCH  20  32
ENDBRANCH  19  28
ENDBRANCH   1  19
TORSDOF 6
