REMARK  Name = ZINC39665385
REMARK  9 active torsions:
REMARK  status: ('A' for Active; 'I' for Inactive)
REMARK    1  A    between atoms: C_1  and  C_2
REMARK    2  A    between atoms: C_2  and  C_4
REMARK    3  A    between atoms: C_2  and  O_31
REMARK    4  A    between atoms: C_4  and  N_5
REMARK    5  A    between atoms: C_6  and  C_8
REMARK    6  A    between atoms: C_19  and  C_21
REMARK    7  A    between atoms: C_24  and  O_28
REMARK    8  A    between atoms: O_28  and  C_29
REMARK    9  A    between atoms: O_31  and  C_32
REMARK                            x       y       z     vdW  Elec       q    Type
REMARK                         _______ _______ _______ _____ _____    ______ ____
ROOT
ATOM      1  C   UNL     1      -2.492  -7.527   1.730  0.00  0.00    +0.100 C 
ATOM      2  C   UNL     1      -2.664  -6.809   3.088  0.00  0.00    +0.121 C 
ATOM      3  N   UNL     1      -3.705  -5.785   2.841  0.00  0.00    -0.296 N 
ATOM      4  C   UNL     1      -4.684  -6.460   1.956  0.00  0.00    +0.115 C 
ATOM      5  C   UNL     1      -3.821  -7.298   0.992  0.00  0.00    -0.004 C 
ATOM      6  C   UNL     1      -4.500  -8.633   0.700  0.00  0.00    -0.010 C 
ATOM      7  C   UNL     1      -5.790  -8.384  -0.086  0.00  0.00    -0.082 C 
ATOM      8  N   UNL     1      -5.476  -7.688  -1.339  0.00  0.00    +0.379 N 
ATOM      9  C   UNL     1      -4.908  -6.365  -1.049  0.00  0.00    -0.082 C 
ATOM     10  C   UNL     1      -3.581  -6.529  -0.304  0.00  0.00    -0.010 C 
ATOM     11  C   UNL     1      -3.752  -4.524   3.314  0.00  0.00    +0.247 C 
ATOM     12  O   UNL     1      -4.723  -3.826   3.092  0.00  0.00    -0.270 OA
ATOM     13  H   UNL     1      -4.807  -8.231  -1.865  0.00  0.00    -0.086 HD
ATOM     14  H   UNL     1      -6.319  -7.579  -1.883  0.00  0.00    -0.086 HD
ENDROOT
BRANCH  11  15
ATOM     15  C   UNL     1      -2.625  -3.989   4.103  0.00  0.00    +0.040 A 
ATOM     16  C   UNL     1      -1.433  -3.630   3.466  0.00  0.00    +0.036 A 
ATOM     17  C   UNL     1      -0.383  -3.131   4.206  0.00  0.00    +0.085 A 
ATOM     18  C   UNL     1      -0.507  -2.985   5.583  0.00  0.00    +0.157 A 
ATOM     19  C   UNL     1      -1.691  -3.341   6.219  0.00  0.00    +0.085 A 
ATOM     20  C   UNL     1      -2.748  -3.835   5.486  0.00  0.00    +0.036 A 
ATOM     21 CL   UNL     1      -1.840  -3.157   7.939  0.00  0.00    -0.080 Cl
ATOM     22 CL   UNL     1       1.098  -2.686   3.417  0.00  0.00    -0.080 Cl
BRANCH  18  23
ATOM     23  O   UNL     1       0.530  -2.494   6.308  0.00  0.00    -0.492 OA
ATOM     24  C   UNL     1       0.583  -1.078   6.489  0.00  0.00    +0.277 C 
ENDBRANCH  18  23
ENDBRANCH  11  15
BRANCH   1  26
ATOM     25  N   UNL     1      -0.679  -7.659   0.053  0.00  0.00    -0.312 N 
ATOM     26  C   UNL     1      -1.351  -6.919   0.957  0.00  0.00    +0.218 C 
ATOM     27  O   UNL     1      -1.036  -5.763   1.147  0.00  0.00    -0.275 OA
ATOM     28  H   UNL     1      -0.889  -8.600  -0.056  0.00  0.00    +0.149 HD
BRANCH  25  29
ATOM     29  C   UNL     1       0.368  -7.044  -0.766  0.00  0.00    +0.148 C 
BRANCH  29  31
ATOM     30  C   UNL     1       1.891  -7.386  -2.717  0.00  0.00    +0.053 C 
ATOM     31  C   UNL     1       0.885  -8.063  -1.783  0.00  0.00    +0.187 C 
BRANCH  31  32
ATOM     32  O   UNL     1       1.524  -9.140  -1.096  0.00  0.00    -0.488 OA
BRANCH  32  33
ATOM     33  C   UNL     1       1.572 -10.338  -1.736  0.00  0.00    +0.121 A 
ATOM     34  C   UNL     1       1.152 -10.439  -3.054  0.00  0.00    +0.045 A 
ATOM     35  C   UNL     1       1.202 -11.658  -3.702  0.00  0.00    +0.004 A 
ATOM     36  C   UNL     1       1.670 -12.777  -3.038  0.00  0.00    +0.000 A 
ATOM     37  C   UNL     1       2.089 -12.679  -1.724  0.00  0.00    +0.004 A 
ATOM     38  C   UNL     1       2.047 -11.461  -1.073  0.00  0.00    +0.045 A 
ENDBRANCH  32  33
ENDBRANCH  31  32
ENDBRANCH  29  31
ENDBRANCH  25  29
ENDBRANCH   1  26
TORSDOF 7
