REMARK  Name = ZINC64354659
REMARK  4 active torsions:
REMARK  status: ('A' for Active; 'I' for Inactive)
REMARK    1  A    between atoms: C_3  and  C_22
REMARK    2  A    between atoms: C_6  and  C_7
REMARK    3  A    between atoms: C_7  and  N_8
REMARK    4  A    between atoms: C_9  and  C_11
REMARK                            x       y       z     vdW  Elec       q    Type
REMARK                         _______ _______ _______ _____ _____    ______ ____
ROOT
ATOM      1  N   UNL     1      -1.729  -1.013  -1.367  0.00  0.00    -0.307 N 
ATOM      2  C   UNL     1      -2.871  -1.687  -1.606  0.00  0.00    +0.246 C 
ATOM      3  O   UNL     1      -3.542  -2.095  -0.677  0.00  0.00    -0.270 OA
ATOM      4  H   UNL     1      -1.194  -0.688  -2.108  0.00  0.00    +0.149 HD
ENDROOT
BRANCH   2   5
ATOM      5  C   UNL     1      -3.306  -1.929  -2.988  0.00  0.00    +0.062 A 
ATOM      6  C   UNL     1      -2.663  -1.542  -4.126  0.00  0.00    +0.096 A 
ATOM      7  N   UNL     1      -3.367  -1.944  -5.211  0.00  0.00    -0.360 N 
ATOM      8  H   UNL     1      -3.106  -1.784  -6.131  0.00  0.00    +0.165 HD
ATOM      9  C   UNL     1      -4.508  -2.615  -4.822  0.00  0.00    +0.049 A 
ATOM     10  C   UNL     1      -4.522  -2.644  -3.418  0.00  0.00    +0.012 A 
ATOM     11  C   UNL     1      -5.567  -3.269  -2.742  0.00  0.00    +0.012 A 
ATOM     12  C   UNL     1      -6.584  -3.863  -3.457  0.00  0.00    +0.021 A 
ATOM     13  C   UNL     1      -6.570  -3.840  -4.845  0.00  0.00    +0.043 A 
ATOM     14  C   UNL     1      -5.546  -3.216  -5.527  0.00  0.00    +0.046 A 
ATOM     15 CL   UNL     1      -7.859  -4.593  -5.731  0.00  0.00    -0.083 Cl
ENDBRANCH   2   5
BRANCH   1  16
ATOM     16  C   UNL     1      -1.295  -0.772   0.011  0.00  0.00    +0.139 C 
BRANCH  16  22
ATOM     17  C   UNL     1      -0.017   1.379   0.010  0.00  0.00    +0.006 A 
ATOM     18  C   UNL     1       1.167   2.088   0.002  0.00  0.00    +0.019 A 
ATOM     19  C   UNL     1       2.385   1.407  -0.013  0.00  0.00    +0.052 A 
ATOM     20  C   UNL     1       2.397   0.011  -0.021  0.00  0.00    +0.019 A 
ATOM     21  C   UNL     1       1.206  -0.686  -0.013  0.00  0.00    +0.006 A 
ATOM     22  C   UNL     1       0.002  -0.004   0.002  0.00  0.00    -0.030 A 
BRANCH  19  23
ATOM     23  C   UNL     1       3.617   2.136  -0.021  0.00  0.00    +0.099 C 
ATOM     24  N   UNL     1       4.595   2.715  -0.028  0.00  0.00    -0.191 NA
ENDBRANCH  19  23
ENDBRANCH  16  22
ENDBRANCH   1  16
TORSDOF 4
