REMARK  Name = ZINC64197453
REMARK  7 active torsions:
REMARK  status: ('A' for Active; 'I' for Inactive)
REMARK    1  A    between atoms: C_1  and  C_2
REMARK    2  A    between atoms: C_2  and  C_3
REMARK    3  A    between atoms: C_3  and  C_4
REMARK    4  A    between atoms: C_4  and  N_5
REMARK    5  A    between atoms: C_8  and  C_14
REMARK    6  A    between atoms: N_28  and  C_29
REMARK    7  A    between atoms: C_29  and  C_30
REMARK                            x       y       z     vdW  Elec       q    Type
REMARK                         _______ _______ _______ _____ _____    ______ ____
ROOT
ATOM      1  C   UNL     1       4.968  -3.421   3.477  0.00  0.00    -0.000 C 
ATOM      2  C   UNL     1       5.293  -4.544   2.490  0.00  0.00    +0.097 C 
ATOM      3  C   UNL     1       6.814  -4.608   2.405  0.00  0.00    -0.041 C 
ATOM      4  C   UNL     1       7.152  -5.864   2.661  0.00  0.00    -0.001 A 
ATOM      5  C   UNL     1       8.451  -6.556   2.639  0.00  0.00    +0.010 A 
ATOM      6  C   UNL     1       8.435  -7.872   2.977  0.00  0.00    +0.001 A 
ATOM      7  C   UNL     1       7.271  -8.562   3.329  0.00  0.00    +0.002 A 
ATOM      8  C   UNL     1       6.033  -8.007   3.369  0.00  0.00    +0.026 A 
ATOM      9  C   UNL     1       5.921  -6.628   3.029  0.00  0.00    +0.043 A 
ATOM     10  N   UNL     1       4.854  -5.857   2.960  0.00  0.00    -0.379 N 
ATOM     11  C   UNL     1       7.643  -3.368   2.172  0.00  0.00    +0.015 C 
ATOM     12  C   UNL     1       7.105  -2.305   3.147  0.00  0.00    -0.073 C 
ATOM     13  N   UNL     1       5.649  -2.197   3.028  0.00  0.00    +0.386 N 
ATOM     14  H   UNL     1       3.942  -6.104   3.182  0.00  0.00    +0.160 HD
ATOM     15  H   UNL     1       5.411  -2.024   2.063  0.00  0.00    -0.081 HD
ENDROOT
BRANCH   1  19
ATOM     16  N   UNL     1       1.471  -2.526   2.420  0.00  0.00    -0.261 N 
ATOM     17  C   UNL     1       2.803  -2.725   2.369  0.00  0.00    +0.262 A 
ATOM     18  O   UNL     1       3.418  -2.503   1.340  0.00  0.00    -0.267 OA
ATOM     19  C   UNL     1       3.479  -3.191   3.511  0.00  0.00    +0.070 A 
ATOM     20  C   UNL     1       2.768  -3.431   4.649  0.00  0.00    +0.259 A 
ATOM     21  N   UNL     1       1.414  -3.215   4.658  0.00  0.00    -0.275 N 
ATOM     22  C   UNL     1       0.788  -2.764   3.555  0.00  0.00    +0.332 A 
ATOM     23  O   UNL     1      -0.412  -2.574   3.582  0.00  0.00    -0.246 OA
ATOM     24  O   UNL     1       3.393  -3.879   5.759  0.00  0.00    -0.267 OA
ATOM     25  H   UNL     1       0.904  -3.385   5.465  0.00  0.00    +0.173 HD
BRANCH  16  26
ATOM     26  C   UNL     1       0.763  -2.041   1.233  0.00  0.00    +0.130 C 
BRANCH  26  27
ATOM     27  C   UNL     1       0.742  -0.511   1.242  0.00  0.00    +0.022 C 
BRANCH  27  29
ATOM     28  C   UNL     1      -0.019   1.526   0.010  0.00  0.00    +0.004 C 
ATOM     29  C   UNL     1       0.002  -0.004   0.002  0.00  0.00    -0.002 C 
ENDBRANCH  27  29
ENDBRANCH  26  27
ENDBRANCH  16  26
ENDBRANCH   1  19
BRANCH  13  30
ATOM     30  C   UNL     1       5.184  -1.066   3.843  0.00  0.00    -0.081 C 
ATOM     31  C   UNL     1       5.790   0.232   3.306  0.00  0.00    -0.017 C 
ENDBRANCH  13  30
TORSDOF 5
