REMARK  Name = ZINC38604885
REMARK  10 active torsions:
REMARK  status: ('A' for Active; 'I' for Inactive)
REMARK    1  A    between atoms: C_1  and  C_2
REMARK    2  A    between atoms: C_2  and  O_3
REMARK    3  A    between atoms: O_3  and  C_4
REMARK    4  A    between atoms: C_4  and  C_6
REMARK    5  A    between atoms: C_8  and  N_18
REMARK    6  A    between atoms: C_11  and  O_16
REMARK    7  A    between atoms: O_16  and  C_17
REMARK    8  A    between atoms: C_19  and  C_21
REMARK    9  A    between atoms: C_21  and  C_23
REMARK   10  A    between atoms: C_21  and  N_24
REMARK                            x       y       z     vdW  Elec       q    Type
REMARK                         _______ _______ _______ _____ _____    ______ ____
ROOT
ATOM      1  C   UNL     1       0.635  -3.803   4.217  0.00  0.00    +0.234 C 
ATOM      2  C   UNL     1       0.469  -2.378   3.736  0.00  0.00    +0.053 C 
ATOM      3  C   UNL     1       1.133  -2.312   2.524  0.00  0.00    +0.021 A 
ATOM      4  C   UNL     1       1.329  -1.256   1.600  0.00  0.00    +0.057 A 
ATOM      5  C   UNL     1       2.039  -1.480   0.463  0.00  0.00    +0.121 A 
ATOM      6  C   UNL     1       2.587  -2.739   0.177  0.00  0.00    +0.047 A 
ATOM      7  C   UNL     1       2.436  -3.791   1.017  0.00  0.00    +0.029 A 
ATOM      8  C   UNL     1       1.708  -3.634   2.225  0.00  0.00    +0.045 A 
ATOM      9  N   UNL     1       1.425  -4.489   3.189  0.00  0.00    -0.367 N 
ATOM     10  H   UNL     1       1.695  -5.420   3.215  0.00  0.00    +0.161 HD
ENDROOT
BRANCH   2  11
ATOM     11  N   UNL     1      -0.197  -1.369   4.367  0.00  0.00    -0.288 N 
ATOM     12  C   UNL     1      -0.911  -1.626   5.481  0.00  0.00    +0.203 C 
ATOM     13  O   UNL     1      -0.877  -2.729   5.982  0.00  0.00    -0.277 OA
ATOM     14  H   UNL     1      -0.157  -0.467   4.013  0.00  0.00    +0.155 HD
BRANCH  12  15
ATOM     15  C   UNL     1      -1.751  -0.541   6.104  0.00  0.00    +0.017 C 
ATOM     16  C   UNL     1      -0.855   0.634   6.501  0.00  0.00    -0.004 C 
BRANCH  15  17
ATOM     17  N   UNL     1      -2.425  -1.068   7.297  0.00  0.00    +0.390 N 
ATOM     18  C   UNL     1      -3.296  -2.190   6.915  0.00  0.00    -0.073 C 
ATOM     19  C   UNL     1      -3.744  -2.915   8.186  0.00  0.00    +0.017 C 
ATOM     20  C   UNL     1      -4.301  -1.919   9.171  0.00  0.00    -0.048 A 
ATOM     21  C   UNL     1      -5.068  -2.387  10.226  0.00  0.00    +0.004 A 
ATOM     22  C   UNL     1      -5.593  -1.505  11.150  0.00  0.00    +0.000 A 
ATOM     23  C   UNL     1      -5.352  -0.150  11.022  0.00  0.00    +0.000 A 
ATOM     24  C   UNL     1      -4.589   0.316   9.970  0.00  0.00    +0.002 A 
ATOM     25  C   UNL     1      -4.062  -0.568   9.040  0.00  0.00    -0.061 A 
ATOM     26  C   UNL     1      -3.243  -0.014   7.905  0.00  0.00    -0.042 C 
ATOM     27  H   UNL     1      -1.736  -1.385   7.962  0.00  0.00    -0.080 HD
ENDBRANCH  15  17
ENDBRANCH  12  15
ENDBRANCH   2  11
BRANCH   1  28
ATOM     28  C   UNL     1       1.367  -3.824   5.534  0.00  0.00    +0.336 C 
ATOM     29  O   UNL     1       2.559  -3.629   5.566  0.00  0.00    -0.248 OA
BRANCH  28  30
ATOM     30  O   UNL     1       0.695  -4.059   6.672  0.00  0.00    -0.463 OA
BRANCH  30  32
ATOM     31  C   UNL     1       0.523  -4.348   9.065  0.00  0.00    +0.048 C 
ATOM     32  C   UNL     1       1.453  -4.065   7.884  0.00  0.00    +0.229 C 
ENDBRANCH  30  32
ENDBRANCH  28  30
ENDBRANCH   1  28
BRANCH   5  33
ATOM     33  O   UNL     1       2.222  -0.461  -0.418  0.00  0.00    -0.495 OA
ATOM     34  C   UNL     1       2.975  -0.750  -1.598  0.00  0.00    +0.277 C 
ENDBRANCH   5  33
TORSDOF 7
