REMARK  Name = ZINC12873812
REMARK  11 active torsions:
REMARK  status: ('A' for Active; 'I' for Inactive)
REMARK    1  A    between atoms: C_1  and  C_2
REMARK    2  A    between atoms: C_2  and  C_3
REMARK    3  A    between atoms: C_2  and  C_4
REMARK    4  A    between atoms: C_4  and  C_6
REMARK    5  A    between atoms: C_4  and  N_20
REMARK    6  A    between atoms: N_8  and  C_9
REMARK    7  A    between atoms: C_9  and  C_11
REMARK    8  A    between atoms: C_9  and  C_12
REMARK    9  A    between atoms: C_12  and  C_13
REMARK   10  A    between atoms: C_13  and  C_14
REMARK   11  A    between atoms: C_23  and  C_39
REMARK                            x       y       z     vdW  Elec       q    Type
REMARK                         _______ _______ _______ _____ _____    ______ ____
ROOT
ATOM      1  N   UNL     1       3.899   2.356   2.508  0.00  0.00    -0.211 N 
ATOM      2  C   UNL     1       4.516   3.295   3.259  0.00  0.00    +0.253 C 
ATOM      3  O   UNL     1       4.853   4.407   2.912  0.00  0.00    -0.272 OA
ATOM      4  C   UNL     1       4.700   2.668   4.620  0.00  0.00    +0.153 C 
ATOM      5  C   UNL     1       6.152   2.655   5.034  0.00  0.00    +0.053 A 
ATOM      6  C   UNL     1       6.800   1.504   5.373  0.00  0.00    -0.015 A 
ATOM      7  C   UNL     1       8.157   1.889   5.716  0.00  0.00    +0.003 A 
ATOM      8  C   UNL     1       9.264   1.154   6.151  0.00  0.00    +0.010 A 
ATOM      9  C   UNL     1      10.421   1.856   6.385  0.00  0.00    +0.001 A 
ATOM     10  C   UNL     1      10.500   3.227   6.203  0.00  0.00    +0.002 A 
ATOM     11  C   UNL     1       9.419   3.979   5.775  0.00  0.00    +0.026 A 
ATOM     12  C   UNL     1       8.231   3.293   5.530  0.00  0.00    +0.047 A 
ATOM     13  N   UNL     1       7.002   3.711   5.110  0.00  0.00    -0.356 N 
ATOM     14  H   UNL     1       6.766   4.629   4.902  0.00  0.00    +0.166 HD
ATOM     15  C   UNL     1       6.216   0.115   5.391  0.00  0.00    +0.056 C 
ATOM     16  C   UNL     1       4.684   0.178   5.311  0.00  0.00    +0.115 C 
ATOM     17  N   UNL     1       4.332   1.252   4.380  0.00  0.00    -0.266 N 
ATOM     18  C   UNL     1       3.740   1.208   3.186  0.00  0.00    +0.313 C 
ATOM     19  O   UNL     1       3.132   0.244   2.761  0.00  0.00    -0.252 OA
ATOM     20  C   UNL     1       3.810   3.325   5.677  0.00  0.00    +0.048 C 
ENDROOT
BRANCH   1  21
ATOM     21  C   UNL     1       3.453   2.567   1.129  0.00  0.00    +0.174 C 
BRANCH  21  22
ATOM     22  C   UNL     1       1.949   2.488   1.069  0.00  0.00    +0.235 C 
ATOM     23  O   UNL     1       1.322   2.122   2.041  0.00  0.00    -0.274 OA
ATOM     24  N   UNL     1       1.301   2.823  -0.064  0.00  0.00    -0.311 N 
ATOM     25  H   UNL     1       1.797   3.167  -0.823  0.00  0.00    +0.149 HD
BRANCH  24  26
ATOM     26  C   UNL     1      -0.153   2.668  -0.148  0.00  0.00    +0.070 C 
ATOM     27  C   UNL     1      -0.491   1.232  -0.554  0.00  0.00    +0.028 C 
BRANCH  26  28
ATOM     28  C   UNL     1      -0.709   3.638  -1.194  0.00  0.00    +0.026 C 
BRANCH  28  29
ATOM     29  C   UNL     1      -0.482   5.077  -0.726  0.00  0.00    +0.037 C 
BRANCH  29  30
ATOM     30  C   UNL     1      -1.029   6.032  -1.756  0.00  0.00    -0.047 A 
ATOM     31  C   UNL     1      -0.217   6.486  -2.778  0.00  0.00    +0.003 A 
ATOM     32  C   UNL     1      -0.721   7.358  -3.725  0.00  0.00    +0.000 A 
ATOM     33  C   UNL     1      -2.033   7.784  -3.644  0.00  0.00    +0.000 A 
ATOM     34  C   UNL     1      -2.844   7.334  -2.619  0.00  0.00    +0.000 A 
ATOM     35  C   UNL     1      -2.342   6.458  -1.675  0.00  0.00    +0.003 A 
ENDBRANCH  29  30
ENDBRANCH  28  29
ENDBRANCH  26  28
ENDBRANCH  24  26
ENDBRANCH  21  22
BRANCH  21  37
ATOM     36  C   UNL     1       3.562   1.687  -1.207  0.00  0.00    +0.009 C 
ATOM     37  C   UNL     1       4.056   1.488   0.227  0.00  0.00    +0.013 C 
ATOM     38  C   UNL     1       5.582   1.591   0.260  0.00  0.00    +0.009 C 
ENDBRANCH  21  37
ENDBRANCH   1  21
TORSDOF 7
