REMARK  Name = ZINC12348170
REMARK  7 active torsions:
REMARK  status: ('A' for Active; 'I' for Inactive)
REMARK    1  A    between atoms: C_1  and  O_2
REMARK    2  A    between atoms: O_2  and  C_3
REMARK    3  A    between atoms: C_6  and  C_17
REMARK    4  A    between atoms: C_8  and  O_9
REMARK    5  A    between atoms: O_9  and  C_10
REMARK    6  A    between atoms: C_10  and  C_11
REMARK    7  A    between atoms: N_23  and  C_26
REMARK                            x       y       z     vdW  Elec       q    Type
REMARK                         _______ _______ _______ _____ _____    ______ ____
ROOT
ATOM      1  C   UNL     1       2.590  -2.548   4.315  0.00  0.00    +0.093 C 
ATOM      2  C   UNL     1       1.912  -2.164   5.601  0.00  0.00    +0.070 A 
ATOM      3  C   UNL     1       2.476  -1.291   6.498  0.00  0.00    +0.125 A 
ATOM      4  N   UNL     1       1.620  -1.148   7.546  0.00  0.00    -0.277 N 
ATOM      5  H   UNL     1       1.761  -0.588   8.325  0.00  0.00    +0.189 HD
ATOM      6  N   UNL     1       0.497  -1.954   7.299  0.00  0.00    -0.218 N 
ATOM      7  C   UNL     1       0.680  -2.573   6.112  0.00  0.00    +0.278 A 
ATOM      8  O   UNL     1      -0.095  -3.350   5.581  0.00  0.00    -0.265 OA
ATOM      9  N   UNL     1       3.706  -0.723   6.268  0.00  0.00    -0.303 N 
ATOM     10  C   UNL     1       4.510  -1.262   5.290  0.00  0.00    +0.017 C 
ATOM     11  C   UNL     1       4.039  -2.115   4.358  0.00  0.00    +0.024 C 
ATOM     12  C   UNL     1       4.890  -2.646   3.369  0.00  0.00    +0.162 C 
ATOM     13  O   UNL     1       4.439  -3.429   2.557  0.00  0.00    -0.292 OA
ATOM     14  C   UNL     1       6.342  -2.265   3.295  0.00  0.00    +0.080 C 
ATOM     15  C   UNL     1       6.516  -0.858   3.877  0.00  0.00    +0.014 C 
ATOM     16  C   UNL     1       5.967  -0.860   5.305  0.00  0.00    +0.051 C 
ATOM     17  H   UNL     1       4.002   0.043   6.785  0.00  0.00    +0.153 HD
ENDROOT
BRANCH   1  21
ATOM     18  C   UNL     1       0.626  -0.619   1.042  0.00  0.00    +0.162 A 
ATOM     19  C   UNL     1       1.202   0.137   2.051  0.00  0.00    +0.050 A 
ATOM     20  C   UNL     1       1.836  -0.490   3.108  0.00  0.00    +0.008 A 
ATOM     21  C   UNL     1       1.897  -1.870   3.161  0.00  0.00    -0.032 A 
ATOM     22  C   UNL     1       1.325  -2.630   2.158  0.00  0.00    +0.054 A 
ATOM     23  C   UNL     1       0.683  -2.008   1.099  0.00  0.00    +0.163 A 
BRANCH  18  25
ATOM     24  C   UNL     1      -0.017   1.425   0.010  0.00  0.00    +0.277 C 
ATOM     25  O   UNL     1       0.002  -0.004   0.002  0.00  0.00    -0.491 OA
ENDBRANCH  18  25
BRANCH  23  26
ATOM     26  O   UNL     1       0.115  -2.754   0.114  0.00  0.00    -0.484 OA
BRANCH  26  27
ATOM     27  C   UNL     1       0.211  -4.174   0.238  0.00  0.00    +0.264 C 
BRANCH  27  28
ATOM     28  C   UNL     1      -0.470  -4.829  -0.936  0.00  0.00    -0.010 A 
ATOM     29  C   UNL     1      -1.815  -5.141  -0.868  0.00  0.00    +0.007 A 
ATOM     30  C   UNL     1      -2.440  -5.741  -1.945  0.00  0.00    +0.000 A 
ATOM     31  C   UNL     1      -1.721  -6.029  -3.090  0.00  0.00    +0.000 A 
ATOM     32  C   UNL     1      -0.376  -5.716  -3.158  0.00  0.00    +0.000 A 
ATOM     33  C   UNL     1       0.248  -5.112  -2.083  0.00  0.00    +0.007 A 
ENDBRANCH  27  28
ENDBRANCH  26  27
ENDBRANCH  23  26
ENDBRANCH   1  21
BRANCH   6  34
ATOM     34  C   UNL     1      -0.615  -2.093   8.135  0.00  0.00    +0.067 A 
ATOM     35  C   UNL     1      -1.659  -2.933   7.771  0.00  0.00    +0.028 A 
ATOM     36  C   UNL     1      -2.756  -3.068   8.599  0.00  0.00    +0.002 A 
ATOM     37  C   UNL     1      -2.815  -2.367   9.790  0.00  0.00    +0.000 A 
ATOM     38  C   UNL     1      -1.778  -1.529  10.155  0.00  0.00    +0.002 A 
ATOM     39  C   UNL     1      -0.675  -1.395   9.335  0.00  0.00    +0.028 A 
ENDBRANCH   6  34
TORSDOF 6
