REMARK  Name = ZINC04178081
REMARK  10 active torsions:
REMARK  status: ('A' for Active; 'I' for Inactive)
REMARK    1  A    between atoms: C_2  and  N_24
REMARK    2  A    between atoms: C_5  and  O_7
REMARK    3  A    between atoms: O_7  and  C_8
REMARK    4  A    between atoms: C_11  and  N_14
REMARK    5  A    between atoms: C_15  and  C_16
REMARK    6  A    between atoms: C_17  and  O_23
REMARK    7  A    between atoms: C_19  and  O_22
REMARK    8  A    between atoms: C_25  and  C_26
REMARK    9  A    between atoms: C_27  and  O_33
REMARK   10  A    between atoms: C_29  and  O_32
REMARK                            x       y       z     vdW  Elec       q    Type
REMARK                         _______ _______ _______ _____ _____    ______ ____
ROOT
ATOM      1  O   UNL     1       1.227  -2.043  -0.021  0.00  0.00    -0.456 OA
ENDROOT
BRANCH   1   6
ATOM      2  C   UNL     1       1.542   1.415  -1.101  0.00  0.00    +0.031 A 
ATOM      3  C   UNL     1       1.192   2.086   0.073  0.00  0.00    +0.064 A 
ATOM      4  C   UNL     1       0.854   1.357   1.216  0.00  0.00    +0.031 A 
ATOM      5  C   UNL     1       0.867  -0.021   1.180  0.00  0.00    +0.048 A 
ATOM      6  C   UNL     1       1.215  -0.684   0.010  0.00  0.00    +0.129 A 
ATOM      7  C   UNL     1       1.552   0.037  -1.128  0.00  0.00    +0.048 A 
BRANCH   3   8
ATOM      8  N   UNL     1       1.181   3.454   0.104  0.00  0.00    -0.255 NA
ATOM      9  C   UNL     1       0.182   4.086   0.657  0.00  0.00    +0.123 C 
BRANCH   9  10
ATOM     10  C   UNL     1       0.171   5.554   0.691  0.00  0.00    +0.035 A 
ATOM     11  C   UNL     1       1.230   6.282   0.123  0.00  0.00    +0.129 A 
ATOM     12  C   UNL     1       1.210   7.664   0.159  0.00  0.00    +0.091 A 
ATOM     13  C   UNL     1       0.147   8.329   0.754  0.00  0.00    +0.120 A 
ATOM     14  C   UNL     1      -0.903   7.611   1.317  0.00  0.00    +0.046 A 
ATOM     15  C   UNL     1      -0.899   6.235   1.283  0.00  0.00    +0.016 A 
BRANCH  13  16
ATOM     16  O   UNL     1       0.132   9.686   0.787  0.00  0.00    -0.507 OA
ATOM     17  H   UNL     1      -0.297  10.094   0.022  0.00  0.00    +0.292 HD
ENDBRANCH  13  16
BRANCH  11  18
ATOM     18  O   UNL     1       2.269   5.630  -0.459  0.00  0.00    -0.506 OA
ATOM     19  H   UNL     1       2.145   5.455  -1.402  0.00  0.00    +0.292 HD
ENDBRANCH  11  18
ENDBRANCH   9  10
ENDBRANCH   3   8
ENDBRANCH   1   6
BRANCH   1  20
ATOM     20  C   UNL     1       0.040  -2.693   0.092  0.00  0.00    +0.129 A 
ATOM     21  C   UNL     1       0.016  -4.078   0.199  0.00  0.00    +0.048 A 
ATOM     22  C   UNL     1      -1.187  -4.742   0.313  0.00  0.00    +0.031 A 
ATOM     23  C   UNL     1      -2.383  -4.021   0.321  0.00  0.00    +0.064 A 
ATOM     24  C   UNL     1      -2.354  -2.628   0.213  0.00  0.00    +0.031 A 
ATOM     25  C   UNL     1      -1.147  -1.972   0.105  0.00  0.00    +0.048 A 
BRANCH  23  26
ATOM     26  N   UNL     1      -3.579  -4.676   0.433  0.00  0.00    -0.255 NA
ATOM     27  C   UNL     1      -4.493  -4.229   1.249  0.00  0.00    +0.123 C 
BRANCH  27  28
ATOM     28  C   UNL     1      -5.777  -4.933   1.370  0.00  0.00    +0.035 A 
ATOM     29  C   UNL     1      -6.021  -6.090   0.612  0.00  0.00    +0.129 A 
ATOM     30  C   UNL     1      -7.233  -6.746   0.732  0.00  0.00    +0.091 A 
ATOM     31  C   UNL     1      -8.203  -6.261   1.598  0.00  0.00    +0.120 A 
ATOM     32  C   UNL     1      -7.964  -5.115   2.349  0.00  0.00    +0.046 A 
ATOM     33  C   UNL     1      -6.760  -4.456   2.244  0.00  0.00    +0.016 A 
BRANCH  31  34
ATOM     34  O   UNL     1      -9.391  -6.909   1.712  0.00  0.00    -0.507 OA
ATOM     35  H   UNL     1      -9.402  -7.592   2.396  0.00  0.00    +0.292 HD
ENDBRANCH  31  34
BRANCH  29  36
ATOM     36  O   UNL     1      -5.072  -6.563  -0.235  0.00  0.00    -0.506 OA
ATOM     37  H   UNL     1      -4.463  -7.196   0.170  0.00  0.00    +0.292 HD
ENDBRANCH  29  36
ENDBRANCH  27  28
ENDBRANCH  23  26
ENDBRANCH   1  20
TORSDOF 10
