REMARK  Name = ZINC09010281
REMARK  6 active torsions:
REMARK  status: ('A' for Active; 'I' for Inactive)
REMARK    1  A    between atoms: C_5  and  C_7
REMARK    2  A    between atoms: N_9  and  C_10
REMARK    3  A    between atoms: C_10  and  N_12
REMARK    4  A    between atoms: N_12  and  C_13
REMARK    5  A    between atoms: C_16  and  S_19
REMARK    6  A    between atoms: S_19  and  N_22
REMARK                            x       y       z     vdW  Elec       q    Type
REMARK                         _______ _______ _______ _____ _____    ______ ____
ROOT
ATOM      1  C   UNL     1      -1.561   1.087  -0.025  0.00  0.00    +0.033 A 
ATOM      2  C   UNL     1      -1.598  -0.293  -0.176  0.00  0.00    +0.025 A 
ATOM      3  C   UNL     1      -2.769  -0.982   0.072  0.00  0.00    +0.031 A 
ATOM      4  C   UNL     1      -3.907  -0.298   0.458  0.00  0.00    +0.111 A 
ATOM      5  C   UNL     1      -3.875   1.077   0.604  0.00  0.00    +0.031 A 
ATOM      6  C   UNL     1      -2.705   1.771   0.363  0.00  0.00    +0.025 A 
ENDROOT
BRANCH   4   7
ATOM      7  S   UNL     1      -5.401  -1.180   0.765  0.00  0.00    +0.080 S 
ATOM      8  O   UNL     1      -5.027  -2.512   1.088  0.00  0.00    -0.148 OA
ATOM      9  O   UNL     1      -6.176  -0.372   1.641  0.00  0.00    -0.148 OA
BRANCH   7  10
ATOM     10  N   UNL     1      -6.229  -1.254  -0.667  0.00  0.00    -0.228 N 
ATOM     11  C   UNL     1      -5.706  -1.955  -1.728  0.00  0.00    +0.186 C 
ATOM     12  N   UNL     1      -6.394  -2.017  -2.917  0.00  0.00    -0.370 N 
ATOM     13  H   UNL     1      -7.083  -0.803  -0.757  0.00  0.00    +0.191 HD
ATOM     14  H   UNL     1      -4.107  -3.081  -2.297  0.00  0.00    +0.159 HD
ATOM     15  H   UNL     1      -7.248  -1.566  -3.007  0.00  0.00    +0.159 HD
ATOM     16  H   UNL     1      -6.025  -2.512  -3.665  0.00  0.00    +0.159 HD
ATOM     17  N   UNL     1      -4.537  -2.549  -1.540  0.00  0.00    -0.370 N 
ATOM     18  H   UNL     1      -4.062  -2.473  -0.633  0.00  0.00    +0.159 HD
ENDBRANCH   7  10
ENDBRANCH   4   7
BRANCH   1  19
ATOM     19  N   UNL     1      -0.375   1.787  -0.270  0.00  0.00    -0.297 N 
ATOM     20  H   UNL     1       0.152   1.589  -1.060  0.00  0.00    +0.154 HD
BRANCH  19  21
ATOM     21  C   UNL     1       0.036   2.738   0.593  0.00  0.00    +0.141 C 
ATOM     22  S   UNL     1      -0.946   3.165   1.928  0.00  0.00    -0.018 S 
BRANCH  21  25
ATOM     23  C   UNL     1       1.637   4.296   1.271  0.00  0.00    +0.251 C 
ATOM     24  O   UNL     1       0.940   4.599   2.220  0.00  0.00    -0.270 OA
ATOM     25  N   UNL     1       1.223   3.349   0.406  0.00  0.00    -0.264 N 
ATOM     26  H   UNL     1       1.780   3.107  -0.351  0.00  0.00    +0.157 HD
BRANCH  23  31
ATOM     27  C   UNL     1       4.955   5.249  -0.206  0.00  0.00    +0.001 A 
ATOM     28  C   UNL     1       5.377   6.221   0.684  0.00  0.00    +0.001 A 
ATOM     29  C   UNL     1       4.586   6.569   1.764  0.00  0.00    +0.015 A 
ATOM     30  C   UNL     1       3.369   5.948   1.962  0.00  0.00    +0.025 A 
ATOM     31  C   UNL     1       2.938   4.966   1.067  0.00  0.00    +0.050 A 
ATOM     32  C   UNL     1       3.744   4.616  -0.018  0.00  0.00    +0.014 A 
ATOM     33  I   UNL     1       2.174   6.476   3.599  0.00  0.00    -0.043 I 
ENDBRANCH  23  31
ENDBRANCH  21  25
ENDBRANCH  19  21
ENDBRANCH   1  19
TORSDOF 6
