REMARK  Name = ZINC06195175
REMARK  3 active torsions:
REMARK  status: ('A' for Active; 'I' for Inactive)
REMARK    1  A    between atoms: C_1  and  C_2
REMARK    2  A    between atoms: C_5  and  N_9
REMARK    3  A    between atoms: C_13  and  N_20
REMARK                            x       y       z     vdW  Elec       q    Type
REMARK                         _______ _______ _______ _____ _____    ______ ____
ROOT
ATOM      1  N   UNL     1       4.243   3.079  -0.020  0.00  0.00    -0.241 NA
ATOM      2  C   UNL     1       3.805   1.867  -0.263  0.00  0.00    +0.135 C 
ATOM      3  C   UNL     1       2.412   1.449  -0.534  0.00  0.00    +0.029 A 
ATOM      4  C   UNL     1       1.209   2.143  -0.613  0.00  0.00    +0.044 A 
ATOM      5  C   UNL     1       0.041   1.460  -0.888  0.00  0.00    +0.127 A 
ATOM      6  C   UNL     1       0.069   0.089  -1.084  0.00  0.00    +0.034 A 
ATOM      7  C   UNL     1       1.258  -0.608  -1.008  0.00  0.00    +0.026 A 
ATOM      8  C   UNL     1       2.445   0.062  -0.732  0.00  0.00    +0.043 A 
ATOM      9  N   UNL     1       3.753  -0.394  -0.601  0.00  0.00    -0.280 N 
ATOM     10  C   UNL     1       4.599   0.614  -0.326  0.00  0.00    +0.267 C 
ATOM     11  O   UNL     1       5.799   0.516  -0.159  0.00  0.00    -0.268 OA
ATOM     12  H   UNL     1       3.977  -1.464  -0.724  0.00  0.00    +0.155 HD
ENDROOT
BRANCH   1  17
ATOM     13  C   UNL     1       9.784   4.047   0.365  0.00  0.00    +0.044 C 
ATOM     14  C   UNL     1       8.303   3.789   0.263  0.00  0.00    -0.049 A 
ATOM     15  C   UNL     1       7.791   3.148  -0.853  0.00  0.00    +0.005 A 
ATOM     16  C   UNL     1       6.439   2.903  -0.954  0.00  0.00    +0.029 A 
ATOM     17  C   UNL     1       5.579   3.312   0.073  0.00  0.00    +0.079 A 
ATOM     18  C   UNL     1       6.104   3.960   1.200  0.00  0.00    +0.043 A 
ATOM     19  C   UNL     1       7.462   4.193   1.285  0.00  0.00    +0.020 A 
ATOM     20 BR   UNL     1       4.957   4.512   2.598  0.00  0.00    -0.048 Br
ENDBRANCH   1  17
BRANCH   5  21
ATOM     21  N   UNL     1      -1.241   2.194  -0.979  0.00  0.00    +0.056 N 
ATOM     22  O   UNL     1      -2.271   1.592  -1.227  0.00  0.00    -0.126 OA
ATOM     23  O   UNL     1      -1.266   3.399  -0.807  0.00  0.00    -0.126 OA
ENDBRANCH   5  21
TORSDOF 2
