REMARK  Name = ZINC00974498
REMARK  6 active torsions:
REMARK  status: ('A' for Active; 'I' for Inactive)
REMARK    1  A    between atoms: C_1  and  C_2
REMARK    2  A    between atoms: C_7  and  O_9
REMARK    3  A    between atoms: O_9  and  C_10
REMARK    4  A    between atoms: C_10  and  C_12
REMARK    5  A    between atoms: C_13  and  C_26
REMARK    6  A    between atoms: C_18  and  C_20
REMARK                            x       y       z     vdW  Elec       q    Type
REMARK                         _______ _______ _______ _____ _____    ______ ____
ROOT
ATOM      1  C   UNL     1      -0.949   1.622  -1.780  0.00  0.00    +0.078 C 
ATOM      2  C   UNL     1      -0.235   2.071  -2.835  0.00  0.00    +0.021 C 
ATOM      3  N   UNL     1       1.129   2.018  -2.836  0.00  0.00    -0.273 N 
ATOM      4  C   UNL     1       1.855   1.532  -1.821  0.00  0.00    +0.304 C 
ATOM      5  O   UNL     1       3.067   1.528  -1.914  0.00  0.00    -0.252 OA
ATOM      6  N   UNL     1       1.285   1.048  -0.700  0.00  0.00    -0.288 N 
ATOM      7  C   UNL     1      -0.184   1.059  -0.599  0.00  0.00    +0.143 C 
ATOM      8  C   UNL     1      -0.957   2.639  -4.030  0.00  0.00    +0.061 C 
ATOM      9  H   UNL     1       1.599   2.353  -3.616  0.00  0.00    +0.156 HD
ATOM     10  H   UNL     1       1.830   0.700   0.023  0.00  0.00    +0.151 HD
ENDROOT
BRANCH   7  11
ATOM     11  C   UNL     1      -0.645  -0.359  -0.380  0.00  0.00    -0.023 A 
ATOM     12  C   UNL     1      -0.166  -1.374  -1.187  0.00  0.00    +0.006 A 
ATOM     13  C   UNL     1      -0.585  -2.675  -0.983  0.00  0.00    +0.000 A 
ATOM     14  C   UNL     1      -1.492  -2.960   0.021  0.00  0.00    +0.000 A 
ATOM     15  C   UNL     1      -1.975  -1.944   0.825  0.00  0.00    +0.000 A 
ATOM     16  C   UNL     1      -1.552  -0.644   0.624  0.00  0.00    +0.006 A 
ENDBRANCH   7  11
BRANCH   1  17
ATOM     17  C   UNL     1      -2.362   1.675  -1.777  0.00  0.00    +0.339 C 
ATOM     18  O   UNL     1      -2.983   1.312  -0.795  0.00  0.00    -0.245 OA
BRANCH  17  19
ATOM     19  O   UNL     1      -3.023   2.127  -2.863  0.00  0.00    -0.458 OA
BRANCH  19  25
ATOM     20  C   UNL     1      -3.954   4.099  -4.193  0.00  0.00    +0.011 C 
ATOM     21  C   UNL     1      -5.062   3.209  -3.629  0.00  0.00    +0.027 C 
ATOM     22  C   UNL     1      -5.875   2.583  -4.782  0.00  0.00    +0.007 C 
ATOM     23  C   UNL     1      -6.206   1.155  -4.282  0.00  0.00    +0.004 C 
ATOM     24  C   UNL     1      -4.910   0.744  -3.539  0.00  0.00    +0.045 C 
ATOM     25  C   UNL     1      -4.449   2.039  -2.839  0.00  0.00    +0.180 C 
ENDBRANCH  19  25
ENDBRANCH  17  19
ENDBRANCH   1  17
TORSDOF 4
