REMARK  Name = ZINC00647015
REMARK  7 active torsions:
REMARK  status: ('A' for Active; 'I' for Inactive)
REMARK    1  A    between atoms: C_1  and  C_2
REMARK    2  A    between atoms: C_2  and  C_3
REMARK    3  A    between atoms: C_2  and  C_4
REMARK    4  A    between atoms: C_2  and  N_5
REMARK    5  A    between atoms: C_6  and  C_8
REMARK    6  A    between atoms: C_13  and  C_25
REMARK    7  A    between atoms: C_16  and  C_19
REMARK                            x       y       z     vdW  Elec       q    Type
REMARK                         _______ _______ _______ _____ _____    ______ ____
ROOT
ATOM      1  C   UNL     1       2.663  -0.609  -2.642  0.00  0.00    +0.167 A 
ATOM      2  C   UNL     1       4.002  -0.330  -2.997  0.00  0.00    +0.112 A 
ATOM      3  C   UNL     1       4.248  -0.945  -4.172  0.00  0.00    +0.137 A 
ATOM      4  N   UNL     1       3.111  -1.596  -4.557  0.00  0.00    -0.237 N 
ATOM      5  N   UNL     1       2.138  -1.374  -3.583  0.00  0.00    -0.163 NA
ATOM      6  C   UNL     1       3.002  -2.382  -5.790  0.00  0.00    +0.215 C 
ATOM      7  C   UNL     1       4.411  -2.745  -6.272  0.00  0.00    +0.063 C 
ATOM      8  C   UNL     1       5.290  -1.490  -6.309  0.00  0.00    +0.104 C 
ATOM      9  N   UNL     1       5.421  -0.968  -4.934  0.00  0.00    -0.321 N 
ATOM     10 CL   UNL     1       5.126   0.630  -2.087  0.00  0.00    -0.078 Cl
ATOM     11  H   UNL     1       6.270  -0.660  -4.580  0.00  0.00    +0.148 HD
ENDROOT
BRANCH   8  12
ATOM     12  C   UNL     1       4.649  -0.449  -7.190  0.00  0.00    -0.027 A 
ATOM     13  C   UNL     1       3.622   0.335  -6.699  0.00  0.00    +0.005 A 
ATOM     14  C   UNL     1       3.034   1.290  -7.508  0.00  0.00    +0.000 A 
ATOM     15  C   UNL     1       3.473   1.461  -8.807  0.00  0.00    +0.000 A 
ATOM     16  C   UNL     1       4.501   0.678  -9.298  0.00  0.00    +0.000 A 
ATOM     17  C   UNL     1       5.092  -0.274  -8.488  0.00  0.00    +0.005 A 
ENDBRANCH   8  12
BRANCH   1  19
ATOM     18  N   UNL     1       0.688  -0.476  -1.203  0.00  0.00    -0.305 N 
ATOM     19  C   UNL     1       1.972  -0.132  -1.427  0.00  0.00    +0.266 C 
ATOM     20  O   UNL     1       2.560   0.570  -0.628  0.00  0.00    -0.268 OA
ATOM     21  H   UNL     1       0.218  -1.037  -1.840  0.00  0.00    +0.150 HD
BRANCH  18  23
ATOM     22  C   UNL     1      -0.019   1.526   0.010  0.00  0.00    +0.031 C 
ATOM     23  C   UNL     1       0.002  -0.004   0.002  0.00  0.00    +0.027 C 
ATOM     24  C   UNL     1       0.742  -0.511   1.242  0.00  0.00    +0.031 C 
ATOM     25  C   UNL     1      -1.433  -0.534   0.013  0.00  0.00    +0.031 C 
ENDBRANCH  18  23
ENDBRANCH   1  19
BRANCH   6  26
ATOM     26  C   UNL     1       2.208  -3.661  -5.514  0.00  0.00    +0.412 C 
ATOM     27  F   UNL     1       0.927  -3.325  -5.062  0.00  0.00    -0.168 F 
ATOM     28  F   UNL     1       2.106  -4.409  -6.691  0.00  0.00    -0.168 F 
ATOM     29  F   UNL     1       2.864  -4.416  -4.536  0.00  0.00    -0.168 F 
ENDBRANCH   6  26
TORSDOF 4
