REMARK  Name = ZINC06832297
REMARK  20 active torsions:
REMARK  status: ('A' for Active; 'I' for Inactive)
REMARK    1  A    between atoms: C_1  and  C_2
REMARK    2  A    between atoms: C_2  and  C_3
REMARK    3  A    between atoms: C_2  and  C_4
REMARK    4  A    between atoms: C_2  and  N_65
REMARK    5  A    between atoms: C_5  and  C_6
REMARK    6  A    between atoms: C_5  and  N_65
REMARK    7  A    between atoms: C_6  and  C_8
REMARK    8  A    between atoms: C_6  and  O_30
REMARK    9  A    between atoms: C_8  and  O_9
REMARK   10  A    between atoms: O_9  and  C_10
REMARK   11  A    between atoms: C_19  and  O_20
REMARK   12  A    between atoms: O_20  and  C_21
REMARK   13  A    between atoms: C_21  and  C_22
REMARK   14  A    between atoms: C_22  and  C_24
REMARK   15  A    between atoms: C_22  and  O_29
REMARK   16  A    between atoms: C_24  and  N_68
REMARK   17  A    between atoms: C_25  and  C_26
REMARK   18  A    between atoms: C_25  and  C_27
REMARK   19  A    between atoms: C_25  and  C_28
REMARK   20  A    between atoms: C_25  and  N_68
REMARK                            x       y       z     vdW  Elec       q    Type
REMARK                         _______ _______ _______ _____ _____    ______ ____
ROOT
ATOM      1  C   UNL     1      -0.196   1.056   4.875  0.00  0.00    +0.163 A 
ATOM      2  C   UNL     1       0.976   0.359   4.906  0.00  0.00    +0.058 A 
ATOM      3  C   UNL     1       1.523  -0.028   6.141  0.00  0.00    -0.014 A 
ATOM      4  C   UNL     1       2.732  -0.742   6.210  0.00  0.00    +0.008 A 
ATOM      5  C   UNL     1       3.231  -1.106   7.423  0.00  0.00    +0.001 A 
ATOM      6  C   UNL     1       2.562  -0.782   8.601  0.00  0.00    +0.001 A 
ATOM      7  C   UNL     1       1.389  -0.091   8.574  0.00  0.00    +0.008 A 
ATOM      8  C   UNL     1       0.842   0.303   7.340  0.00  0.00    -0.014 A 
ATOM      9  C   UNL     1      -0.366   1.017   7.275  0.00  0.00    +0.058 A 
ATOM     10  C   UNL     1      -0.870   1.383   6.061  0.00  0.00    +0.163 A 
ENDROOT
BRANCH   1  11
ATOM     11  O   UNL     1      -0.721   1.434   3.679  0.00  0.00    -0.486 OA
BRANCH  11  12
ATOM     12  C   UNL     1       0.011   1.072   2.506  0.00  0.00    +0.258 C 
BRANCH  12  13
ATOM     13  C   UNL     1      -0.729   1.579   1.267  0.00  0.00    +0.135 C 
BRANCH  13  14
ATOM     14  O   UNL     1      -0.748   3.008   1.275  0.00  0.00    -0.390 OA
ATOM     15  H   UNL     1       0.130   3.413   1.268  0.00  0.00    +0.210 HD
ENDBRANCH  13  14
BRANCH  13  16
ATOM     16  C   UNL     1      -0.013   1.086   0.008  0.00  0.00    -0.047 C 
BRANCH  16  17
ATOM     17  N   UNL     1      -0.732   1.579  -1.182  0.00  0.00    +0.384 N 
ATOM     18  H   UNL     1      -1.695   1.223  -1.167  0.00  0.00    -0.085 HD
ATOM     19  H   UNL     1      -0.746   2.605  -1.168  0.00  0.00    -0.085 HD
BRANCH  17  21
ATOM     20  C   UNL     1      -0.042  -0.412  -2.445  0.00  0.00    -0.011 C 
ATOM     21  C   UNL     1      -0.062   1.117  -2.413  0.00  0.00    -0.077 C 
ATOM     22  C   UNL     1      -0.829   1.643  -3.628  0.00  0.00    -0.011 C 
ATOM     23  C   UNL     1       1.373   1.647  -2.447  0.00  0.00    -0.011 C 
ENDBRANCH  17  21
ENDBRANCH  16  17
ENDBRANCH  13  16
ENDBRANCH  12  13
ENDBRANCH  11  12
ENDBRANCH   1  11
BRANCH  10  24
ATOM     24  O   UNL     1      -2.039   2.074   6.000  0.00  0.00    -0.486 OA
BRANCH  24  25
ATOM     25  C   UNL     1      -2.679   2.377   7.242  0.00  0.00    +0.258 C 
BRANCH  25  26
ATOM     26  C   UNL     1      -3.970   3.152   6.974  0.00  0.00    +0.135 C 
BRANCH  26  27
ATOM     27  O   UNL     1      -4.890   2.316   6.270  0.00  0.00    -0.390 OA
ATOM     28  H   UNL     1      -5.134   1.511   6.746  0.00  0.00    +0.210 HD
ENDBRANCH  26  27
BRANCH  26  29
ATOM     29  C   UNL     1      -4.590   3.585   8.304  0.00  0.00    -0.047 C 
BRANCH  29  30
ATOM     30  N   UNL     1      -5.835   4.331   8.037  0.00  0.00    +0.384 N 
ATOM     31  H   UNL     1      -6.489   3.727   7.528  0.00  0.00    -0.085 HD
ATOM     32  H   UNL     1      -5.618   5.158   7.468  0.00  0.00    -0.085 HD
BRANCH  30  33
ATOM     33  C   UNL     1      -6.455   4.762   9.305  0.00  0.00    -0.077 C 
ATOM     34  C   UNL     1      -5.488   5.669  10.069  0.00  0.00    -0.011 C 
ATOM     35  C   UNL     1      -7.741   5.532   8.997  0.00  0.00    -0.011 C 
ATOM     36  C   UNL     1      -6.787   3.536  10.158  0.00  0.00    -0.011 C 
ENDBRANCH  30  33
ENDBRANCH  29  30
ENDBRANCH  26  29
ENDBRANCH  25  26
ENDBRANCH  24  25
ENDBRANCH  10  24
TORSDOF 14
