REMARK  Name = ZINC20157465
REMARK  8 active torsions:
REMARK  status: ('A' for Active; 'I' for Inactive)
REMARK    1  A    between atoms: C_1  and  C_2
REMARK    2  A    between atoms: C_2  and  C_25
REMARK    3  A    between atoms: N_3  and  N_4
REMARK    4  A    between atoms: C_7  and  S_10
REMARK    5  A    between atoms: S_10  and  C_11
REMARK    6  A    between atoms: C_11  and  C_12
REMARK    7  A    between atoms: N_14  and  C_15
REMARK    8  A    between atoms: C_16  and  C_23
REMARK                            x       y       z     vdW  Elec       q    Type
REMARK                         _______ _______ _______ _____ _____    ______ ____
ROOT
ATOM      1  N   UNL     1      -2.721   1.367   1.058  0.00  0.00    -0.205 N 
ATOM      2  C   UNL     1      -1.662   1.836   1.821  0.00  0.00    +0.232 A 
ATOM      3  N   UNL     1      -0.671   1.074   2.375  0.00  0.00    -0.186 NA
ATOM      4  C   UNL     1       0.180   1.908   3.043  0.00  0.00    +0.211 A 
ATOM      5  N   UNL     1      -0.268   3.134   2.912  0.00  0.00    -0.144 NA
ATOM      6  N   UNL     1      -1.437   3.087   2.140  0.00  0.00    -0.245 N 
ATOM      7  H   UNL     1      -2.816   0.290   0.852  0.00  0.00    +0.177 HD
ATOM      8  H   UNL     1      -2.125   3.875   1.798  0.00  0.00    +0.192 HD
ENDROOT
BRANCH   1  11
ATOM      9  C   UNL     1      -5.646   2.774  -0.773  0.00  0.00    +0.068 C 
ATOM     10  C   UNL     1      -4.723   1.816  -0.065  0.00  0.00    +0.063 C 
ATOM     11  N   UNL     1      -3.670   2.264   0.550  0.00  0.00    -0.184 NA
BRANCH  10  12
ATOM     12  C   UNL     1      -5.014   0.371  -0.071  0.00  0.00    -0.003 A 
ATOM     13  C   UNL     1      -5.569  -0.228  -1.205  0.00  0.00    +0.010 A 
ATOM     14  C   UNL     1      -5.834  -1.582  -1.205  0.00  0.00    +0.001 A 
ATOM     15  C   UNL     1      -5.563  -2.344  -0.083  0.00  0.00    +0.000 A 
ATOM     16  C   UNL     1      -5.019  -1.756   1.046  0.00  0.00    +0.001 A 
ATOM     17  C   UNL     1      -4.743  -0.404   1.059  0.00  0.00    +0.010 A 
ENDBRANCH  10  12
ENDBRANCH   1  11
BRANCH   4  18
ATOM     18  S   UNL     1       1.625   1.423   3.926  0.00  0.00    -0.075 S 
BRANCH  18  19
ATOM     19  C   UNL     1       2.292   2.983   4.568  0.00  0.00    +0.173 C 
BRANCH  19  20
ATOM     20  C   UNL     1       3.547   2.707   5.354  0.00  0.00    +0.228 C 
ATOM     21  O   UNL     1       3.953   1.570   5.470  0.00  0.00    -0.275 OA
ATOM     22  N   UNL     1       4.220   3.724   5.929  0.00  0.00    -0.278 N 
ATOM     23  H   UNL     1       3.852   4.756   5.824  0.00  0.00    +0.155 HD
BRANCH  22  24
ATOM     24  C   UNL     1       5.376   3.470   6.654  0.00  0.00    +0.090 A 
ATOM     25  C   UNL     1       6.198   4.372   7.304  0.00  0.00    +0.084 A 
ATOM     26  C   UNL     1       7.366   3.841   8.006  0.00  0.00    -0.018 A 
ATOM     27  C   UNL     1       7.519   2.506   7.931  0.00  0.00    -0.004 A 
ATOM     28  S   UNL     1       6.144   1.948   6.955  0.00  0.00    -0.077 S 
ATOM     29  C   UNL     1       8.741   2.036   8.672  0.00  0.00    +0.043 C 
ATOM     30  C   UNL     1       9.112   3.215   9.598  0.00  0.00    +0.010 C 
ATOM     31  C   UNL     1       8.517   4.415   8.834  0.00  0.00    +0.037 C 
BRANCH  25  32
ATOM     32  C   UNL     1       5.914   5.776   7.295  0.00  0.00    +0.102 C 
ATOM     33  N   UNL     1       5.688   6.889   7.287  0.00  0.00    -0.191 NA
ENDBRANCH  25  32
ENDBRANCH  22  24
ENDBRANCH  19  20
ENDBRANCH  18  19
ENDBRANCH   4  18
TORSDOF 7
