REMARK  Name = ZINC13592246
REMARK  9 active torsions:
REMARK  status: ('A' for Active; 'I' for Inactive)
REMARK    1  A    between atoms: C_1  and  C_2
REMARK    2  A    between atoms: C_12  and  C_22
REMARK    3  A    between atoms: C_15  and  C_18
REMARK    4  A    between atoms: C_18  and  C_19
REMARK    5  A    between atoms: C_19  and  S_20
REMARK    6  A    between atoms: S_20  and  C_21
REMARK    7  A    between atoms: N_24  and  C_25
REMARK    8  A    between atoms: C_30  and  O_31
REMARK    9  A    between atoms: O_31  and  C_32
REMARK                            x       y       z     vdW  Elec       q    Type
REMARK                         _______ _______ _______ _____ _____    ______ ____
ROOT
ATOM      1  C   UNL     1       0.023   1.204   0.045  0.00  0.00    +0.046 C 
ATOM      2  C   UNL     1      -0.015  -0.302   0.099  0.00  0.00    -0.028 A 
ATOM      3  C   UNL     1      -0.007  -1.032  -1.071  0.00  0.00    +0.025 A 
ATOM      4  C   UNL     1      -0.042  -2.415  -1.032  0.00  0.00    +0.042 A 
ATOM      5  C   UNL     1      -0.084  -3.068   0.189  0.00  0.00    +0.027 A 
ATOM      6  C   UNL     1      -0.092  -2.342   1.358  0.00  0.00    +0.005 A 
ATOM      7  C   UNL     1      -0.053  -0.951   1.331  0.00  0.00    +0.042 A 
ATOM      8  N   UNL     1      -0.064  -0.442   2.631  0.00  0.00    -0.283 N 
ATOM      9  C   UNL     1      -0.103  -1.417   3.558  0.00  0.00    +0.243 C 
ATOM     10  O   UNL     1      -0.121  -1.270   4.762  0.00  0.00    -0.273 OA
ATOM     11  C   UNL     1      -0.132  -2.726   2.812  0.00  0.00    +0.135 C 
ATOM     12  C   UNL     1      -1.399  -3.528   3.136  0.00  0.00    +0.110 C 
ATOM     13  C   UNL     1      -0.883  -4.879   3.687  0.00  0.00    +0.034 C 
ATOM     14  C   UNL     1       0.555  -4.962   3.114  0.00  0.00    +0.056 C 
ATOM     15  N   UNL     1       1.030  -3.554   3.175  0.00  0.00    -0.296 NA
ATOM     16 CL   UNL     1      -0.033  -3.329  -2.508  0.00  0.00    -0.084 Cl
ATOM     17  H   UNL     1      -0.045   0.505   2.842  0.00  0.00    +0.155 HD
ATOM     18  H   UNL     1       1.796  -3.402   2.536  0.00  0.00    +0.123 HD
ENDROOT
BRANCH  12  19
ATOM     19  C   UNL     1      -2.215  -3.744   1.888  0.00  0.00    +0.223 C 
ATOM     20  O   UNL     1      -2.109  -4.780   1.266  0.00  0.00    -0.275 OA
ATOM     21  N   UNL     1      -3.063  -2.787   1.463  0.00  0.00    -0.282 N 
ATOM     22  H   UNL     1      -3.089  -1.927   1.912  0.00  0.00    +0.155 HD
BRANCH  21  23
ATOM     23  C   UNL     1      -3.908  -3.033   0.373  0.00  0.00    +0.077 A 
ATOM     24  C   UNL     1      -4.186  -4.337  -0.011  0.00  0.00    +0.047 A 
ATOM     25  C   UNL     1      -5.021  -4.578  -1.087  0.00  0.00    +0.043 A 
ATOM     26  C   UNL     1      -5.580  -3.520  -1.782  0.00  0.00    +0.024 A 
ATOM     27  C   UNL     1      -5.307  -2.219  -1.405  0.00  0.00    +0.049 A 
ATOM     28  C   UNL     1      -4.477  -1.970  -0.324  0.00  0.00    +0.141 A 
ATOM     29 CL   UNL     1      -5.367  -6.210  -1.567  0.00  0.00    -0.083 Cl
BRANCH  28  30
ATOM     30  O   UNL     1      -4.213  -0.690   0.052  0.00  0.00    -0.493 OA
ATOM     31  C   UNL     1      -4.830   0.350  -0.709  0.00  0.00    +0.277 C 
ENDBRANCH  28  30
ENDBRANCH  21  23
ENDBRANCH  12  19
BRANCH  14  32
ATOM     32  C   UNL     1       1.430  -5.868   3.981  0.00  0.00    +0.029 C 
BRANCH  32  33
ATOM     33  C   UNL     1       2.803  -6.030   3.326  0.00  0.00    +0.070 C 
BRANCH  33  34
ATOM     34  S   UNL     1       3.841  -7.106   4.354  0.00  0.00    -0.164 S 
ATOM     35  C   UNL     1       5.411  -7.195   3.451  0.00  0.00    +0.084 C 
ENDBRANCH  33  34
ENDBRANCH  32  33
ENDBRANCH  14  32
TORSDOF 6
