REMARK  Name = ZINC01107180
REMARK  7 active torsions:
REMARK  status: ('A' for Active; 'I' for Inactive)
REMARK    1  A    between atoms: C_1  and  O_2
REMARK    2  A    between atoms: O_2  and  C_3
REMARK    3  A    between atoms: C_6  and  C_11
REMARK    4  A    between atoms: C_8  and  O_9
REMARK    5  A    between atoms: O_9  and  C_10
REMARK    6  A    between atoms: C_16  and  C_26
REMARK    7  A    between atoms: C_31  and  N_32
REMARK                            x       y       z     vdW  Elec       q    Type
REMARK                         _______ _______ _______ _____ _____    ______ ____
ROOT
ATOM      1  C   UNL     1       0.702   1.802   0.491  0.00  0.00    +0.032 C 
ATOM      2  C   UNL     1      -0.697   1.274   0.820  0.00  0.00    +0.059 C 
ATOM      3  C   UNL     1      -1.698   1.779  -0.207  0.00  0.00    +0.017 C 
ATOM      4  C   UNL     1      -1.322   1.971  -1.481  0.00  0.00    +0.036 C 
ATOM      5  C   UNL     1      -2.215   2.437  -2.608  0.00  0.00    +0.138 C 
ATOM      6  N   UNL     1      -3.506   2.932  -2.179  0.00  0.00    -0.331 N 
ATOM      7  C   UNL     1      -4.428   2.092  -1.560  0.00  0.00    +0.049 A 
ATOM      8  C   UNL     1      -5.621   1.751  -2.180  0.00  0.00    +0.025 A 
ATOM      9  C   UNL     1      -6.476   0.853  -1.565  0.00  0.00    +0.002 A 
ATOM     10  C   UNL     1      -6.147   0.297  -0.342  0.00  0.00    +0.002 A 
ATOM     11  C   UNL     1      -4.967   0.653   0.290  0.00  0.00    +0.025 A 
ATOM     12  C   UNL     1      -4.121   1.564  -0.315  0.00  0.00    +0.052 A 
ATOM     13  N   UNL     1      -2.944   2.001   0.284  0.00  0.00    -0.316 N 
ATOM     14  C   UNL     1       0.016   1.734  -1.875  0.00  0.00    +0.163 C 
ATOM     15  O   UNL     1       0.321   1.895  -3.040  0.00  0.00    -0.292 OA
ATOM     16  C   UNL     1       1.071   1.291  -0.907  0.00  0.00    +0.088 C 
ATOM     17  H   UNL     1      -3.732   3.864  -2.324  0.00  0.00    +0.147 HD
ATOM     18  H   UNL     1      -3.019   2.499   1.113  0.00  0.00    +0.152 HD
ENDROOT
BRANCH   1  22
ATOM     19  C   UNL     1       3.526   0.346   3.354  0.00  0.00    +0.161 A 
ATOM     20  C   UNL     1       2.774  -0.544   2.604  0.00  0.00    +0.049 A 
ATOM     21  C   UNL     1       1.863  -0.070   1.680  0.00  0.00    +0.008 A 
ATOM     22  C   UNL     1       1.698   1.291   1.501  0.00  0.00    -0.040 A 
ATOM     23  C   UNL     1       2.449   2.184   2.242  0.00  0.00    +0.053 A 
ATOM     24  C   UNL     1       3.361   1.716   3.174  0.00  0.00    +0.162 A 
BRANCH  19  26
ATOM     25  C   UNL     1       4.541  -1.536   4.395  0.00  0.00    +0.277 C 
ATOM     26  O   UNL     1       4.424  -0.118   4.264  0.00  0.00    -0.491 OA
ENDBRANCH  19  26
BRANCH  24  27
ATOM     27  O   UNL     1       4.096   2.594   3.908  0.00  0.00    -0.491 OA
ATOM     28  C   UNL     1       3.874   3.985   3.669  0.00  0.00    +0.277 C 
ENDBRANCH  24  27
ENDBRANCH   1  22
BRANCH   5  29
ATOM     29  C   UNL     1      -2.435   1.283  -3.552  0.00  0.00    +0.007 A 
ATOM     30  C   UNL     1      -2.181  -0.010  -3.135  0.00  0.00    +0.008 A 
ATOM     31  C   UNL     1      -2.387  -1.069  -3.999  0.00  0.00    +0.000 A 
ATOM     32  C   UNL     1      -2.838  -0.834  -5.285  0.00  0.00    +0.002 A 
ATOM     33  C   UNL     1      -3.087   0.459  -5.704  0.00  0.00    +0.033 A 
ATOM     34  C   UNL     1      -2.885   1.518  -4.838  0.00  0.00    +0.131 A 
BRANCH  34  35
ATOM     35  N   UNL     1      -3.152   2.903  -5.287  0.00  0.00    +0.057 N 
ATOM     36  O   UNL     1      -3.450   3.120  -6.448  0.00  0.00    -0.126 OA
ATOM     37  O   UNL     1      -3.073   3.825  -4.496  0.00  0.00    -0.126 OA
ENDBRANCH  34  35
ENDBRANCH   5  29
TORSDOF 5
