REMARK  Name = ZINC10694806
REMARK  8 active torsions:
REMARK  status: ('A' for Active; 'I' for Inactive)
REMARK    1  A    between atoms: C_1  and  C_2
REMARK    2  A    between atoms: N_11  and  C_15
REMARK    3  A    between atoms: C_15  and  C_16
REMARK    4  A    between atoms: C_16  and  O_18
REMARK    5  A    between atoms: O_18  and  C_19
REMARK    6  A    between atoms: C_19  and  C_20
REMARK    7  A    between atoms: C_20  and  O_21
REMARK    8  A    between atoms: O_21  and  C_22
REMARK                            x       y       z     vdW  Elec       q    Type
REMARK                         _______ _______ _______ _____ _____    ______ ____
ROOT
ATOM      1  C   UNL     1       6.440  -0.611   2.598  0.00  0.00    +0.238 C 
ENDROOT
BRANCH   1  11
ATOM      2  C   UNL     1      10.078  -1.639   4.915  0.00  0.00    +0.010 C 
ATOM      3  C   UNL     1      10.368  -2.785   3.944  0.00  0.00    +0.018 C 
ATOM      4  C   UNL     1       9.939  -4.111   4.578  0.00  0.00    +0.006 C 
ATOM      5  C   UNL     1      10.211  -5.255   3.599  0.00  0.00    +0.000 C 
ATOM      6  C   UNL     1       9.408  -5.030   2.316  0.00  0.00    +0.003 C 
ATOM      7  C   UNL     1       9.835  -3.709   1.673  0.00  0.00    +0.035 C 
ATOM      8  C   UNL     1       9.593  -2.563   2.650  0.00  0.00    +0.115 C 
ATOM      9  C   UNL     1       8.117  -2.415   2.942  0.00  0.00    +0.247 C 
ATOM     10  O   UNL     1       7.385  -3.235   3.453  0.00  0.00    -0.273 OA
ATOM     11  N   UNL     1       7.787  -1.180   2.512  0.00  0.00    -0.213 N 
ATOM     12  C   UNL     1       8.845  -0.536   2.002  0.00  0.00    +0.310 C 
ATOM     13  O   UNL     1       8.797   0.592   1.554  0.00  0.00    -0.252 OA
ATOM     14  N   UNL     1       9.966  -1.280   2.041  0.00  0.00    -0.285 N 
ATOM     15  H   UNL     1      10.847  -1.020   1.728  0.00  0.00    +0.151 HD
ENDBRANCH   1  11
BRANCH   1  16
ATOM     16  C   UNL     1       5.675  -0.938   1.341  0.00  0.00    +0.325 C 
ATOM     17  O   UNL     1       6.202  -1.581   0.464  0.00  0.00    -0.249 OA
BRANCH  16  18
ATOM     18  O   UNL     1       4.410  -0.516   1.196  0.00  0.00    -0.460 OA
BRANCH  18  19
ATOM     19  C   UNL     1       3.734  -0.868  -0.040  0.00  0.00    +0.273 C 
BRANCH  19  20
ATOM     20  C   UNL     1       2.312  -0.304  -0.023  0.00  0.00    +0.270 C 
BRANCH  20  21
ATOM     21  O   UNL     1       2.366   1.123  -0.015  0.00  0.00    -0.487 OA
BRANCH  21  22
ATOM     22  C   UNL     1       1.179   1.786   0.000  0.00  0.00    +0.139 A 
ATOM     23  C   UNL     1      -0.013   1.076   0.008  0.00  0.00    +0.048 A 
ATOM     24  C   UNL     1      -1.218   1.751   0.017  0.00  0.00    +0.023 A 
ATOM     25  C   UNL     1      -1.238   3.134   0.031  0.00  0.00    +0.043 A 
ATOM     26  C   UNL     1      -0.051   3.845   0.023  0.00  0.00    +0.043 A 
ATOM     27  C   UNL     1       1.157   3.174   0.008  0.00  0.00    +0.084 A 
ATOM     28 CL   UNL     1       2.647   4.066  -0.002  0.00  0.00    -0.080 Cl
ATOM     29 CL   UNL     1      -2.754   3.979   0.049  0.00  0.00    -0.083 Cl
ENDBRANCH  21  22
ENDBRANCH  20  21
ENDBRANCH  19  20
ENDBRANCH  18  19
ENDBRANCH  16  18
ENDBRANCH   1  16
TORSDOF 7
