REMARK  Name = ZINC41248555
REMARK  5 active torsions:
REMARK  status: ('A' for Active; 'I' for Inactive)
REMARK    1  A    between atoms: C_1  and  C_2
REMARK    2  A    between atoms: C_4  and  C_17
REMARK    3  A    between atoms: C_5  and  C_16
REMARK    4  A    between atoms: C_6  and  C_9
REMARK    5  A    between atoms: C_7  and  C_8
REMARK                            x       y       z     vdW  Elec       q    Type
REMARK                         _______ _______ _______ _____ _____    ______ ____
ROOT
ATOM      1  C   UNL     1       0.025   1.482   0.336  0.00  0.00    +0.044 C 
ATOM      2  C   UNL     1       0.023  -0.014   0.158  0.00  0.00    -0.047 A 
ATOM      3  C   UNL     1       0.003  -0.558  -1.114  0.00  0.00    +0.007 A 
ATOM      4  C   UNL     1       0.002  -1.931  -1.285  0.00  0.00    -0.047 A 
ATOM      5  C   UNL     1       0.019  -2.766  -0.186  0.00  0.00    -0.038 A 
ATOM      6  C   UNL     1       0.039  -2.223   1.098  0.00  0.00    +0.008 A 
ATOM      7  C   UNL     1       0.046  -0.840   1.264  0.00  0.00    -0.038 A 
ATOM      8  C   UNL     1       0.074  -0.245   2.648  0.00  0.00    +0.045 C 
ATOM      9  C   UNL     1       0.016  -4.261  -0.373  0.00  0.00    +0.045 C 
ATOM     10  C   UNL     1      -0.020  -2.516  -2.673  0.00  0.00    +0.044 C 
ENDROOT
BRANCH   6  11
ATOM     11  C   UNL     1       0.058  -3.115   2.283  0.00  0.00    +0.094 A 
ATOM     12  C   UNL     1      -0.875  -2.937   3.310  0.00  0.00    +0.033 A 
ATOM     13  C   UNL     1      -0.818  -3.794   4.394  0.00  0.00    +0.047 A 
ATOM     14  C   UNL     1       0.167  -4.783   4.396  0.00  0.00    +0.139 A 
ATOM     15  N   UNL     1       1.010  -4.878   3.378  0.00  0.00    -0.134 NA
ATOM     16  N   UNL     1       0.955  -4.087   2.369  0.00  0.00    -0.147 NA
ATOM     17  N   UNL     1       0.263  -5.667   5.465  0.00  0.00    -0.342 N 
ATOM     18  H   UNL     1      -0.354  -5.597   6.209  0.00  0.00    +0.144 HD
ATOM     19  H   UNL     1       0.948  -6.354   5.465  0.00  0.00    +0.144 HD
ENDBRANCH   6  11
TORSDOF 1
