REMARK  Name = ZINC03296944
REMARK  7 active torsions:
REMARK  status: ('A' for Active; 'I' for Inactive)
REMARK    1  A    between atoms: N_9  and  S_10
REMARK    2  A    between atoms: S_10  and  C_13
REMARK    3  A    between atoms: C_17  and  C_19
REMARK    4  A    between atoms: N_21  and  C_22
REMARK    5  A    between atoms: C_22  and  C_23
REMARK    6  A    between atoms: C_23  and  N_24
REMARK    7  A    between atoms: C_28  and  C_29
REMARK                            x       y       z     vdW  Elec       q    Type
REMARK                         _______ _______ _______ _____ _____    ______ ____
ROOT
ATOM      1  C   UNL     1      -0.265  -5.113  -3.162  0.00  0.00    +0.244 C 
ATOM      2  O   UNL     1       0.394  -6.068  -2.800  0.00  0.00    -0.270 OA
ATOM      3  N   UNL     1      -0.625  -4.994  -4.455  0.00  0.00    -0.310 N 
ATOM      4  H   UNL     1      -1.151  -4.232  -4.744  0.00  0.00    +0.149 HD
ENDROOT
BRANCH   1   9
ATOM      5  C   UNL     1      -0.683  -3.237   0.065  0.00  0.00    +0.109 A 
ATOM      6  C   UNL     1      -1.438  -2.154  -0.349  0.00  0.00    +0.029 A 
ATOM      7  C   UNL     1      -1.804  -2.026  -1.677  0.00  0.00    +0.003 A 
ATOM      8  C   UNL     1      -1.428  -2.985  -2.596  0.00  0.00    +0.013 A 
ATOM      9  C   UNL     1      -0.672  -4.082  -2.183  0.00  0.00    +0.039 A 
ATOM     10  C   UNL     1      -0.300  -4.203  -0.843  0.00  0.00    +0.041 A 
BRANCH   5  11
ATOM     11  S   UNL     1      -0.216  -3.388   1.757  0.00  0.00    +0.075 S 
ATOM     12  O   UNL     1       0.017  -4.770   1.993  0.00  0.00    -0.150 OA
ATOM     13  O   UNL     1      -1.160  -2.636   2.507  0.00  0.00    -0.150 OA
BRANCH  11  22
ATOM     14  C   UNL     1       5.131  -4.071   1.569  0.00  0.00    +0.000 A 
ATOM     15  C   UNL     1       4.103  -4.972   1.360  0.00  0.00    +0.002 A 
ATOM     16  C   UNL     1       2.791  -4.563   1.463  0.00  0.00    +0.025 A 
ATOM     17  C   UNL     1       2.489  -3.237   1.780  0.00  0.00    +0.054 A 
ATOM     18  C   UNL     1       3.527  -2.342   1.988  0.00  0.00    -0.023 A 
ATOM     19  C   UNL     1       4.841  -2.757   1.883  0.00  0.00    +0.005 A 
ATOM     20  C   UNL     1       2.937  -0.989   2.314  0.00  0.00    +0.058 C 
ATOM     21  C   UNL     1       1.416  -1.209   2.268  0.00  0.00    +0.136 C 
ATOM     22  N   UNL     1       1.244  -2.625   1.932  0.00  0.00    -0.202 N 
ENDBRANCH  11  22
ENDBRANCH   5  11
ENDBRANCH   1   9
BRANCH   3  23
ATOM     23  C   UNL     1      -0.222  -6.016  -5.425  0.00  0.00    +0.124 C 
BRANCH  23  24
ATOM     24  C   UNL     1      -0.756  -5.643  -6.810  0.00  0.00    +0.136 C 
BRANCH  24  25
ATOM     25  N   UNL     1      -0.353  -6.665  -7.779  0.00  0.00    -0.227 N 
ATOM     26  C   UNL     1      -1.144  -7.703  -7.991  0.00  0.00    +0.260 C 
ATOM     27  O   UNL     1      -2.200  -7.832  -7.401  0.00  0.00    -0.269 OA
ATOM     28  C   UNL     1      -0.681  -8.697  -8.981  0.00  0.00    +0.080 C 
ATOM     29  C   UNL     1      -1.274  -9.844  -9.397  0.00  0.00    +0.031 C 
ATOM     30  S   UNL     1       0.876  -7.973  -9.479  0.00  0.00    -0.026 S 
ATOM     31  C   UNL     1       0.815  -6.522  -8.440  0.00  0.00    +0.286 C 
ATOM     32  O   UNL     1       1.630  -5.624  -8.348  0.00  0.00    -0.262 OA
BRANCH  29  33
ATOM     33  C   UNL     1      -0.548 -10.767 -10.281  0.00  0.00    +0.011 A 
ATOM     34  C   UNL     1       0.844 -10.685 -10.394  0.00  0.00    +0.011 A 
ATOM     35  C   UNL     1       1.518 -11.557 -11.220  0.00  0.00    +0.001 A 
ATOM     36  C   UNL     1       0.821 -12.508 -11.948  0.00  0.00    +0.003 A 
ATOM     37  C   UNL     1      -0.556 -12.595 -11.847  0.00  0.00    +0.039 A 
ATOM     38  C   UNL     1      -1.248 -11.731 -11.019  0.00  0.00    +0.131 A 
ATOM     39  F   UNL     1      -2.592 -11.816 -10.922  0.00  0.00    -0.205 F 
ENDBRANCH  29  33
ENDBRANCH  24  25
ENDBRANCH  23  24
ENDBRANCH   3  23
TORSDOF 7
