REMARK  Name = ZINC08798769
REMARK  11 active torsions:
REMARK  status: ('A' for Active; 'I' for Inactive)
REMARK    1  A    between atoms: C_1  and  C_2
REMARK    2  A    between atoms: N_4  and  C_5
REMARK    3  A    between atoms: C_8  and  S_11
REMARK    4  A    between atoms: S_11  and  N_14
REMARK    5  A    between atoms: N_14  and  C_15
REMARK    6  A    between atoms: C_15  and  C_16
REMARK    7  A    between atoms: C_16  and  C_18
REMARK    8  A    between atoms: C_16  and  N_60
REMARK    9  A    between atoms: N_27  and  C_28
REMARK   10  A    between atoms: C_29  and  N_60
REMARK   11  A    between atoms: C_30  and  N_60
REMARK                            x       y       z     vdW  Elec       q    Type
REMARK                         _______ _______ _______ _____ _____    ______ ____
ROOT
ATOM      1  C   UNL     1       1.315   2.153  -0.251  0.00  0.00    +0.095 C 
ENDROOT
BRANCH   1   2
ATOM      2  N   UNL     1       2.341   1.525  -1.087  0.00  0.00    -0.191 NA
ATOM      3  H   UNL     1       2.577   1.918  -1.942  0.00  0.00    +0.148 HD
BRANCH   2   4
ATOM      4  S   UNL     1       3.102   0.148  -0.570  0.00  0.00    +0.058 S 
ATOM      5  O   UNL     1       4.009  -0.225  -1.598  0.00  0.00    -0.153 OA
ATOM      6  O   UNL     1       3.522   0.394   0.765  0.00  0.00    -0.153 OA
BRANCH   4  10
ATOM      7  C   UNL     1      -0.031  -3.115  -0.362  0.00  0.00    +0.033 A 
ATOM      8  C   UNL     1       0.685  -2.912  -1.534  0.00  0.00    +0.025 A 
ATOM      9  C   UNL     1       1.640  -1.916  -1.595  0.00  0.00    +0.030 A 
ATOM     10  C   UNL     1       1.883  -1.121  -0.489  0.00  0.00    +0.105 A 
ATOM     11  C   UNL     1       1.175  -1.325   0.681  0.00  0.00    +0.030 A 
ATOM     12  C   UNL     1       0.216  -2.316   0.747  0.00  0.00    +0.025 A 
BRANCH   7  16
ATOM     13  C   UNL     1      -1.913  -6.311  -1.002  0.00  0.00    +0.109 C 
ATOM     14  C   UNL     1      -0.821  -5.274  -0.977  0.00  0.00    +0.214 C 
ATOM     15  O   UNL     1       0.220  -5.474  -1.568  0.00  0.00    -0.276 OA
ATOM     16  N   UNL     1      -0.999  -4.123  -0.297  0.00  0.00    -0.286 N 
ATOM     17  H   UNL     1      -1.799  -3.994   0.236  0.00  0.00    +0.155 HD
ENDBRANCH   7  16
ENDBRANCH   4  10
ENDBRANCH   2   4
ENDBRANCH   1   2
BRANCH   1  18
ATOM     18  C   UNL     1       1.101   3.598  -0.706  0.00  0.00    -0.023 C 
BRANCH  18  19
ATOM     19  C   UNL     1       2.370   4.384  -0.499  0.00  0.00    -0.059 A 
ATOM     20  C   UNL     1       2.691   4.864   0.758  0.00  0.00    +0.004 A 
ATOM     21  C   UNL     1       3.850   5.584   0.944  0.00  0.00    +0.023 A 
ATOM     22  C   UNL     1       4.707   5.835  -0.130  0.00  0.00    +0.033 A 
ATOM     23  C   UNL     1       4.385   5.346  -1.384  0.00  0.00    -0.026 A 
ATOM     24  C   UNL     1       3.218   4.620  -1.563  0.00  0.00    +0.007 A 
ATOM     25  C   UNL     1       5.276   5.566  -2.580  0.00  0.00    +0.038 C 
ATOM     26  C   UNL     1       6.279   6.682  -2.277  0.00  0.00    +0.024 C 
ATOM     27  C   UNL     1       6.892   6.404  -0.899  0.00  0.00    +0.105 C 
ATOM     28  N   UNL     1       5.857   6.583   0.120  0.00  0.00    -0.333 N 
ATOM     29  C   UNL     1       6.385   6.304   1.462  0.00  0.00    +0.129 C 
ENDBRANCH  18  19
BRANCH  18  32
ATOM     30  C   UNL     1      -0.286   5.559  -0.398  0.00  0.00    -0.096 C 
ATOM     31  C   UNL     1      -1.183   3.357   0.060  0.00  0.00    -0.096 C 
ATOM     32  N   UNL     1       0.026   4.205   0.107  0.00  0.00    +0.381 N 
ATOM     33  H   UNL     1       0.345   4.278   1.081  0.00  0.00    -0.082 HD
ENDBRANCH  18  32
ENDBRANCH   1  18
TORSDOF 7
