REMARK  Name = ZINC17911964
REMARK  11 active torsions:
REMARK  status: ('A' for Active; 'I' for Inactive)
REMARK    1  A    between atoms: C_1  and  O_2
REMARK    2  A    between atoms: O_2  and  C_3
REMARK    3  A    between atoms: C_6  and  C_9
REMARK    4  A    between atoms: C_9  and  C_11
REMARK    5  A    between atoms: C_9  and  N_59
REMARK    6  A    between atoms: C_11  and  N_12
REMARK    7  A    between atoms: C_13  and  C_15
REMARK    8  A    between atoms: C_15  and  C_16
REMARK    9  A    between atoms: C_16  and  N_17
REMARK   10  A    between atoms: N_17  and  S_18
REMARK   11  A    between atoms: S_18  and  C_21
REMARK                            x       y       z     vdW  Elec       q    Type
REMARK                         _______ _______ _______ _____ _____    ______ ____
ROOT
ATOM      1  N   UNL     1      -2.235   5.148  -4.734  0.00  0.00    -0.317 N 
ATOM      2  C   UNL     1      -2.078   4.523  -3.550  0.00  0.00    +0.214 C 
ATOM      3  O   UNL     1      -2.266   5.127  -2.516  0.00  0.00    -0.276 OA
ATOM      4  H   UNL     1      -2.085   4.665  -5.561  0.00  0.00    +0.149 HD
ENDROOT
BRANCH   1   5
ATOM      5  C   UNL     1      -2.633   6.557  -4.771  0.00  0.00    +0.093 C 
BRANCH   5   6
ATOM      6  C   UNL     1      -2.902   6.974  -6.218  0.00  0.00    -0.020 C 
BRANCH   6  10
ATOM      7  C   UNL     1      -3.840  11.141  -6.352  0.00  0.00    +0.120 A 
ATOM      8  C   UNL     1      -2.605  10.692  -6.798  0.00  0.00    +0.046 A 
ATOM      9  C   UNL     1      -2.304   9.344  -6.753  0.00  0.00    +0.005 A 
ATOM     10  C   UNL     1      -3.233   8.443  -6.265  0.00  0.00    -0.059 A 
ATOM     11  C   UNL     1      -4.466   8.888  -5.826  0.00  0.00    +0.005 A 
ATOM     12  C   UNL     1      -4.769  10.235  -5.862  0.00  0.00    +0.046 A 
BRANCH   7  14
ATOM     13  C   UNL     1      -5.428  12.856  -5.920  0.00  0.00    +0.277 C 
ATOM     14  O   UNL     1      -4.138  12.466  -6.395  0.00  0.00    -0.495 OA
ENDBRANCH   7  14
ENDBRANCH   6  10
BRANCH   6  19
ATOM     15  C   UNL     1      -4.508   6.767  -8.037  0.00  0.00    -0.078 C 
ATOM     16  C   UNL     1      -5.282   5.588  -8.678  0.00  0.00    -0.020 C 
ATOM     17  C   UNL     1      -4.432   4.359  -8.280  0.00  0.00    -0.020 C 
ATOM     18  C   UNL     1      -3.631   4.808  -7.044  0.00  0.00    -0.078 C 
ATOM     19  N   UNL     1      -4.045   6.184  -6.767  0.00  0.00    +0.385 N 
ATOM     20  H   UNL     1      -4.813   6.184  -6.085  0.00  0.00    -0.081 HD
ENDBRANCH   6  19
ENDBRANCH   5   6
ENDBRANCH   1   5
BRANCH   2  21
ATOM     21  C   UNL     1      -1.669   3.073  -3.512  0.00  0.00    +0.112 C 
BRANCH  21  22
ATOM     22  C   UNL     1      -1.562   2.611  -2.058  0.00  0.00    +0.115 C 
BRANCH  22  23
ATOM     23  N   UNL     1      -1.164   1.202  -2.021  0.00  0.00    -0.189 NA
ATOM     24  H   UNL     1      -1.224   0.660  -2.823  0.00  0.00    +0.148 HD
BRANCH  23  25
ATOM     25  S   UNL     1      -0.613   0.534  -0.609  0.00  0.00    +0.058 S 
ATOM     26  O   UNL     1      -0.338  -0.833  -0.887  0.00  0.00    -0.153 OA
ATOM     27  O   UNL     1       0.372   1.421  -0.098  0.00  0.00    -0.153 OA
BRANCH  25  28
ATOM     28  C   UNL     1      -1.952   0.555   0.535  0.00  0.00    +0.105 A 
ATOM     29  C   UNL     1      -2.133   1.644   1.367  0.00  0.00    +0.030 A 
ATOM     30  C   UNL     1      -3.187   1.664   2.261  0.00  0.00    +0.022 A 
ATOM     31  C   UNL     1      -4.054   0.589   2.332  0.00  0.00    +0.041 A 
ATOM     32  C   UNL     1      -3.870  -0.503   1.502  0.00  0.00    +0.022 A 
ATOM     33  C   UNL     1      -2.819  -0.520   0.605  0.00  0.00    +0.030 A 
ATOM     34 CL   UNL     1      -5.375   0.610   3.459  0.00  0.00    -0.084 Cl
ENDBRANCH  25  28
ENDBRANCH  23  25
ENDBRANCH  22  23
ENDBRANCH  21  22
ENDBRANCH   2  21
TORSDOF 10
