REMARK  Name = ZINC64870829
REMARK  8 active torsions:
REMARK  status: ('A' for Active; 'I' for Inactive)
REMARK    1  A    between atoms: C_1  and  S_2
REMARK    2  A    between atoms: S_2  and  C_3
REMARK    3  A    between atoms: C_6  and  C_9
REMARK    4  A    between atoms: C_12  and  C_16
REMARK    5  A    between atoms: N_26  and  C_29
REMARK    6  A    between atoms: C_29  and  C_30
REMARK    7  A    between atoms: C_30  and  C_31
REMARK    8  A    between atoms: C_31  and  C_32
REMARK                            x       y       z     vdW  Elec       q    Type
REMARK                         _______ _______ _______ _____ _____    ______ ____
ROOT
ATOM      1  C   UNL     1       1.785  -3.406  -7.942  0.00  0.00    -0.000 A 
ATOM      2  C   UNL     1       0.499  -3.666  -7.494  0.00  0.00    +0.008 A 
ATOM      3  C   UNL     1      -0.350  -4.461  -8.235  0.00  0.00    +0.016 A 
ATOM      4  C   UNL     1       0.092  -5.002  -9.440  0.00  0.00    +0.063 A 
ATOM      5  C   UNL     1       1.397  -4.737  -9.893  0.00  0.00    +0.056 A 
ATOM      6  C   UNL     1       2.235  -3.932  -9.137  0.00  0.00    +0.034 A 
ATOM      7  N   UNL     1       1.810  -5.289 -11.096  0.00  0.00    -0.307 N 
ATOM      8  H   UNL     1       2.708  -5.115 -11.421  0.00  0.00    +0.170 HD
ATOM      9  C   UNL     1       0.980  -6.063 -11.816  0.00  0.00    +0.330 A 
ATOM     10  O   UNL     1       1.381  -6.528 -12.866  0.00  0.00    -0.246 OA
ATOM     11  N   UNL     1      -0.273  -6.344 -11.427  0.00  0.00    -0.261 N 
ATOM     12  C   UNL     1      -0.774  -5.857 -10.271  0.00  0.00    +0.264 A 
ATOM     13  O   UNL     1      -1.911  -6.116  -9.925  0.00  0.00    -0.267 OA
ENDROOT
BRANCH   1  16
ATOM     14  C   UNL     1       2.901  -1.397  -5.106  0.00  0.00    +0.180 C 
ATOM     15  N   UNL     1       2.379  -2.669  -5.674  0.00  0.00    -0.265 NA
ATOM     16  C   UNL     1       2.700  -2.535  -7.119  0.00  0.00    +0.242 C 
ATOM     17  O   UNL     1       2.477  -1.145  -7.419  0.00  0.00    -0.274 OA
ATOM     18  N   UNL     1       2.612  -0.396  -6.159  0.00  0.00    -0.177 NA
ATOM     19  H   UNL     1       2.849  -3.465  -5.271  0.00  0.00    +0.127 HD
ATOM     20  H   UNL     1       3.351   0.288  -6.220  0.00  0.00    +0.156 HD
BRANCH  14  24
ATOM     21  C   UNL     1       0.848  -0.411  -1.489  0.00  0.00    +0.008 A 
ATOM     22  C   UNL     1       1.315   0.599  -2.322  0.00  0.00    +0.015 A 
ATOM     23  C   UNL     1       1.978   0.276  -3.490  0.00  0.00    +0.007 A 
ATOM     24  C   UNL     1       2.178  -1.049  -3.830  0.00  0.00    -0.014 A 
ATOM     25  C   UNL     1       1.714  -2.056  -3.004  0.00  0.00    +0.007 A 
ATOM     26  C   UNL     1       1.056  -1.742  -1.831  0.00  0.00    +0.015 A 
BRANCH  21  28
ATOM     27  C   UNL     1      -0.022   1.810   0.012  0.00  0.00    +0.090 C 
ATOM     28  S   UNL     1       0.002  -0.004   0.002  0.00  0.00    -0.129 S 
ENDBRANCH  21  28
ENDBRANCH  14  24
ENDBRANCH   1  16
BRANCH  11  29
ATOM     29  C   UNL     1      -1.114  -7.196 -12.271  0.00  0.00    +0.130 C 
BRANCH  29  30
ATOM     30  C   UNL     1      -0.927  -8.660 -11.865  0.00  0.00    +0.026 C 
BRANCH  30  31
ATOM     31  C   UNL     1      -1.805  -9.550 -12.747  0.00  0.00    +0.037 C 
BRANCH  31  32
ATOM     32  C   UNL     1      -1.621 -10.991 -12.347  0.00  0.00    -0.047 A 
ATOM     33  C   UNL     1      -0.637 -11.754 -12.947  0.00  0.00    +0.003 A 
ATOM     34  C   UNL     1      -0.468 -13.076 -12.580  0.00  0.00    +0.000 A 
ATOM     35  C   UNL     1      -1.282 -13.635 -11.613  0.00  0.00    +0.000 A 
ATOM     36  C   UNL     1      -2.266 -12.871 -11.013  0.00  0.00    +0.000 A 
ATOM     37  C   UNL     1      -2.432 -11.548 -11.377  0.00  0.00    +0.003 A 
ENDBRANCH  31  32
ENDBRANCH  30  31
ENDBRANCH  29  30
ENDBRANCH  11  29
TORSDOF 7
