REMARK  Name = ZINC36556988
REMARK  13 active torsions:
REMARK  status: ('A' for Active; 'I' for Inactive)
REMARK    1  A    between atoms: C_1  and  C_2
REMARK    2  A    between atoms: C_5  and  C_7
REMARK    3  A    between atoms: C_7  and  N_8
REMARK    4  A    between atoms: N_8  and  C_9
REMARK    5  A    between atoms: C_9  and  C_11
REMARK    6  A    between atoms: C_9  and  C_25
REMARK    7  A    between atoms: N_27  and  C_28
REMARK    8  A    between atoms: C_28  and  C_29
REMARK    9  A    between atoms: C_28  and  C_30
REMARK   10  A    between atoms: C_28  and  C_31
REMARK   11  A    between atoms: C_32  and  C_34
REMARK   12  A    between atoms: C_34  and  C_35
REMARK   13  A    between atoms: C_35  and  C_36
REMARK                            x       y       z     vdW  Elec       q    Type
REMARK                         _______ _______ _______ _____ _____    ______ ____
ROOT
ATOM      1  C   UNL     1       3.135  -2.999  -2.210  0.00  0.00    +0.193 C 
ENDROOT
BRANCH   1   2
ATOM      2  C   UNL     1       2.821  -1.540  -2.421  0.00  0.00    -0.010 A 
ATOM      3  C   UNL     1       2.211  -0.848  -1.439  0.00  0.00    +0.015 A 
ATOM      4  C   UNL     1       1.895   0.523  -1.589  0.00  0.00    -0.017 A 
ATOM      5  C   UNL     1       1.261   1.234  -0.561  0.00  0.00    +0.008 A 
ATOM      6  C   UNL     1       0.969   2.556  -0.732  0.00  0.00    +0.001 A 
ATOM      7  C   UNL     1       1.291   3.210  -1.915  0.00  0.00    +0.001 A 
ATOM      8  C   UNL     1       1.909   2.545  -2.935  0.00  0.00    +0.009 A 
ATOM      9  C   UNL     1       2.222   1.192  -2.790  0.00  0.00    -0.010 A 
ATOM     10  C   UNL     1       2.885   0.439  -3.858  0.00  0.00    -0.010 A 
ATOM     11  C   UNL     1       3.179  -0.926  -3.644  0.00  0.00    -0.012 A 
ATOM     12  C   UNL     1       3.818  -1.654  -4.658  0.00  0.00    +0.009 A 
ATOM     13  C   UNL     1       4.151  -1.037  -5.828  0.00  0.00    +0.001 A 
ATOM     14  C   UNL     1       3.865   0.308  -6.032  0.00  0.00    +0.001 A 
ATOM     15  C   UNL     1       3.233   1.041  -5.068  0.00  0.00    +0.009 A 
ENDBRANCH   1   2
BRANCH   1  16
ATOM     16  C   UNL     1       4.576  -3.148  -1.795  0.00  0.00    +0.239 C 
ATOM     17  O   UNL     1       4.851  -3.654  -0.728  0.00  0.00    -0.273 OA
ATOM     18  N   UNL     1       5.560  -2.718  -2.610  0.00  0.00    -0.309 N 
ATOM     19  H   UNL     1       5.340  -2.313  -3.463  0.00  0.00    +0.149 HD
BRANCH  18  20
ATOM     20  C   UNL     1       6.961  -2.863  -2.207  0.00  0.00    +0.026 C 
ATOM     21  C   UNL     1       7.279  -4.344  -1.992  0.00  0.00    +0.031 C 
ATOM     22  C   UNL     1       7.868  -2.300  -3.303  0.00  0.00    +0.031 C 
ATOM     23  C   UNL     1       7.198  -2.096  -0.904  0.00  0.00    +0.031 C 
ENDBRANCH  18  20
ENDBRANCH   1  16
BRANCH   1  24
ATOM     24  N   UNL     1       2.267  -3.538  -1.160  0.00  0.00    -0.279 N 
ATOM     25  C   UNL     1       2.434  -3.148   0.119  0.00  0.00    +0.217 C 
ATOM     26  O   UNL     1       3.258  -2.302   0.392  0.00  0.00    -0.276 OA
BRANCH  24  27
ATOM     27  C   UNL     1       1.216  -4.500  -1.501  0.00  0.00    +0.183 C 
BRANCH  27  32
ATOM     28  C   UNL     1       3.553  -8.848  -2.538  0.00  0.00    +0.086 C 
ATOM     29  C   UNL     1       2.767  -7.792  -1.805  0.00  0.00    +0.102 A 
ATOM     30  C   UNL     1       2.256  -7.910  -0.566  0.00  0.00    +0.045 A 
ATOM     31  C   UNL     1       1.601  -6.692  -0.276  0.00  0.00    +0.046 A 
ATOM     32  C   UNL     1       1.751  -5.902  -1.354  0.00  0.00    +0.122 A 
ATOM     33  O   UNL     1       2.463  -6.571  -2.275  0.00  0.00    -0.463 OA
ENDBRANCH  27  32
ENDBRANCH  24  27
BRANCH  25  34
ATOM     34  C   UNL     1       1.597  -3.765   1.210  0.00  0.00    +0.096 C 
BRANCH  34  35
ATOM     35  C   UNL     1       1.983  -3.151   2.558  0.00  0.00    +0.013 C 
BRANCH  35  36
ATOM     36  C   UNL     1       1.133  -3.777   3.665  0.00  0.00    -0.011 C 
ATOM     37  C   UNL     1      -0.335  -3.401   3.455  0.00  0.00    +0.003 C 
ATOM     38  C   UNL     1      -1.185  -4.027   4.563  0.00  0.00    +0.000 C 
ATOM     39  C   UNL     1      -0.714  -3.506   5.923  0.00  0.00    +0.000 C 
ATOM     40  C   UNL     1       0.754  -3.882   6.133  0.00  0.00    +0.000 C 
ATOM     41  C   UNL     1       1.604  -3.256   5.025  0.00  0.00    +0.003 C 
ENDBRANCH  35  36
ENDBRANCH  34  35
ENDBRANCH  25  34
ENDBRANCH   1  24
TORSDOF 9
