REMARK  Name = ZINC60155894
REMARK  13 active torsions:
REMARK  status: ('A' for Active; 'I' for Inactive)
REMARK    1  A    between atoms: C_1  and  C_2
REMARK    2  A    between atoms: C_5  and  C_8
REMARK    3  A    between atoms: C_8  and  C_10
REMARK    4  A    between atoms: C_8  and  N_31
REMARK    5  A    between atoms: C_10  and  N_11
REMARK    6  A    between atoms: C_12  and  C_14
REMARK    7  A    between atoms: C_14  and  N_15
REMARK    8  A    between atoms: C_21  and  C_24
REMARK    9  A    between atoms: C_24  and  C_25
REMARK   10  A    between atoms: C_24  and  C_26
REMARK   11  A    between atoms: C_24  and  C_27
REMARK   12  A    between atoms: N_31  and  C_32
REMARK   13  A    between atoms: N_31  and  C_33
REMARK                            x       y       z     vdW  Elec       q    Type
REMARK                         _______ _______ _______ _____ _____    ______ ____
ROOT
ATOM      1  C   UNL     1       1.458  -8.690   1.113  0.00  0.00    +0.213 C 
ENDROOT
BRANCH   1   2
ATOM      2  N   UNL     1       2.699  -9.401   1.431  0.00  0.00    -0.215 N 
ATOM      3  C   UNL     1       3.480 -10.008   0.514  0.00  0.00    +0.247 C 
ATOM      4  O   UNL     1       3.298 -10.066  -0.683  0.00  0.00    -0.273 OA
ATOM      5  C   UNL     1       4.632 -10.600   1.294  0.00  0.00    +0.113 C 
ATOM      6  C   UNL     1       5.952  -9.989   0.837  0.00  0.00    +0.035 C 
ATOM      7  C   UNL     1       6.205 -10.357  -0.628  0.00  0.00    +0.006 C 
ATOM      8  C   UNL     1       6.251 -11.879  -0.770  0.00  0.00    -0.005 C 
ATOM      9  C   UNL     1       4.913 -12.476  -0.327  0.00  0.00    +0.006 C 
ATOM     10  C   UNL     1       4.656 -12.116   1.139  0.00  0.00    +0.035 C 
ATOM     11  N   UNL     1       4.348 -10.229   2.686  0.00  0.00    -0.285 N 
ATOM     12  C   UNL     1       3.200  -9.525   2.666  0.00  0.00    +0.310 C 
ATOM     13  O   UNL     1       2.676  -9.058   3.658  0.00  0.00    -0.252 OA
ATOM     14  H   UNL     1       4.883 -10.445   3.466  0.00  0.00    +0.151 HD
BRANCH   8  15
ATOM     15  C   UNL     1       6.514 -12.247  -2.232  0.00  0.00    -0.035 C 
ATOM     16  C   UNL     1       7.853 -11.653  -2.674  0.00  0.00    +0.011 C 
ATOM     17  C   UNL     1       6.560 -13.770  -2.374  0.00  0.00    +0.011 C 
ATOM     18  C   UNL     1       5.392 -11.687  -3.108  0.00  0.00    +0.011 C 
ENDBRANCH   8  15
ENDBRANCH   1   2
BRANCH   1  20
ATOM     19  N   UNL     1       0.774  -6.390   0.509  0.00  0.00    -0.315 N 
ATOM     20  C   UNL     1       1.768  -7.243   0.827  0.00  0.00    +0.231 C 
ATOM     21  O   UNL     1       2.913  -6.845   0.883  0.00  0.00    -0.274 OA
ATOM     22  H   UNL     1      -0.141  -6.708   0.465  0.00  0.00    +0.149 HD
BRANCH  19  23
ATOM     23  C   UNL     1       1.075  -4.984   0.231  0.00  0.00    +0.093 C 
BRANCH  23  24
ATOM     24  C   UNL     1      -0.229  -4.220  -0.007  0.00  0.00    -0.021 C 
BRANCH  24  29
ATOM     25  C   UNL     1      -2.812  -6.249  -4.761  0.00  0.00    +0.044 C 
ATOM     26  C   UNL     1      -2.139  -5.720  -3.521  0.00  0.00    -0.050 A 
ATOM     27  C   UNL     1      -2.566  -6.132  -2.273  0.00  0.00    +0.003 A 
ATOM     28  C   UNL     1      -1.948  -5.647  -1.135  0.00  0.00    +0.002 A 
ATOM     29  C   UNL     1      -0.902  -4.750  -1.247  0.00  0.00    -0.059 A 
ATOM     30  C   UNL     1      -0.474  -4.339  -2.495  0.00  0.00    +0.002 A 
ATOM     31  C   UNL     1      -1.089  -4.827  -3.632  0.00  0.00    +0.003 A 
ENDBRANCH  24  29
BRANCH  24  32
ATOM     32  N   UNL     1       0.065  -2.792  -0.182  0.00  0.00    +0.382 N 
ATOM     33  C   UNL     1      -1.182  -2.065  -0.455  0.00  0.00    -0.096 C 
ATOM     34  C   UNL     1       0.680  -2.265   1.044  0.00  0.00    -0.096 C 
ATOM     35  H   UNL     1       0.701  -2.672  -0.956  0.00  0.00    -0.082 HD
ENDBRANCH  24  32
ENDBRANCH  23  24
ENDBRANCH  19  23
ENDBRANCH   1  20
TORSDOF 7
