REMARK  Name = ZINC39379157
REMARK  8 active torsions:
REMARK  status: ('A' for Active; 'I' for Inactive)
REMARK    1  A    between atoms: C_1  and  C_2
REMARK    2  A    between atoms: C_2  and  C_4
REMARK    3  A    between atoms: C_2  and  O_31
REMARK    4  A    between atoms: N_6  and  C_7
REMARK    5  A    between atoms: C_10  and  C_13
REMARK    6  A    between atoms: C_19  and  C_23
REMARK    7  A    between atoms: C_23  and  C_25
REMARK    8  A    between atoms: O_31  and  C_32
REMARK                            x       y       z     vdW  Elec       q    Type
REMARK                         _______ _______ _______ _____ _____    ______ ____
ROOT
ATOM      1  C   UNL     1      -1.494  -0.442   2.776  0.00  0.00    +0.034 A 
ATOM      2  C   UNL     1      -0.108  -0.512   2.796  0.00  0.00    +0.024 A 
ATOM      3  C   UNL     1       0.555  -0.724   3.989  0.00  0.00    +0.009 A 
ATOM      4  C   UNL     1      -0.162  -0.866   5.163  0.00  0.00    -0.005 A 
ATOM      5  C   UNL     1      -1.542  -0.797   5.147  0.00  0.00    +0.009 A 
ATOM      6  C   UNL     1      -2.211  -0.579   3.958  0.00  0.00    +0.024 A 
ENDROOT
BRANCH   4   7
ATOM      7  C   UNL     1       0.565  -1.097   6.463  0.00  0.00    +0.206 C 
ATOM      8  N   UNL     1       1.863  -0.413   6.444  0.00  0.00    -0.360 N 
ATOM      9  C   UNL     1       1.862   0.456   7.415  0.00  0.00    +0.060 A 
ATOM     10  C   UNL     1       2.871   1.417   7.880  0.00  0.00    +0.028 A 
ATOM     11  C   UNL     1       2.607   2.215   8.931  0.00  0.00    +0.014 A 
ATOM     12  C   UNL     1       1.330   2.160   9.639  0.00  0.00    +0.024 A 
ATOM     13  C   UNL     1       0.344   1.296   9.270  0.00  0.00    +0.039 A 
ATOM     14  C   UNL     1       0.560   0.393   8.131  0.00  0.00    +0.061 A 
ATOM     15  N   UNL     1      -0.195  -0.513   7.575  0.00  0.00    -0.360 N 
ATOM     16  H   UNL     1      -1.094  -0.757   7.846  0.00  0.00    +0.162 HD
ATOM     17  H   UNL     1       2.589  -0.578   5.822  0.00  0.00    +0.162 HD
BRANCH  12  18
ATOM     18  C   UNL     1       1.104   3.064  10.786  0.00  0.00    +0.193 C 
ATOM     19  O   UNL     1       0.230   2.815  11.594  0.00  0.00    -0.287 OA
BRANCH  18  20
ATOM     20  C   UNL     1       1.940   4.271  10.952  0.00  0.00    +0.022 A 
ATOM     21  C   UNL     1       2.536   4.869   9.839  0.00  0.00    +0.012 A 
ATOM     22  C   UNL     1       3.315   5.996  10.001  0.00  0.00    +0.001 A 
ATOM     23  C   UNL     1       3.506   6.534  11.262  0.00  0.00    +0.000 A 
ATOM     24  C   UNL     1       2.918   5.946  12.368  0.00  0.00    +0.001 A 
ATOM     25  C   UNL     1       2.132   4.823  12.221  0.00  0.00    +0.012 A 
ENDBRANCH  18  20
ENDBRANCH  12  18
ENDBRANCH   4   7
BRANCH   1  28
ATOM     26  C   UNL     1      -3.311   0.487   1.553  0.00  0.00    +0.258 C 
ATOM     27  O   UNL     1      -3.706   1.023   2.567  0.00  0.00    -0.271 OA
ATOM     28  N   UNL     1      -2.169  -0.227   1.569  0.00  0.00    -0.282 N 
ATOM     29  H   UNL     1      -1.814  -0.593   0.743  0.00  0.00    +0.155 HD
BRANCH  26  31
ATOM     30  C   UNL     1      -4.629  -0.752  -0.143  0.00  0.00    +0.062 C 
ATOM     31  C   UNL     1      -4.099   0.621   0.275  0.00  0.00    +0.256 C 
BRANCH  31  32
ATOM     32  O   UNL     1      -5.196   1.512   0.482  0.00  0.00    -0.480 OA
BRANCH  32  33
ATOM     33  C   UNL     1      -5.610   2.241  -0.588  0.00  0.00    +0.122 A 
ATOM     34  C   UNL     1      -6.593   3.207  -0.433  0.00  0.00    +0.045 A 
ATOM     35  C   UNL     1      -7.011   3.946  -1.522  0.00  0.00    +0.004 A 
ATOM     36  C   UNL     1      -6.452   3.724  -2.766  0.00  0.00    +0.000 A 
ATOM     37  C   UNL     1      -5.472   2.761  -2.924  0.00  0.00    +0.004 A 
ATOM     38  C   UNL     1      -5.046   2.023  -1.837  0.00  0.00    +0.045 A 
ENDBRANCH  32  33
ENDBRANCH  31  32
ENDBRANCH  26  31
ENDBRANCH   1  28
TORSDOF 7
