REMARK  Name = ZINC63245225
REMARK  11 active torsions:
REMARK  status: ('A' for Active; 'I' for Inactive)
REMARK    1  A    between atoms: C_1  and  N_2
REMARK    2  A    between atoms: N_2  and  C_3
REMARK    3  A    between atoms: N_2  and  C_4
REMARK    4  A    between atoms: C_7  and  C_10
REMARK    5  A    between atoms: C_10  and  C_12
REMARK    6  A    between atoms: C_10  and  C_23
REMARK    7  A    between atoms: C_12  and  N_13
REMARK    8  A    between atoms: N_13  and  C_14
REMARK    9  A    between atoms: C_14  and  N_16
REMARK   10  A    between atoms: N_16  and  C_17
REMARK   11  A    between atoms: C_17  and  C_18
REMARK                            x       y       z     vdW  Elec       q    Type
REMARK                         _______ _______ _______ _____ _____    ______ ____
ROOT
ATOM      1  C   UNL     1      -0.006  -2.813  -4.924  0.00  0.00    +0.064 C 
ENDROOT
BRANCH   1   2
ATOM      2  C   UNL     1      -1.246  -2.457  -5.704  0.00  0.00    -0.033 C 
ATOM      3  C   UNL     1      -2.219  -3.301  -6.114  0.00  0.00    -0.000 A 
ATOM      4  C   UNL     1      -2.408  -4.749  -5.965  0.00  0.00    +0.010 A 
ATOM      5  C   UNL     1      -3.509  -5.326  -6.497  0.00  0.00    +0.001 A 
ATOM      6  C   UNL     1      -4.472  -4.578  -7.188  0.00  0.00    +0.002 A 
ATOM      7  C   UNL     1      -4.368  -3.244  -7.367  0.00  0.00    +0.026 A 
ATOM      8  C   UNL     1      -3.251  -2.533  -6.848  0.00  0.00    +0.043 A 
ATOM      9  N   UNL     1      -2.928  -1.264  -6.889  0.00  0.00    -0.380 N 
ATOM     10  C   UNL     1      -1.656  -1.081  -6.180  0.00  0.00    +0.145 C 
ATOM     11  H   UNL     1      -3.446  -0.561  -7.313  0.00  0.00    +0.160 HD
ENDBRANCH   1   2
BRANCH   1  15
ATOM     12  C   UNL     1       0.000  -0.696  -1.211  0.00  0.00    +0.029 A 
ATOM     13  C   UNL     1       0.013  -2.085  -1.221  0.00  0.00    +0.023 A 
ATOM     14  C   UNL     1       0.010  -2.766  -2.422  0.00  0.00    +0.006 A 
ATOM     15  C   UNL     1      -0.005  -2.066  -3.615  0.00  0.00    -0.039 A 
ATOM     16  C   UNL     1      -0.018  -0.684  -3.609  0.00  0.00    +0.006 A 
ATOM     17  C   UNL     1      -0.021   0.004  -2.411  0.00  0.00    +0.023 A 
BRANCH  12  19
ATOM     18  C   UNL     1      -0.018   1.461   0.010  0.00  0.00    +0.129 C 
ATOM     19  N   UNL     1       0.002  -0.004   0.002  0.00  0.00    -0.336 N 
ATOM     20  C   UNL     1       0.024  -0.743   1.267  0.00  0.00    +0.129 C 
ENDBRANCH  12  19
ENDBRANCH   1  15
BRANCH   1  21
ATOM     21  C   UNL     1       1.234  -2.427  -5.733  0.00  0.00    +0.115 C 
BRANCH  21  22
ATOM     22  N   UNL     1       1.295  -3.239  -6.951  0.00  0.00    -0.326 N 
ATOM     23  H   UNL     1       0.605  -3.897  -7.130  0.00  0.00    +0.148 HD
BRANCH  22  24
ATOM     24  C   UNL     1       2.309  -3.071  -7.822  0.00  0.00    +0.131 C 
ATOM     25  S   UNL     1       3.526  -1.909  -7.507  0.00  0.00    -0.019 S 
BRANCH  24  26
ATOM     26  N   UNL     1       2.365  -3.819  -8.943  0.00  0.00    -0.319 N 
ATOM     27  H   UNL     1       1.676  -4.477  -9.121  0.00  0.00    +0.148 HD
BRANCH  26  28
ATOM     28  C   UNL     1       3.468  -3.637  -9.890  0.00  0.00    +0.177 C 
BRANCH  28  29
ATOM     29  C   UNL     1       3.297  -4.586 -11.048  0.00  0.00    +0.122 A 
ATOM     30  C   UNL     1       2.631  -4.326 -12.187  0.00  0.00    +0.046 A 
ATOM     31  C   UNL     1       2.722  -5.486 -12.989  0.00  0.00    +0.041 A 
ATOM     32  C   UNL     1       3.439  -6.386 -12.293  0.00  0.00    +0.195 A 
ATOM     33  O   UNL     1       3.790  -5.833 -11.120  0.00  0.00    -0.466 OA
ENDBRANCH  28  29
ENDBRANCH  26  28
ENDBRANCH  24  26
ENDBRANCH  22  24
ENDBRANCH  21  22
ENDBRANCH   1  21
TORSDOF 9
