REMARK  Name = ZINC12468759
REMARK  12 active torsions:
REMARK  status: ('A' for Active; 'I' for Inactive)
REMARK    1  A    between atoms: C_1  and  C_2
REMARK    2  A    between atoms: C_5  and  N_9
REMARK    3  A    between atoms: C_6  and  C_8
REMARK    4  A    between atoms: N_9  and  C_10
REMARK    5  A    between atoms: C_10  and  N_12
REMARK    6  A    between atoms: N_12  and  C_13
REMARK    7  A    between atoms: N_12  and  C_17
REMARK    8  A    between atoms: C_13  and  C_14
REMARK    9  A    between atoms: C_14  and  N_63
REMARK   10  A    between atoms: C_15  and  N_63
REMARK   11  A    between atoms: C_16  and  N_63
REMARK   12  A    between atoms: C_17  and  C_18
REMARK                            x       y       z     vdW  Elec       q    Type
REMARK                         _______ _______ _______ _____ _____    ______ ____
ROOT
ATOM      1  N   UNL     1      -3.654   2.186  -0.175  0.00  0.00    -0.310 N 
ENDROOT
BRANCH   1   2
ATOM      2  C   UNL     1      -2.419   1.659  -0.054  0.00  0.00    +0.137 C 
ATOM      3  S   UNL     1      -2.212  -0.040  -0.032  0.00  0.00    -0.018 S 
BRANCH   2   4
ATOM      4  N   UNL     1      -1.347   2.470   0.049  0.00  0.00    -0.297 N 
ATOM      5  H   UNL     1      -1.469   3.431   0.097  0.00  0.00    +0.154 HD
BRANCH   4  10
ATOM      6  C   UNL     1       3.872   0.251   0.184  0.00  0.00    +0.044 C 
ATOM      7  C   UNL     1       2.486   0.841   0.149  0.00  0.00    -0.050 A 
ATOM      8  C   UNL     1       1.491   0.316   0.954  0.00  0.00    +0.005 A 
ATOM      9  C   UNL     1       0.220   0.854   0.924  0.00  0.00    +0.024 A 
ATOM     10  C   UNL     1      -0.059   1.925   0.085  0.00  0.00    +0.036 A 
ATOM     11  C   UNL     1       0.941   2.451  -0.722  0.00  0.00    -0.029 A 
ATOM     12  C   UNL     1       2.211   1.907  -0.687  0.00  0.00    +0.008 A 
ATOM     13  C   UNL     1       0.643   3.613  -1.634  0.00  0.00    +0.045 C 
ENDBRANCH   4  10
ENDBRANCH   2   4
ENDBRANCH   1   2
BRANCH   1  14
ATOM     14  C   UNL     1      -3.822   3.635  -0.310  0.00  0.00    +0.088 C 
BRANCH  14  15
ATOM     15  C   UNL     1      -3.792   4.016  -1.792  0.00  0.00    -0.060 C 
BRANCH  15  18
ATOM     16  C   UNL     1      -2.812   6.187  -1.359  0.00  0.00    -0.097 C 
ATOM     17  C   UNL     1      -4.175   5.845  -3.331  0.00  0.00    -0.097 C 
ATOM     18  N   UNL     1      -3.984   5.476  -1.913  0.00  0.00    +0.377 N 
ATOM     19  H   UNL     1      -4.820   5.748  -1.382  0.00  0.00    -0.083 HD
ENDBRANCH  15  18
ENDBRANCH  14  15
ENDBRANCH   1  14
BRANCH   1  20
ATOM     20  C   UNL     1      -4.828   1.310  -0.172  0.00  0.00    +0.147 C 
BRANCH  20  21
ATOM     21  C   UNL     1      -5.255   1.048   1.250  0.00  0.00    +0.035 A 
ATOM     22  C   UNL     1      -4.852  -0.086   1.879  0.00  0.00    +0.020 A 
ATOM     23  C   UNL     1      -5.278  -0.308   3.260  0.00  0.00    +0.003 A 
ATOM     24  C   UNL     1      -4.890  -1.457   3.960  0.00  0.00    +0.059 A 
ATOM     25  C   UNL     1      -5.311  -1.642   5.260  0.00  0.00    +0.163 A 
ATOM     26  C   UNL     1      -6.124  -0.688   5.879  0.00  0.00    +0.164 A 
ATOM     27  C   UNL     1      -6.513   0.451   5.194  0.00  0.00    +0.075 A 
ATOM     28  C   UNL     1      -6.098   0.652   3.885  0.00  0.00    +0.053 A 
ATOM     29  N   UNL     1      -6.477   1.781   3.187  0.00  0.00    -0.322 N 
ATOM     30  H   UNL     1      -7.042   2.441   3.617  0.00  0.00    +0.169 HD
ATOM     31  C   UNL     1      -6.075   1.978   1.919  0.00  0.00    +0.254 A 
ATOM     32  O   UNL     1      -6.430   2.987   1.333  0.00  0.00    -0.268 OA
ATOM     33  O   UNL     1      -6.541  -0.861   7.162  0.00  0.00    -0.485 OA
ATOM     34  C   UNL     1      -6.445  -2.185   7.698  0.00  0.00    +0.270 C 
ATOM     35  C   UNL     1      -5.059  -2.745   7.352  0.00  0.00    +0.270 C 
ATOM     36  O   UNL     1      -4.928  -2.766   5.926  0.00  0.00    -0.485 OA
ENDBRANCH  20  21
ENDBRANCH   1  20
TORSDOF 8
