REMARK  Name = ZINC48798162
REMARK  10 active torsions:
REMARK  status: ('A' for Active; 'I' for Inactive)
REMARK    1  A    between atoms: C_1  and  C_2
REMARK    2  A    between atoms: C_2  and  C_3
REMARK    3  A    between atoms: C_3  and  C_5
REMARK    4  A    between atoms: C_3  and  N_22
REMARK    5  A    between atoms: C_5  and  C_6
REMARK    6  A    between atoms: C_11  and  O_12
REMARK    7  A    between atoms: O_12  and  C_13
REMARK    8  A    between atoms: C_13  and  C_14
REMARK    9  A    between atoms: N_16  and  C_17
REMARK   10  A    between atoms: C_17  and  C_18
REMARK                            x       y       z     vdW  Elec       q    Type
REMARK                         _______ _______ _______ _____ _____    ______ ____
ROOT
ATOM      1  C   UNL     1      -2.824  -2.571   0.265  0.00  0.00    -0.006 A 
ATOM      2  C   UNL     1      -3.358  -2.806   1.517  0.00  0.00    +0.007 A 
ATOM      3  C   UNL     1      -4.652  -3.276   1.641  0.00  0.00    +0.002 A 
ATOM      4  C   UNL     1      -5.417  -3.511   0.513  0.00  0.00    +0.019 A 
ATOM      5  C   UNL     1      -4.888  -3.278  -0.742  0.00  0.00    +0.060 A 
ATOM      6  C   UNL     1      -3.590  -2.801  -0.869  0.00  0.00    +0.138 A 
ATOM      7 BR   UNL     1      -5.932  -3.601  -2.285  0.00  0.00    -0.047 Br
ENDROOT
BRANCH   1   8
ATOM      8  C   UNL     1      -1.413  -2.059   0.130  0.00  0.00    +0.022 C 
BRANCH   8   9
ATOM      9  C   UNL     1      -1.433  -0.534   0.013  0.00  0.00    -0.071 C 
BRANCH   9  10
ATOM     10  N   UNL     1      -2.107  -0.147  -1.234  0.00  0.00    +0.380 N 
ATOM     11  H   UNL     1      -1.610  -0.539  -2.020  0.00  0.00    -0.090 HD
ATOM     12  H   UNL     1      -3.054  -0.496  -1.227  0.00  0.00    -0.090 HD
ATOM     13  H   UNL     1      -2.120   0.859  -1.311  0.00  0.00    -0.090 HD
ENDBRANCH   9  10
BRANCH   9  15
ATOM     14  C   UNL     1      -0.019   1.526   0.010  0.00  0.00    +0.002 C 
ATOM     15  C   UNL     1       0.002  -0.004   0.002  0.00  0.00    -0.019 C 
ENDBRANCH   9  15
ENDBRANCH   8   9
ENDBRANCH   1   8
BRANCH   6  16
ATOM     16  O   UNL     1      -3.068  -2.566  -2.102  0.00  0.00    -0.481 OA
BRANCH  16  17
ATOM     17  C   UNL     1      -2.389  -3.651  -2.737  0.00  0.00    +0.324 C 
BRANCH  17  18
ATOM     18  C   UNL     1      -1.883  -3.206  -4.085  0.00  0.00    +0.251 C 
ATOM     19  O   UNL     1      -2.084  -2.071  -4.464  0.00  0.00    -0.272 OA
ATOM     20  N   UNL     1      -1.208  -4.069  -4.870  0.00  0.00    -0.312 N 
ATOM     21  H   UNL     1      -1.047  -4.976  -4.566  0.00  0.00    +0.149 HD
BRANCH  20  22
ATOM     22  C   UNL     1      -0.715  -3.636  -6.180  0.00  0.00    +0.107 C 
BRANCH  22  23
ATOM     23  C   UNL     1       0.011  -4.798  -6.861  0.00  0.00    +0.006 C 
ATOM     24  C   UNL     1       1.506  -4.628  -7.142  0.00  0.00    +0.005 C 
ATOM     25  C   UNL     1       0.500  -4.582  -8.294  0.00  0.00    +0.005 C 
ENDBRANCH  22  23
ENDBRANCH  20  22
ENDBRANCH  17  18
ENDBRANCH  16  17
ENDBRANCH   6  16
TORSDOF 9
