REMARK  Name = ZINC53547976
REMARK  7 active torsions:
REMARK  status: ('A' for Active; 'I' for Inactive)
REMARK    1  A    between atoms: C_1  and  C_2
REMARK    2  A    between atoms: C_2  and  C_4
REMARK    3  A    between atoms: C_2  and  N_14
REMARK    4  A    between atoms: N_17  and  C_18
REMARK    5  A    between atoms: C_18  and  C_19
REMARK    6  A    between atoms: C_19  and  C_21
REMARK    7  A    between atoms: C_19  and  N_26
REMARK                            x       y       z     vdW  Elec       q    Type
REMARK                         _______ _______ _______ _____ _____    ______ ____
ROOT
ATOM      1  N   UNL     1       0.720  -0.409   1.211  0.00  0.00    -0.293 N 
ATOM      2  C   UNL     1       2.068  -0.408   1.243  0.00  0.00    +0.300 C 
ATOM      3  O   UNL     1       2.697   0.110   0.342  0.00  0.00    -0.253 OA
ATOM      4  N   UNL     1       2.717  -0.982   2.276  0.00  0.00    -0.301 N 
ATOM      5  H   UNL     1       0.218  -0.822   1.930  0.00  0.00    +0.151 HD
ATOM      6  H   UNL     1       2.215  -1.396   2.995  0.00  0.00    +0.150 HD
ENDROOT
BRANCH   1   8
ATOM      7  C   UNL     1      -0.139   1.714   0.353  0.00  0.00    +0.033 C 
ATOM      8  C   UNL     1       0.014   0.215   0.089  0.00  0.00    +0.102 C 
BRANCH   8   9
ATOM      9  C   UNL     1      -1.349  -0.411  -0.058  0.00  0.00    -0.024 A 
ATOM     10  C   UNL     1      -2.093  -0.714   1.067  0.00  0.00    +0.009 A 
ATOM     11  C   UNL     1      -3.343  -1.290   0.937  0.00  0.00    +0.050 A 
ATOM     12  C   UNL     1      -3.854  -1.564  -0.323  0.00  0.00    +0.162 A 
ATOM     13  C   UNL     1      -3.106  -1.257  -1.454  0.00  0.00    +0.162 A 
ATOM     14  C   UNL     1      -1.854  -0.676  -1.316  0.00  0.00    +0.055 A 
ATOM     15  O   UNL     1      -3.592  -1.511  -2.700  0.00  0.00    -0.485 OA
ATOM     16  C   UNL     1      -4.689  -2.427  -2.789  0.00  0.00    +0.270 C 
ATOM     17  C   UNL     1      -5.719  -2.049  -1.716  0.00  0.00    +0.270 C 
ATOM     18  O   UNL     1      -5.084  -2.135  -0.436  0.00  0.00    -0.485 OA
ENDBRANCH   8   9
ENDBRANCH   1   8
BRANCH   4  19
ATOM     19  C   UNL     1       4.181  -0.982   2.311  0.00  0.00    +0.095 C 
BRANCH  19  20
ATOM     20  C   UNL     1       4.660  -1.572   3.639  0.00  0.00    -0.013 C 
BRANCH  20  21
ATOM     21  N   UNL     1       6.124  -1.692   3.623  0.00  0.00    +0.386 N 
ATOM     22  C   UNL     1       6.604  -2.283   4.898  0.00  0.00    -0.078 C 
ATOM     23  C   UNL     1       7.995  -2.853   4.524  0.00  0.00    -0.020 C 
ATOM     24  C   UNL     1       7.774  -3.393   3.092  0.00  0.00    -0.020 C 
ATOM     25  C   UNL     1       6.546  -2.630   2.560  0.00  0.00    -0.078 C 
ATOM     26  H   UNL     1       6.546  -0.787   3.477  0.00  0.00    -0.081 HD
ENDBRANCH  20  21
BRANCH  20  27
ATOM     27  C   UNL     1       4.243  -0.667   4.770  0.00  0.00    -0.022 A 
ATOM     28  C   UNL     1       3.197  -0.793   5.623  0.00  0.00    +0.009 A 
ATOM     29  C   UNL     1       3.006   0.170   6.596  0.00  0.00    +0.008 A 
ATOM     30  C   UNL     1       3.870   1.212   6.669  0.00  0.00    +0.045 A 
ATOM     31  S   UNL     1       5.003   0.845   5.339  0.00  0.00    -0.103 S 
ENDBRANCH  20  27
ENDBRANCH  19  20
ENDBRANCH   4  19
TORSDOF 6
