REMARK  Name = ZINC06300890
REMARK  13 active torsions:
REMARK  status: ('A' for Active; 'I' for Inactive)
REMARK    1  A    between atoms: C_1  and  C_2
REMARK    2  A    between atoms: C_4  and  C_40
REMARK    3  A    between atoms: C_9  and  C_14
REMARK    4  A    between atoms: C_14  and  C_16
REMARK    5  A    between atoms: C_14  and  N_73
REMARK    6  A    between atoms: N_20  and  C_21
REMARK    7  A    between atoms: C_21  and  C_22
REMARK    8  A    between atoms: C_21  and  C_23
REMARK    9  A    between atoms: C_21  and  C_24
REMARK   10  A    between atoms: C_25  and  C_26
REMARK   11  A    between atoms: C_25  and  N_73
REMARK   12  A    between atoms: C_33  and  C_34
REMARK   13  A    between atoms: C_33  and  N_73
REMARK                            x       y       z     vdW  Elec       q    Type
REMARK                         _______ _______ _______ _____ _____    ______ ____
ROOT
ATOM      1  C   UNL     1      -0.329  -1.505   1.854  0.00  0.00    +0.039 C 
ENDROOT
BRANCH   1  10
ATOM      2  C   UNL     1      -4.920  -3.290   7.453  0.00  0.00    +0.044 C 
ATOM      3  C   UNL     1      -3.535  -3.015   6.926  0.00  0.00    -0.050 A 
ATOM      4  C   UNL     1      -2.446  -3.088   7.783  0.00  0.00    +0.008 A 
ATOM      5  C   UNL     1      -1.171  -2.841   7.323  0.00  0.00    -0.026 A 
ATOM      6  C   UNL     1      -0.971  -2.514   5.985  0.00  0.00    +0.052 A 
ATOM      7  C   UNL     1      -2.078  -2.442   5.119  0.00  0.00    -0.001 A 
ATOM      8  C   UNL     1      -3.364  -2.697   5.609  0.00  0.00    +0.013 A 
ATOM      9  C   UNL     1      -1.858  -2.098   3.713  0.00  0.00    +0.017 A 
ATOM     10  C   UNL     1      -0.590  -1.861   3.295  0.00  0.00    +0.011 A 
ATOM     11  C   UNL     1       0.486  -1.953   4.203  0.00  0.00    +0.251 A 
ATOM     12  O   UNL     1       1.619  -1.741   3.806  0.00  0.00    -0.268 OA
ATOM     13  N   UNL     1       0.293  -2.263   5.497  0.00  0.00    -0.322 N 
ATOM     14  H   UNL     1       1.055  -2.313   6.096  0.00  0.00    +0.169 HD
ATOM     15  C   UNL     1       0.003  -2.923   8.264  0.00  0.00    +0.046 C 
ENDBRANCH   1  10
BRANCH   1  16
ATOM     16  C   UNL     1       0.758  -2.393   1.306  0.00  0.00    +0.143 A 
ATOM     17  N   UNL     1       1.785  -2.871   1.966  0.00  0.00    -0.115 NA
ATOM     18  N   UNL     1       2.483  -3.586   1.153  0.00  0.00    -0.023 NA
ATOM     19  N   UNL     1       1.932  -3.570  -0.011  0.00  0.00    -0.043 NA
ATOM     20  N   UNL     1       0.867  -2.845   0.043  0.00  0.00    -0.225 N 
BRANCH  20  21
ATOM     21  C   UNL     1      -0.053  -2.565  -1.063  0.00  0.00    +0.059 C 
ATOM     22  C   UNL     1      -0.234  -1.053  -1.205  0.00  0.00    +0.036 C 
ATOM     23  C   UNL     1       0.523  -3.134  -2.361  0.00  0.00    +0.036 C 
ATOM     24  C   UNL     1      -1.407  -3.216  -0.776  0.00  0.00    +0.036 C 
ENDBRANCH  20  21
ENDBRANCH   1  16
BRANCH   1  25
ATOM     25  N   UNL     1       0.091  -0.092   1.740  0.00  0.00    +0.394 N 
ATOM     26  H   UNL     1      -0.068   0.226   0.776  0.00  0.00    -0.080 HD
BRANCH  25  27
ATOM     27  C   UNL     1       1.529   0.035   2.056  0.00  0.00    -0.041 C 
BRANCH  27  28
ATOM     28  C   UNL     1       2.061   1.278   1.390  0.00  0.00    -0.064 A 
ATOM     29  C   UNL     1       2.568   1.210   0.106  0.00  0.00    +0.003 A 
ATOM     30  C   UNL     1       3.050   2.351  -0.508  0.00  0.00    +0.020 A 
ATOM     31  C   UNL     1       3.036   3.559   0.168  0.00  0.00    +0.041 A 
ATOM     32  C   UNL     1       2.533   3.624   1.455  0.00  0.00    +0.020 A 
ATOM     33  C   UNL     1       2.046   2.484   2.066  0.00  0.00    +0.003 A 
ATOM     34 CL   UNL     1       3.648   4.990  -0.599  0.00  0.00    -0.084 Cl
ENDBRANCH  27  28
ENDBRANCH  25  27
BRANCH  25  35
ATOM     35  C   UNL     1      -0.705   0.748   2.659  0.00  0.00    -0.045 C 
BRANCH  35  36
ATOM     36  C   UNL     1      -2.124   0.877   2.103  0.00  0.00    +0.102 C 
ATOM     37  C   UNL     1      -3.014   1.679   3.079  0.00  0.00    +0.032 C 
ATOM     38  C   UNL     1      -4.390   0.983   2.990  0.00  0.00    +0.030 C 
ATOM     39  C   UNL     1      -4.170  -0.157   1.971  0.00  0.00    +0.160 C 
ATOM     40  O   UNL     1      -2.749  -0.421   2.012  0.00  0.00    -0.378 OA
ENDBRANCH  35  36
ENDBRANCH  25  35
ENDBRANCH   1  25
TORSDOF 8
