REMARK  Name = ZINC39481733
REMARK  9 active torsions:
REMARK  status: ('A' for Active; 'I' for Inactive)
REMARK    1  A    between atoms: C_1  and  C_2
REMARK    2  A    between atoms: C_2  and  C_3
REMARK    3  A    between atoms: C_2  and  C_4
REMARK    4  A    between atoms: C_4  and  C_5
REMARK    5  A    between atoms: C_8  and  N_19
REMARK    6  A    between atoms: C_9  and  N_11
REMARK    7  A    between atoms: N_19  and  S_20
REMARK    8  A    between atoms: S_20  and  S_23
REMARK    9  A    between atoms: S_23  and  C_26
REMARK                            x       y       z     vdW  Elec       q    Type
REMARK                         _______ _______ _______ _____ _____    ______ ____
ROOT
ATOM      1  C   UNL     1      -2.125  -0.137  -1.266  0.00  0.00    -0.045 A 
ATOM      2  C   UNL     1      -2.807   1.063  -1.337  0.00  0.00    +0.005 A 
ATOM      3  C   UNL     1      -3.444   1.433  -2.508  0.00  0.00    +0.029 A 
ATOM      4  C   UNL     1      -3.398   0.599  -3.615  0.00  0.00    +0.097 A 
ATOM      5  C   UNL     1      -2.709  -0.612  -3.543  0.00  0.00    +0.055 A 
ATOM      6  C   UNL     1      -2.070  -0.972  -2.367  0.00  0.00    +0.028 A 
ENDROOT
BRANCH   5   7
ATOM      7  N   UNL     1      -2.660  -1.459  -4.657  0.00  0.00    -0.325 N 
ATOM      8  C   UNL     1      -1.577  -1.343  -5.646  0.00  0.00    +0.120 C 
ATOM      9  C   UNL     1      -2.201  -1.248  -7.042  0.00  0.00    +0.101 C 
ATOM     10  N   UNL     1      -3.111  -2.383  -7.247  0.00  0.00    -0.298 NA
ATOM     11  C   UNL     1      -4.230  -2.347  -6.297  0.00  0.00    +0.164 C 
ATOM     12  C   UNL     1      -3.686  -2.491  -4.867  0.00  0.00    +0.140 C 
ATOM     13 CL   UNL     1      -5.362  -3.706  -6.648  0.00  0.00    -0.103 Cl
ATOM     14  H   UNL     1      -3.445  -2.412  -8.199  0.00  0.00    +0.123 HD
ENDBRANCH   5   7
BRANCH   1  15
ATOM     15  C   UNL     1      -1.433  -0.534   0.013  0.00  0.00    +0.038 C 
BRANCH  15  17
ATOM     16  C   UNL     1      -0.019   1.526   0.010  0.00  0.00    +0.007 C 
ATOM     17  C   UNL     1       0.002  -0.004   0.002  0.00  0.00    -0.013 C 
ATOM     18  C   UNL     1       0.742  -0.511   1.242  0.00  0.00    +0.007 C 
ENDBRANCH  15  17
ENDBRANCH   1  15
BRANCH   4  19
ATOM     19  N   UNL     1      -4.042   0.971  -4.801  0.00  0.00    -0.079 NA
BRANCH  19  20
ATOM     20  S   UNL     1      -4.860   2.409  -4.883  0.00  0.00    +0.191 S 
ATOM     21  O   UNL     1      -5.964   2.300  -3.995  0.00  0.00    -0.130 OA
ATOM     22  O   UNL     1      -3.886   3.437  -4.766  0.00  0.00    -0.130 OA
BRANCH  20  23
ATOM     23  S   UNL     1      -5.641   2.554  -6.773  0.00  0.00    +0.133 S 
ATOM     24  O   UNL     1      -4.538   2.663  -7.662  0.00  0.00    -0.146 OA
ATOM     25  O   UNL     1      -6.615   1.526  -6.890  0.00  0.00    -0.146 OA
BRANCH  23  26
ATOM     26  C   UNL     1      -6.511   4.084  -6.861  0.00  0.00    +0.114 A 
ATOM     27  C   UNL     1      -7.850   4.138  -6.519  0.00  0.00    +0.029 A 
ATOM     28  C   UNL     1      -8.532   5.338  -6.588  0.00  0.00    +0.002 A 
ATOM     29  C   UNL     1      -7.876   6.484  -6.998  0.00  0.00    +0.000 A 
ATOM     30  C   UNL     1      -6.538   6.430  -7.339  0.00  0.00    +0.002 A 
ATOM     31  C   UNL     1      -5.854   5.231  -7.266  0.00  0.00    +0.029 A 
ENDBRANCH  23  26
ENDBRANCH  20  23
ENDBRANCH  19  20
ENDBRANCH   4  19
TORSDOF 7
