REMARK  Name = ZINC31580677
REMARK  11 active torsions:
REMARK  status: ('A' for Active; 'I' for Inactive)
REMARK    1  A    between atoms: C_1  and  C_2
REMARK    2  A    between atoms: C_2  and  O_3
REMARK    3  A    between atoms: O_3  and  C_4
REMARK    4  A    between atoms: C_4  and  C_6
REMARK    5  A    between atoms: N_12  and  C_13
REMARK    6  A    between atoms: C_13  and  C_14
REMARK    7  A    between atoms: N_16  and  C_17
REMARK    8  A    between atoms: C_18  and  C_31
REMARK    9  A    between atoms: C_19  and  C_30
REMARK   10  A    between atoms: C_20  and  C_29
REMARK   11  A    between atoms: N_21  and  C_22
REMARK                            x       y       z     vdW  Elec       q    Type
REMARK                         _______ _______ _______ _____ _____    ______ ____
ROOT
ATOM      1  C   UNL     1       0.764   0.134   0.050  0.00  0.00    +0.202 C 
ATOM      2  O   UNL     1       1.141  -0.918  -0.421  0.00  0.00    -0.278 OA
ATOM      3  N   UNL     1      -0.245   0.149   0.944  0.00  0.00    -0.272 N 
ATOM      4  H   UNL     1      -0.526   1.090   1.440  0.00  0.00    +0.156 HD
ENDROOT
BRANCH   3   5
ATOM      5  C   UNL     1      -0.929  -1.021   1.238  0.00  0.00    +0.128 A 
ATOM      6  C   UNL     1      -0.356  -2.258   1.498  0.00  0.00    +0.095 A 
ATOM      7  C   UNL     1      -1.474  -3.176   1.752  0.00  0.00    -0.010 A 
ATOM      8  C   UNL     1      -2.601  -2.456   1.633  0.00  0.00    +0.027 A 
ATOM      9  N   UNL     1      -2.279  -1.158   1.330  0.00  0.00    -0.300 N 
ATOM     10  C   UNL     1      -3.999  -2.989   1.810  0.00  0.00    +0.064 C 
ATOM     11  C   UNL     1      -1.375  -4.643   2.083  0.00  0.00    +0.047 C 
BRANCH   9  12
ATOM     12  C   UNL     1      -3.206  -0.125   1.138  0.00  0.00    +0.051 A 
ATOM     13  C   UNL     1      -3.984   0.318   2.201  0.00  0.00    +0.026 A 
ATOM     14  C   UNL     1      -4.894   1.339   2.012  0.00  0.00    +0.005 A 
ATOM     15  C   UNL     1      -5.039   1.916   0.763  0.00  0.00    +0.038 A 
ATOM     16  C   UNL     1      -4.269   1.474  -0.300  0.00  0.00    +0.125 A 
ATOM     17  C   UNL     1      -3.353   0.455  -0.114  0.00  0.00    +0.064 A 
ATOM     18  F   UNL     1      -4.414   2.039  -1.519  0.00  0.00    -0.205 F 
ENDBRANCH   9  12
BRANCH   6  19
ATOM     19  C   UNL     1       1.040  -2.575   1.515  0.00  0.00    +0.103 C 
ATOM     20  N   UNL     1       2.148  -2.826   1.528  0.00  0.00    -0.191 NA
ENDBRANCH   6  19
ENDBRANCH   3   5
BRANCH   1  21
ATOM     21  C   UNL     1       1.419   1.425  -0.369  0.00  0.00    +0.020 C 
BRANCH  21  27
ATOM     22  C   UNL     1       3.458   2.228  -1.389  0.00  0.00    +0.053 C 
ATOM     23  C   UNL     1       4.755   1.732  -2.042  0.00  0.00    +0.065 C 
ATOM     24  S   UNL     1       4.378   1.221  -3.747  0.00  0.00    -0.164 S 
ATOM     25  C   UNL     1       2.945   0.121  -3.529  0.00  0.00    +0.050 C 
ATOM     26  C   UNL     1       1.907   0.846  -2.665  0.00  0.00    -0.066 C 
ATOM     27  N   UNL     1       2.477   1.141  -1.348  0.00  0.00    +0.395 N 
ATOM     28  H   UNL     1       3.019   0.239  -1.030  0.00  0.00    -0.080 HD
BRANCH  22  29
ATOM     29  C   UNL     1       3.750   2.692   0.014  0.00  0.00    +0.294 C 
ATOM     30  O   UNL     1       3.813   1.890   0.916  0.00  0.00    -0.253 OA
BRANCH  29  31
ATOM     31  O   UNL     1       3.941   3.998   0.263  0.00  0.00    -0.466 OA
BRANCH  31  33
ATOM     32  C   UNL     1       4.404   5.889   1.725  0.00  0.00    +0.048 C 
ATOM     33  C   UNL     1       4.217   4.373   1.638  0.00  0.00    +0.228 C 
ENDBRANCH  31  33
ENDBRANCH  29  31
ENDBRANCH  22  29
ENDBRANCH  21  27
ENDBRANCH   1  21
TORSDOF 8
