REMARK  Name = ZINC40899044
REMARK  13 active torsions:
REMARK  status: ('A' for Active; 'I' for Inactive)
REMARK    1  A    between atoms: C_1  and  C_2
REMARK    2  A    between atoms: C_2  and  O_3
REMARK    3  A    between atoms: O_3  and  C_4
REMARK    4  A    between atoms: C_4  and  C_6
REMARK    5  A    between atoms: C_7  and  C_27
REMARK    6  A    between atoms: C_10  and  N_11
REMARK    7  A    between atoms: N_11  and  C_12
REMARK    8  A    between atoms: C_12  and  N_14
REMARK    9  A    between atoms: C_15  and  C_17
REMARK   10  A    between atoms: C_17  and  O_18
REMARK   11  A    between atoms: O_18  and  C_19
REMARK   12  A    between atoms: C_21  and  C_26
REMARK   13  A    between atoms: C_24  and  C_25
REMARK                            x       y       z     vdW  Elec       q    Type
REMARK                         _______ _______ _______ _____ _____    ______ ____
ROOT
ATOM      1  N   UNL     1      -0.596  -2.458  -3.930  0.00  0.00    -0.290 N 
ATOM      2  H   UNL     1      -1.175  -2.103  -3.237  0.00  0.00    +0.154 HD
ENDROOT
BRANCH   1   7
ATOM      3  C   UNL     1       1.448  -2.344  -2.515  0.00  0.00    +0.095 A 
ATOM      4  C   UNL     1       2.874  -2.622  -2.522  0.00  0.00    +0.005 A 
ATOM      5  C   UNL     1       3.364  -3.124  -3.684  0.00  0.00    +0.056 A 
ATOM      6  S   UNL     1       1.927  -3.214  -4.730  0.00  0.00    -0.080 S 
ATOM      7  C   UNL     1       0.756  -2.626  -3.683  0.00  0.00    +0.086 A 
BRANCH   4   8
ATOM      8  C   UNL     1       3.735  -2.373  -1.341  0.00  0.00    -0.016 A 
ATOM      9  C   UNL     1       3.687  -1.142  -0.687  0.00  0.00    +0.010 A 
ATOM     10  C   UNL     1       4.490  -0.916   0.412  0.00  0.00    +0.020 A 
ATOM     11  C   UNL     1       5.343  -1.908   0.865  0.00  0.00    +0.041 A 
ATOM     12  C   UNL     1       5.395  -3.132   0.219  0.00  0.00    +0.020 A 
ATOM     13  C   UNL     1       4.591  -3.371  -0.877  0.00  0.00    +0.010 A 
ATOM     14 CL   UNL     1       6.351  -1.617   2.248  0.00  0.00    -0.084 Cl
ENDBRANCH   4   8
BRANCH   3  15
ATOM     15  C   UNL     1       0.776  -1.800  -1.335  0.00  0.00    +0.342 C 
ATOM     16  O   UNL     1       0.312  -2.552  -0.499  0.00  0.00    -0.245 OA
BRANCH  15  17
ATOM     17  O   UNL     1       0.671  -0.465  -1.174  0.00  0.00    -0.461 OA
BRANCH  17  19
ATOM     18  C   UNL     1      -0.019   1.526   0.010  0.00  0.00    +0.048 C 
ATOM     19  C   UNL     1       0.002  -0.004   0.002  0.00  0.00    +0.229 C 
ENDBRANCH  17  19
ENDBRANCH  15  17
ENDBRANCH   3  15
ENDBRANCH   1   7
BRANCH   1  20
ATOM     20  C   UNL     1      -1.107  -2.786  -5.133  0.00  0.00    +0.141 C 
ATOM     21  S   UNL     1      -0.084  -3.412  -6.355  0.00  0.00    -0.018 S 
BRANCH  20  22
ATOM     22  N   UNL     1      -2.423  -2.623  -5.374  0.00  0.00    -0.265 N 
ATOM     23  C   UNL     1      -2.934  -2.951  -6.577  0.00  0.00    +0.256 C 
ATOM     24  O   UNL     1      -2.210  -3.394  -7.442  0.00  0.00    -0.272 OA
ATOM     25  H   UNL     1      -3.002  -2.268  -4.681  0.00  0.00    +0.157 HD
BRANCH  23  26
ATOM     26  C   UNL     1      -4.405  -2.769  -6.846  0.00  0.00    +0.325 C 
BRANCH  26  27
ATOM     27  O   UNL     1      -4.701  -3.185  -8.181  0.00  0.00    -0.482 OA
BRANCH  27  28
ATOM     28  C   UNL     1      -5.994  -3.084  -8.586  0.00  0.00    +0.124 A 
ATOM     29  C   UNL     1      -6.957  -2.589  -7.719  0.00  0.00    +0.049 A 
ATOM     30  C   UNL     1      -8.271  -2.487  -8.134  0.00  0.00    -0.047 A 
ATOM     31  C   UNL     1      -8.626  -2.877  -9.412  0.00  0.00    +0.004 A 
ATOM     32  C   UNL     1      -7.668  -3.371 -10.278  0.00  0.00    +0.007 A 
ATOM     33  C   UNL     1      -6.351  -3.470  -9.870  0.00  0.00    -0.009 A 
ATOM     34  C   UNL     1      -5.306  -4.002 -10.816  0.00  0.00    +0.047 C 
ATOM     35  C   UNL     1      -9.318  -1.950  -7.193  0.00  0.00    +0.044 C 
ENDBRANCH  27  28
ENDBRANCH  26  27
ENDBRANCH  23  26
ENDBRANCH  20  22
ENDBRANCH   1  20
TORSDOF 10
