REMARK  Name = ZINC40363390
REMARK  9 active torsions:
REMARK  status: ('A' for Active; 'I' for Inactive)
REMARK    1  A    between atoms: C_1  and  C_2
REMARK    2  A    between atoms: C_2  and  C_3
REMARK    3  A    between atoms: C_2  and  N_4
REMARK    4  A    between atoms: N_4  and  C_5
REMARK    5  A    between atoms: C_5  and  C_6
REMARK    6  A    between atoms: C_20  and  C_22
REMARK    7  A    between atoms: N_30  and  C_31
REMARK    8  A    between atoms: C_36  and  O_37
REMARK    9  A    between atoms: O_37  and  C_38
REMARK                            x       y       z     vdW  Elec       q    Type
REMARK                         _______ _______ _______ _____ _____    ______ ____
ROOT
ATOM      1  C   UNL     1      -2.159  -2.356  -1.237  0.00  0.00    +0.238 C 
ATOM      2  O   UNL     1      -1.906  -2.841  -0.155  0.00  0.00    -0.273 OA
ATOM      3  N   UNL     1      -2.516  -3.151  -2.266  0.00  0.00    -0.255 N 
ATOM      4  C   UNL     1      -2.694  -4.526  -2.058  0.00  0.00    +0.061 A 
ATOM      5  C   UNL     1      -1.979  -5.188  -1.073  0.00  0.00    +0.025 A 
ATOM      6  C   UNL     1      -2.172  -6.542  -0.872  0.00  0.00    +0.002 A 
ATOM      7  C   UNL     1      -3.077  -7.243  -1.649  0.00  0.00    +0.002 A 
ATOM      8  C   UNL     1      -3.792  -6.593  -2.639  0.00  0.00    +0.028 A 
ATOM      9  C   UNL     1      -3.600  -5.241  -2.848  0.00  0.00    +0.068 A 
ATOM     10  N   UNL     1      -4.282  -4.544  -3.856  0.00  0.00    -0.316 N 
ATOM     11  C   UNL     1      -5.354  -4.910  -4.599  0.00  0.00    +0.092 A 
ATOM     12  C   UNL     1      -5.651  -3.893  -5.439  0.00  0.00    +0.020 A 
ATOM     13  C   UNL     1      -4.720  -2.858  -5.202  0.00  0.00    +0.025 A 
ATOM     14  C   UNL     1      -3.895  -3.277  -4.236  0.00  0.00    +0.049 A 
ATOM     15  C   UNL     1      -2.723  -2.573  -3.604  0.00  0.00    +0.159 C 
ENDROOT
BRANCH  15  16
ATOM     16  C   UNL     1      -1.492  -2.783  -4.447  0.00  0.00    -0.021 A 
ATOM     17  C   UNL     1      -0.806  -3.981  -4.383  0.00  0.00    +0.006 A 
ATOM     18  C   UNL     1       0.324  -4.174  -5.156  0.00  0.00    +0.000 A 
ATOM     19  C   UNL     1       0.767  -3.168  -5.994  0.00  0.00    +0.000 A 
ATOM     20  C   UNL     1       0.081  -1.969  -6.059  0.00  0.00    +0.000 A 
ATOM     21  C   UNL     1      -1.051  -1.779  -5.289  0.00  0.00    +0.006 A 
ENDBRANCH  15  16
BRANCH   1  22
ATOM     22  C   UNL     1      -2.076  -0.864  -1.432  0.00  0.00    +0.205 C 
BRANCH  22  23
ATOM     23  N   UNL     1      -1.541  -0.242  -0.218  0.00  0.00    -0.274 N 
ATOM     24  C   UNL     1      -2.379   0.159   0.758  0.00  0.00    +0.307 C 
ATOM     25  O   UNL     1      -3.581   0.089   0.595  0.00  0.00    -0.252 OA
ATOM     26  N   UNL     1      -1.883   0.638   1.917  0.00  0.00    -0.266 N 
ATOM     27  H   UNL     1      -0.926   0.757   2.022  0.00  0.00    +0.156 HD
BRANCH  26  28
ATOM     28  C   UNL     1      -2.750   0.965   2.968  0.00  0.00    +0.077 A 
ATOM     29  C   UNL     1      -4.044   0.465   2.983  0.00  0.00    +0.027 A 
ATOM     30  C   UNL     1      -4.897   0.788   4.021  0.00  0.00    +0.002 A 
ATOM     31  C   UNL     1      -4.465   1.610   5.046  0.00  0.00    +0.004 A 
ATOM     32  C   UNL     1      -3.176   2.112   5.038  0.00  0.00    +0.047 A 
ATOM     33  C   UNL     1      -2.313   1.788   4.004  0.00  0.00    +0.141 A 
BRANCH  33  34
ATOM     34  O   UNL     1      -1.044   2.276   3.997  0.00  0.00    -0.493 OA
ATOM     35  C   UNL     1      -0.665   3.113   5.091  0.00  0.00    +0.277 C 
ENDBRANCH  33  34
ENDBRANCH  26  28
BRANCH  23  37
ATOM     36  C   UNL     1       0.614  -1.398  -0.261  0.00  0.00    +0.028 C 
ATOM     37  C   UNL     1      -0.096  -0.057  -0.066  0.00  0.00    +0.072 C 
ATOM     38  C   UNL     1       0.403   0.942  -1.113  0.00  0.00    +0.028 C 
ENDBRANCH  23  37
ENDBRANCH  22  23
ENDBRANCH   1  22
TORSDOF 6
