REMARK  Name = ZINC44453006
REMARK  7 active torsions:
REMARK  status: ('A' for Active; 'I' for Inactive)
REMARK    1  A    between atoms: C_1  and  C_2
REMARK    2  A    between atoms: C_2  and  C_32
REMARK    3  A    between atoms: N_3  and  N_4
REMARK    4  A    between atoms: C_5  and  C_7
REMARK    5  A    between atoms: C_11  and  N_12
REMARK    6  A    between atoms: C_13  and  C_15
REMARK    7  A    between atoms: C_19  and  N_24
REMARK                            x       y       z     vdW  Elec       q    Type
REMARK                         _______ _______ _______ _____ _____    ______ ____
ROOT
ATOM      1  C   UNL     1       0.046   0.090   4.761  0.00  0.00    +0.070 A 
ATOM      2  C   UNL     1      -1.197   0.443   5.433  0.00  0.00    -0.023 A 
ATOM      3  C   UNL     1      -1.021   1.113   6.591  0.00  0.00    -0.004 A 
ATOM      4  S   UNL     1       0.735   1.250   6.772  0.00  0.00    -0.077 S 
ATOM      5  C   UNL     1       1.230   0.462   5.375  0.00  0.00    +0.085 A 
ATOM      6  C   UNL     1      -2.077   1.637   7.513  0.00  0.00    +0.043 C 
ATOM      7  C   UNL     1      -3.101   0.528   7.788  0.00  0.00    +0.005 C 
ATOM      8  C   UNL     1      -4.195   0.601   6.727  0.00  0.00    +0.001 C 
ATOM      9  C   UNL     1      -3.609   1.073   5.397  0.00  0.00    +0.005 C 
ATOM     10  C   UNL     1      -2.570   0.078   4.889  0.00  0.00    +0.037 C 
ENDROOT
BRANCH   1  12
ATOM     11  N   UNL     1       0.023   0.044   2.324  0.00  0.00    -0.203 N 
ATOM     12  C   UNL     1       0.044  -0.636   3.488  0.00  0.00    +0.266 C 
ATOM     13  O   UNL     1       0.060  -1.853   3.481  0.00  0.00    -0.268 OA
ATOM     14  H   UNL     1       0.010   1.014   2.329  0.00  0.00    +0.178 HD
BRANCH  11  17
ATOM     15  C   UNL     1      -0.018   1.503   0.010  0.00  0.00    +0.062 C 
ATOM     16  C   UNL     1       0.002  -0.004   0.002  0.00  0.00    +0.031 C 
ATOM     17  N   UNL     1       0.021  -0.650   1.107  0.00  0.00    -0.190 NA
ATOM     18  C   UNL     1      -0.000  -0.750  -1.307  0.00  0.00    +0.062 C 
ENDBRANCH  11  17
ENDBRANCH   1  12
BRANCH   5  19
ATOM     19  N   UNL     1       2.525   0.237   4.937  0.00  0.00    -0.275 N 
ATOM     20  C   UNL     1       3.569   0.674   5.668  0.00  0.00    +0.255 C 
ATOM     21  O   UNL     1       3.375   1.265   6.714  0.00  0.00    -0.269 OA
ATOM     22  H   UNL     1       2.679  -0.234   4.103  0.00  0.00    +0.156 HD
BRANCH  20  23
ATOM     23  C   UNL     1       4.942   0.435   5.203  0.00  0.00    +0.075 A 
ATOM     24  C   UNL     1       6.112   0.790   5.799  0.00  0.00    +0.029 A 
ATOM     25  C   UNL     1       7.337   0.467   5.188  0.00  0.00    -0.008 A 
ATOM     26  C   UNL     1       8.649   0.749   5.647  0.00  0.00    +0.041 A 
ATOM     27  C   UNL     1       9.735   0.364   4.928  0.00  0.00    +0.127 A 
ATOM     28  C   UNL     1       9.607  -0.316   3.723  0.00  0.00    +0.034 A 
ATOM     29  C   UNL     1       8.349  -0.610   3.239  0.00  0.00    +0.018 A 
ATOM     30  C   UNL     1       7.237  -0.226   3.958  0.00  0.00    +0.020 A 
ATOM     31  S   UNL     1       5.486  -0.398   3.722  0.00  0.00    -0.084 S 
BRANCH  27  32
ATOM     32  N   UNL     1      11.088   0.676   5.441  0.00  0.00    +0.056 N 
ATOM     33  O   UNL     1      11.217   1.267   6.488  0.00  0.00    -0.126 OA
ATOM     34  O   UNL     1      12.065   0.340   4.812  0.00  0.00    -0.126 OA
ENDBRANCH  27  32
ENDBRANCH  20  23
ENDBRANCH   5  19
TORSDOF 5
