REMARK  Name = ZINC08707926
REMARK  5 active torsions:
REMARK  status: ('A' for Active; 'I' for Inactive)
REMARK    1  A    between atoms: C_2  and  C_16
REMARK    2  A    between atoms: C_6  and  S_7
REMARK    3  A    between atoms: S_7  and  N_10
REMARK    4  A    between atoms: N_10  and  C_11
REMARK    5  A    between atoms: C_23  and  N_53
REMARK                            x       y       z     vdW  Elec       q    Type
REMARK                         _______ _______ _______ _____ _____    ______ ____
ROOT
ATOM      1  C   UNL     1      -2.408   9.175  -3.085  0.00  0.00    +0.044 A 
ATOM      2  C   UNL     1      -2.718   9.188  -1.724  0.00  0.00    +0.057 A 
ATOM      3  C   UNL     1      -2.193  10.189  -0.902  0.00  0.00    +0.055 A 
ATOM      4  C   UNL     1      -1.375  11.162  -1.442  0.00  0.00    +0.042 A 
ATOM      5  C   UNL     1      -1.077  11.146  -2.794  0.00  0.00    +0.069 A 
ATOM      6  C   UNL     1      -1.595  10.156  -3.613  0.00  0.00    +0.124 A 
ATOM      7 CL   UNL     1      -0.049  12.373  -3.466  0.00  0.00    -0.081 Cl
ATOM      8 CL   UNL     1      -2.567  10.209   0.793  0.00  0.00    -0.083 Cl
ENDROOT
BRANCH   2   9
ATOM      9  C   UNL     1      -3.593   8.143  -1.153  0.00  0.00    +0.248 C 
ATOM     10  O   UNL     1      -4.511   8.454  -0.418  0.00  0.00    -0.270 OA
ATOM     11  N   UNL     1      -3.374   6.846  -1.446  0.00  0.00    -0.301 N 
ATOM     12  C   UNL     1      -4.298   5.801  -0.983  0.00  0.00    +0.089 C 
ATOM     13  C   UNL     1      -3.485   4.707  -0.282  0.00  0.00    -0.059 C 
ATOM     14  C   UNL     1      -1.473   5.321  -1.489  0.00  0.00    -0.059 C 
ATOM     15  C   UNL     1      -2.204   6.439  -2.240  0.00  0.00    +0.089 C 
ATOM     16  N   UNL     1      -2.433   4.231  -1.207  0.00  0.00    +0.385 N 
ATOM     17  H   UNL     1      -2.872   3.938  -2.088  0.00  0.00    -0.081 HD
BRANCH  16  18
ATOM     18  C   UNL     1      -1.726   3.076  -0.616  0.00  0.00    -0.046 C 
ATOM     19  C   UNL     1      -0.683   2.567  -1.624  0.00  0.00    +0.009 C 
ATOM     20  C   UNL     1      -0.192   1.168  -1.149  0.00  0.00    +0.164 C 
ATOM     21  S   UNL     1      -1.782   0.426  -0.588  0.00  0.00    -0.033 S 
ATOM     22  O   UNL     1      -1.576  -0.220   0.661  0.00  0.00    -0.174 OA
ATOM     23  O   UNL     1      -2.359  -0.300  -1.664  0.00  0.00    -0.174 OA
ATOM     24  C   UNL     1      -2.756   1.962  -0.313  0.00  0.00    +0.151 C 
ENDBRANCH  16  18
ENDBRANCH   2   9
BRANCH   6  25
ATOM     25  S   UNL     1      -1.210  10.146  -5.332  0.00  0.00    +0.060 S 
ATOM     26  O   UNL     1       0.201  10.280  -5.433  0.00  0.00    -0.153 OA
ATOM     27  O   UNL     1      -1.913   9.050  -5.900  0.00  0.00    -0.153 OA
BRANCH  25  28
ATOM     28  N   UNL     1      -1.863  11.519  -5.988  0.00  0.00    -0.187 NA
ATOM     29  H   UNL     1      -1.283  12.205  -6.355  0.00  0.00    +0.148 HD
BRANCH  28  30
ATOM     30  C   UNL     1      -3.317  11.698  -6.014  0.00  0.00    +0.077 C 
ATOM     31  C   UNL     1      -3.912  12.475  -7.190  0.00  0.00    +0.022 C 
ATOM     32  C   UNL     1      -3.858  13.114  -5.801  0.00  0.00    +0.022 C 
ENDBRANCH  28  30
ENDBRANCH  25  28
ENDBRANCH   6  25
TORSDOF 5
