REMARK  Name = ZINC13729697
REMARK  10 active torsions:
REMARK  status: ('A' for Active; 'I' for Inactive)
REMARK    1  A    between atoms: C_1  and  C_2
REMARK    2  A    between atoms: C_6  and  C_34
REMARK    3  A    between atoms: C_9  and  N_12
REMARK    4  A    between atoms: N_12  and  C_13
REMARK    5  A    between atoms: C_13  and  C_14
REMARK    6  A    between atoms: C_17  and  O_22
REMARK    7  A    between atoms: C_18  and  O_20
REMARK    8  A    between atoms: O_20  and  C_21
REMARK    9  A    between atoms: O_22  and  C_23
REMARK   10  A    between atoms: N_27  and  C_28
REMARK                            x       y       z     vdW  Elec       q    Type
REMARK                         _______ _______ _______ _____ _____    ______ ____
ROOT
ATOM      1  C   UNL     1      -4.936  -2.554  -1.243  0.00  0.00    -0.061 A 
ATOM      2  C   UNL     1      -5.289  -3.618  -2.054  0.00  0.00    +0.005 A 
ATOM      3  C   UNL     1      -6.577  -4.118  -2.021  0.00  0.00    +0.050 A 
ATOM      4  C   UNL     1      -7.519  -3.553  -1.174  0.00  0.00    +0.173 A 
ATOM      5  C   UNL     1      -7.163  -2.483  -0.359  0.00  0.00    +0.162 A 
ATOM      6  C   UNL     1      -5.869  -1.990  -0.393  0.00  0.00    +0.051 A 
ENDROOT
BRANCH   5   7
ATOM      7  O   UNL     1      -8.083  -1.926   0.474  0.00  0.00    -0.491 OA
ATOM      8  C   UNL     1      -7.647  -0.831   1.282  0.00  0.00    +0.277 C 
ENDBRANCH   5   7
BRANCH   1   9
ATOM      9  C   UNL     1      -3.530  -2.013  -1.284  0.00  0.00    -0.046 C 
BRANCH   9  10
ATOM     10  N   UNL     1      -2.703  -2.726  -0.301  0.00  0.00    +0.385 N 
ATOM     11  H   UNL     1      -2.691  -3.710  -0.523  0.00  0.00    -0.085 HD
ATOM     12  H   UNL     1      -3.088  -2.594   0.622  0.00  0.00    -0.085 HD
BRANCH  10  21
ATOM     13  C   UNL     1       0.058   1.337   0.291  0.00  0.00    +0.011 C 
ATOM     14  C   UNL     1       0.076  -0.156  -0.045  0.00  0.00    -0.033 C 
ATOM     15  C   UNL     1       0.660  -0.356  -1.445  0.00  0.00    +0.010 C 
ATOM     16  C   UNL     1       0.679  -1.849  -1.781  0.00  0.00    -0.011 C 
ATOM     17  C   UNL     1       1.540  -2.591  -0.758  0.00  0.00    +0.010 C 
ATOM     18  C   UNL     1       0.957  -2.391   0.642  0.00  0.00    -0.033 C 
ATOM     19  C   UNL     1       0.938  -0.898   0.978  0.00  0.00    +0.013 C 
ATOM     20  C   UNL     1      -0.471  -2.940   0.683  0.00  0.00    -0.006 C 
ATOM     21  C   UNL     1      -1.333  -2.198  -0.340  0.00  0.00    -0.067 C 
ATOM     22  C   UNL     1      -0.749  -2.398  -1.740  0.00  0.00    -0.009 C 
ATOM     23  C   UNL     1      -1.351  -0.705  -0.004  0.00  0.00    -0.006 C 
ATOM     24  C   UNL     1       1.818  -3.133   1.665  0.00  0.00    +0.011 C 
ENDBRANCH  10  21
ENDBRANCH   9  10
ENDBRANCH   1   9
BRANCH   4  25
ATOM     25  O   UNL     1      -8.786  -4.044  -1.141  0.00  0.00    -0.419 OA
BRANCH  25  26
ATOM     26  C   UNL     1      -9.046  -5.182  -1.828  0.00  0.00    +0.347 A 
ATOM     27  N   UNL     1      -8.166  -5.946  -2.433  0.00  0.00    -0.070 NA
ATOM     28  N   UNL     1      -8.745  -6.948  -2.989  0.00  0.00    -0.019 NA
ATOM     29  N   UNL     1     -10.017  -6.900  -2.785  0.00  0.00    -0.036 NA
ATOM     30  N   UNL     1     -10.262  -5.750  -2.014  0.00  0.00    -0.162 N 
BRANCH  30  31
ATOM     31  C   UNL     1     -11.499  -5.288  -1.542  0.00  0.00    +0.072 A 
ATOM     32  C   UNL     1     -11.581  -4.654  -0.310  0.00  0.00    +0.028 A 
ATOM     33  C   UNL     1     -12.801  -4.200   0.152  0.00  0.00    +0.002 A 
ATOM     34  C   UNL     1     -13.940  -4.377  -0.611  0.00  0.00    +0.000 A 
ATOM     35  C   UNL     1     -13.862  -5.008  -1.839  0.00  0.00    +0.002 A 
ATOM     36  C   UNL     1     -12.644  -5.458  -2.309  0.00  0.00    +0.028 A 
ENDBRANCH  30  31
ENDBRANCH  25  26
ENDBRANCH   4  25
TORSDOF 7
