REMARK  Name = ZINC19827773
REMARK  3 active torsions:
REMARK  status: ('A' for Active; 'I' for Inactive)
REMARK    1  A    between atoms: C_3  and  C_6
REMARK    2  A    between atoms: C_9  and  C_14
REMARK    3  A    between atoms: C_16  and  C_20
REMARK                            x       y       z     vdW  Elec       q    Type
REMARK                         _______ _______ _______ _____ _____    ______ ____
ROOT
ATOM      1  C   UNL     1       1.775  -0.220  -0.016  0.00  0.00    +0.139 A 
ATOM      2  N   UNL     1       2.204   1.020  -0.013  0.00  0.00    -0.155 NA
ATOM      3  N   UNL     1       1.314   2.086   0.001  0.00  0.00    -0.184 N 
ATOM      4  C   UNL     1       1.325   3.475   0.008  0.00  0.00    +0.203 A 
ATOM      5  N   UNL     1       0.076   3.885   0.022  0.00  0.00    -0.125 NA
ATOM      6  N   UNL     1      -0.718   2.870   0.029  0.00  0.00    -0.120 NA
ATOM      7  C   UNL     1      -0.022   1.771   0.012  0.00  0.00    +0.219 A 
ATOM      8  S   UNL     1       0.002  -0.004   0.002  0.00  0.00    -0.026 S 
ENDROOT
BRANCH   4   9
ATOM      9  C   UNL     1       2.521   4.334   0.002  0.00  0.00    +0.105 A 
ATOM     10  C   UNL     1       2.557   5.682  -0.279  0.00  0.00    +0.061 A 
ATOM     11  C   UNL     1       3.892   6.103  -0.171  0.00  0.00    +0.093 A 
ATOM     12  N   UNL     1       4.631   5.064   0.158  0.00  0.00    -0.173 NA
ATOM     13  N   UNL     1       3.800   3.943   0.278  0.00  0.00    -0.273 N 
ATOM     14  H   UNL     1       4.011   2.895   0.539  0.00  0.00    +0.189 HD
BRANCH  11  15
ATOM     15  C   UNL     1       4.387   7.485  -0.391  0.00  0.00    +0.002 A 
ATOM     16  C   UNL     1       3.498   8.498  -0.743  0.00  0.00    +0.013 A 
ATOM     17  C   UNL     1       3.961   9.782  -0.941  0.00  0.00    +0.039 A 
ATOM     18  C   UNL     1       5.311  10.063  -0.802  0.00  0.00    +0.123 A 
ATOM     19  C   UNL     1       6.199   9.057  -0.458  0.00  0.00    +0.039 A 
ATOM     20  C   UNL     1       5.744   7.771  -0.252  0.00  0.00    +0.013 A 
ATOM     21  F   UNL     1       5.761  11.321  -1.003  0.00  0.00    -0.205 F 
ENDBRANCH  11  15
ENDBRANCH   4   9
BRANCH   1  24
ATOM     22  C   UNL     1       3.036  -3.783  -0.048  0.00  0.00    +0.008 A 
ATOM     23  C   UNL     1       2.110  -2.766  -0.033  0.00  0.00    +0.018 A 
ATOM     24  C   UNL     1       2.555  -1.469  -0.030  0.00  0.00    +0.046 A 
ATOM     25  S   UNL     1       4.327  -1.688  -0.056  0.00  0.00    -0.095 S 
ATOM     26  C   UNL     1       4.359  -3.473  -0.058  0.00  0.00    +0.046 A 
ENDBRANCH   1  24
TORSDOF 3
