REMARK  Name = ZINC20100976
REMARK  2 active torsions:
REMARK  status: ('A' for Active; 'I' for Inactive)
REMARK    1  A    between atoms: C_1  and  N_2
REMARK    2  A    between atoms: C_13  and  C_16
REMARK                            x       y       z     vdW  Elec       q    Type
REMARK                         _______ _______ _______ _____ _____    ______ ____
ROOT
ATOM      1  C   UNL     1      -3.872   1.200   8.389  0.00  0.00    -0.096 C 
ATOM      2  N   UNL     1      -3.815   0.911   6.949  0.00  0.00    +0.381 N 
ATOM      3  C   UNL     1      -2.549   0.253   6.595  0.00  0.00    -0.074 C 
ATOM      4  C   UNL     1      -2.654  -0.373   5.201  0.00  0.00    +0.018 C 
ATOM      5  C   UNL     1      -3.159   0.695   4.237  0.00  0.00    -0.027 A 
ATOM      6  C   UNL     1      -3.759   1.809   4.716  0.00  0.00    -0.021 A 
ATOM      7  S   UNL     1      -4.176   2.757   3.279  0.00  0.00    -0.080 S 
ATOM      8  C   UNL     1      -3.573   1.699   2.075  0.00  0.00    +0.080 A 
ATOM      9  C   UNL     1      -3.043   0.614   2.792  0.00  0.00    +0.068 A 
ATOM     10  C   UNL     1      -2.428  -0.485   2.013  0.00  0.00    +0.248 C 
ATOM     11  O   UNL     1      -2.049  -1.509   2.552  0.00  0.00    -0.270 OA
ATOM     12  N   UNL     1      -2.304  -0.304   0.683  0.00  0.00    -0.289 N 
ATOM     13  C   UNL     1      -2.514   0.978   0.019  0.00  0.00    +0.190 C 
ATOM     14  N   UNL     1      -3.548   1.772   0.707  0.00  0.00    -0.316 N 
ATOM     15  C   UNL     1      -4.003   2.139   6.155  0.00  0.00    -0.036 C 
ATOM     16  H   UNL     1      -2.030  -1.191   0.092  0.00  0.00    +0.151 HD
ATOM     17  H   UNL     1      -4.252   2.383   0.122  0.00  0.00    +0.149 HD
ATOM     18  H   UNL     1      -4.636   0.218   6.715  0.00  0.00    -0.082 HD
ENDROOT
BRANCH  13  19
ATOM     19  C   UNL     1      -1.220   1.750   0.017  0.00  0.00    -0.008 A 
ATOM     20  C   UNL     1      -0.013   1.076   0.008  0.00  0.00    +0.008 A 
ATOM     21  C   UNL     1       1.175   1.783   0.000  0.00  0.00    +0.022 A 
ATOM     22  C   UNL     1       1.157   3.166   0.008  0.00  0.00    +0.059 A 
ATOM     23  C   UNL     1      -0.052   3.841   0.022  0.00  0.00    +0.060 A 
ATOM     24  C   UNL     1      -1.240   3.132   0.030  0.00  0.00    +0.028 A 
ATOM     25 CL   UNL     1      -0.076   5.577   0.031  0.00  0.00    -0.082 Cl
ATOM     26 CL   UNL     1       2.648   4.054  -0.001  0.00  0.00    -0.082 Cl
ENDBRANCH  13  19
TORSDOF 1
