REMARK  Name = ZINC12475892
REMARK  10 active torsions:
REMARK  status: ('A' for Active; 'I' for Inactive)
REMARK    1  A    between atoms: C_1  and  C_2
REMARK    2  A    between atoms: C_5  and  C_7
REMARK    3  A    between atoms: C_7  and  C_9
REMARK    4  A    between atoms: C_7  and  N_18
REMARK    5  A    between atoms: N_11  and  C_12
REMARK    6  A    between atoms: N_18  and  C_19
REMARK    7  A    between atoms: C_24  and  O_25
REMARK    8  A    between atoms: O_25  and  C_26
REMARK    9  A    between atoms: C_27  and  C_29
REMARK   10  A    between atoms: C_29  and  C_30
REMARK                            x       y       z     vdW  Elec       q    Type
REMARK                         _______ _______ _______ _____ _____    ______ ____
ROOT
ATOM      1  N   UNL     1      -4.527   3.316   2.065  0.00  0.00    -0.249 N 
ATOM      2  C   UNL     1      -4.778   4.598   2.398  0.00  0.00    +0.225 C 
ATOM      3  O   UNL     1      -4.344   5.051   3.436  0.00  0.00    -0.275 OA
ENDROOT
BRANCH   1   4
ATOM      4  C   UNL     1      -5.029   2.793   0.866  0.00  0.00    +0.079 A 
ATOM      5  C   UNL     1      -6.277   2.188   0.840  0.00  0.00    +0.027 A 
ATOM      6  C   UNL     1      -6.770   1.673  -0.344  0.00  0.00    +0.002 A 
ATOM      7  C   UNL     1      -6.022   1.758  -1.504  0.00  0.00    +0.004 A 
ATOM      8  C   UNL     1      -4.777   2.359  -1.486  0.00  0.00    +0.047 A 
ATOM      9  C   UNL     1      -4.278   2.883  -0.304  0.00  0.00    +0.141 A 
BRANCH   9  10
ATOM     10  O   UNL     1      -3.056   3.479  -0.286  0.00  0.00    -0.493 OA
ATOM     11  C   UNL     1      -2.387   3.626  -1.540  0.00  0.00    +0.277 C 
ENDBRANCH   9  10
ENDBRANCH   1   4
BRANCH   1  12
ATOM     12  C   UNL     1      -3.728   2.471   2.956  0.00  0.00    +0.233 C 
BRANCH  12  17
ATOM     13  C   UNL     1      -6.436   3.514   7.082  0.00  0.00    +0.086 C 
ATOM     14  C   UNL     1      -5.628   2.754   6.061  0.00  0.00    +0.102 A 
ATOM     15  C   UNL     1      -5.308   1.449   6.125  0.00  0.00    +0.045 A 
ATOM     16  C   UNL     1      -4.548   1.157   4.968  0.00  0.00    +0.047 A 
ATOM     17  C   UNL     1      -4.450   2.300   4.267  0.00  0.00    +0.135 A 
ATOM     18  O   UNL     1      -5.111   3.263   4.931  0.00  0.00    -0.462 OA
ENDBRANCH  12  17
BRANCH  12  19
ATOM     19  C   UNL     1      -2.390   3.121   3.200  0.00  0.00    +0.242 C 
ATOM     20  O   UNL     1      -2.130   4.186   2.680  0.00  0.00    -0.273 OA
ATOM     21  N   UNL     1      -1.484   2.519   3.995  0.00  0.00    -0.311 N 
ATOM     22  H   UNL     1      -1.692   1.668   4.410  0.00  0.00    +0.149 HD
BRANCH  21  23
ATOM     23  C   UNL     1      -0.184   3.151   4.232  0.00  0.00    +0.073 C 
ATOM     24  C   UNL     1       0.778   2.779   3.102  0.00  0.00    +0.022 C 
ATOM     25  C   UNL     1       2.136   3.439   3.350  0.00  0.00    +0.002 C 
ATOM     26  C   UNL     1       2.704   2.951   4.684  0.00  0.00    +0.000 C 
ATOM     27  C   UNL     1       1.742   3.323   5.814  0.00  0.00    +0.002 C 
ATOM     28  C   UNL     1       0.385   2.663   5.566  0.00  0.00    +0.022 C 
ENDBRANCH  21  23
ENDBRANCH  12  19
ENDBRANCH   1  12
BRANCH   2  29
ATOM     29  C   UNL     1      -5.600   5.467   1.482  0.00  0.00    +0.133 C 
BRANCH  29  30
ATOM     30  C   UNL     1      -5.733   6.843   2.081  0.00  0.00    -0.014 A 
ATOM     31  C   UNL     1      -6.753   7.293   2.829  0.00  0.00    +0.087 A 
ATOM     32  N   UNL     1      -6.524   8.591   3.197  0.00  0.00    -0.360 N 
ATOM     33  H   UNL     1      -7.120   9.129   3.742  0.00  0.00    +0.165 HD
ATOM     34  C   UNL     1      -5.326   9.022   2.674  0.00  0.00    +0.047 A 
ATOM     35  C   UNL     1      -4.777   7.946   1.952  0.00  0.00    +0.003 A 
ATOM     36  C   UNL     1      -3.549   8.095   1.306  0.00  0.00    +0.010 A 
ATOM     37  C   UNL     1      -2.884   9.287   1.379  0.00  0.00    +0.001 A 
ATOM     38  C   UNL     1      -3.421  10.351   2.089  0.00  0.00    +0.002 A 
ATOM     39  C   UNL     1      -4.632  10.226   2.735  0.00  0.00    +0.026 A 
ENDBRANCH  29  30
ENDBRANCH   2  29
TORSDOF 8
