REMARK  Name = ZINC37171456
REMARK  5 active torsions:
REMARK  status: ('A' for Active; 'I' for Inactive)
REMARK    1  A    between atoms: C_1  and  C_2
REMARK    2  A    between atoms: C_2  and  C_4
REMARK    3  A    between atoms: C_2  and  N_13
REMARK    4  A    between atoms: N_16  and  C_17
REMARK    5  A    between atoms: C_22  and  C_25
REMARK                            x       y       z     vdW  Elec       q    Type
REMARK                         _______ _______ _______ _____ _____    ______ ____
ROOT
ATOM      1  N   UNL     1      -1.372  -0.511   0.012  0.00  0.00    -0.290 N 
ATOM      2  C   UNL     1      -2.051  -0.643  -1.145  0.00  0.00    +0.300 C 
ATOM      3  O   UNL     1      -1.522  -0.341  -2.197  0.00  0.00    -0.253 OA
ATOM      4  N   UNL     1      -3.315  -1.109  -1.135  0.00  0.00    -0.297 N 
ATOM      5  H   UNL     1      -1.794  -0.752   0.852  0.00  0.00    +0.151 HD
ATOM      6  H   UNL     1      -3.737  -1.350  -0.295  0.00  0.00    +0.151 HD
ENDROOT
BRANCH   4   7
ATOM      7  C   UNL     1      -4.053  -1.252  -2.393  0.00  0.00    +0.075 C 
ATOM      8  C   UNL     1      -3.716  -2.601  -3.031  0.00  0.00    +0.022 C 
ATOM      9  C   UNL     1      -4.111  -3.730  -2.077  0.00  0.00    +0.002 C 
ATOM     10  C   UNL     1      -5.614  -3.659  -1.798  0.00  0.00    +0.012 C 
ATOM     11  C   UNL     1      -5.951  -2.310  -1.159  0.00  0.00    +0.095 C 
ATOM     12  C   UNL     1      -5.556  -1.181  -2.114  0.00  0.00    +0.034 C 
BRANCH  11  13
ATOM     13  C   UNL     1      -7.453  -2.239  -0.880  0.00  0.00    +0.393 C 
ATOM     14  F   UNL     1      -7.815  -3.271  -0.008  0.00  0.00    -0.170 F 
ATOM     15  F   UNL     1      -7.762  -1.006  -0.297  0.00  0.00    -0.170 F 
ATOM     16  F   UNL     1      -8.158  -2.376  -2.082  0.00  0.00    -0.170 F 
ENDBRANCH  11  13
ENDBRANCH   4   7
BRANCH   1  18
ATOM     17  C   UNL     1      -0.019   1.526   0.010  0.00  0.00    +0.036 C 
ATOM     18  C   UNL     1       0.002  -0.004   0.002  0.00  0.00    +0.137 C 
BRANCH  18  19
ATOM     19  C   UNL     1       0.731  -0.503   1.223  0.00  0.00    +0.126 A 
ATOM     20  C   UNL     1       2.005  -0.917   1.240  0.00  0.00    +0.055 A 
ATOM     21  C   UNL     1       2.290  -1.308   2.626  0.00  0.00    +0.020 A 
ATOM     22  C   UNL     1       3.410  -1.812   3.286  0.00  0.00    +0.011 A 
ATOM     23  C   UNL     1       3.343  -2.081   4.625  0.00  0.00    +0.001 A 
ATOM     24  C   UNL     1       2.169  -1.856   5.329  0.00  0.00    +0.004 A 
ATOM     25  C   UNL     1       1.052  -1.359   4.693  0.00  0.00    +0.047 A 
ATOM     26  C   UNL     1       1.098  -1.078   3.333  0.00  0.00    +0.135 A 
ATOM     27  O   UNL     1       0.199  -0.593   2.454  0.00  0.00    -0.458 OA
ENDBRANCH  18  19
ENDBRANCH   1  18
TORSDOF 4
