REMARK  Name = ZINC43599366
REMARK  7 active torsions:
REMARK  status: ('A' for Active; 'I' for Inactive)
REMARK    1  A    between atoms: C_6  and  C_7
REMARK    2  A    between atoms: C_7  and  C_9
REMARK    3  A    between atoms: C_7  and  C_21
REMARK    4  A    between atoms: C_9  and  C_10
REMARK    5  A    between atoms: C_15  and  C_18
REMARK    6  A    between atoms: C_21  and  N_22
REMARK    7  A    between atoms: C_23  and  C_25
REMARK                            x       y       z     vdW  Elec       q    Type
REMARK                         _______ _______ _______ _____ _____    ______ ____
ROOT
ATOM      1  C   UNL     1      -1.293  -0.775   0.011  0.00  0.00    +0.045 C 
ENDROOT
BRANCH   1   7
ATOM      2  C   UNL     1      -0.017   1.378   0.010  0.00  0.00    +0.005 A 
ATOM      3  C   UNL     1       1.171   2.086   0.002  0.00  0.00    +0.020 A 
ATOM      4  C   UNL     1       2.378   1.410  -0.013  0.00  0.00    +0.041 A 
ATOM      5  C   UNL     1       2.396   0.027  -0.021  0.00  0.00    +0.020 A 
ATOM      6  C   UNL     1       1.208  -0.679  -0.013  0.00  0.00    +0.005 A 
ATOM      7  C   UNL     1       0.002  -0.004   0.002  0.00  0.00    -0.042 A 
ATOM      8 CL   UNL     1       3.870   2.298  -0.023  0.00  0.00    -0.084 Cl
ENDBRANCH   1   7
BRANCH   1   9
ATOM      9  C   UNL     1      -1.350  -1.662   1.256  0.00  0.00    +0.105 C 
BRANCH   9  10
ATOM     10  C   UNL     1      -1.393  -0.796   2.488  0.00  0.00    +0.216 C 
ATOM     11  O   UNL     1      -1.380   0.412   2.381  0.00  0.00    -0.276 OA
ATOM     12  N   UNL     1      -1.447  -1.364   3.709  0.00  0.00    -0.301 N 
ATOM     13  C   UNL     1      -1.457  -2.826   3.855  0.00  0.00    +0.108 C 
ATOM     14  C   UNL     1      -2.663  -3.227   4.711  0.00  0.00    +0.034 C 
ATOM     15  C   UNL     1      -2.620  -2.464   6.036  0.00  0.00    +0.105 C 
ATOM     16  C   UNL     1      -2.701  -0.960   5.763  0.00  0.00    +0.034 C 
ATOM     17  C   UNL     1      -1.490  -0.533   4.920  0.00  0.00    +0.108 C 
BRANCH  15  18
ATOM     18  C   UNL     1      -3.786  -2.881   6.894  0.00  0.00    +0.359 C 
ATOM     19  O   UNL     1      -3.635  -3.037   8.094  0.00  0.00    -0.246 OA
ATOM     20  O   UNL     1      -4.881  -3.064   6.389  0.00  0.00    -0.246 OA
ENDBRANCH  15  18
ENDBRANCH   9  10
ENDBRANCH   1   9
BRANCH   1  21
ATOM     21  C   UNL     1      -1.375  -1.649  -1.242  0.00  0.00    +0.112 C 
BRANCH  21  22
ATOM     22  N   UNL     1      -1.440  -0.794  -2.430  0.00  0.00    -0.316 N 
ATOM     23  C   UNL     1      -1.518  -1.349  -3.656  0.00  0.00    +0.199 C 
ATOM     24  O   UNL     1      -1.534  -2.556  -3.776  0.00  0.00    -0.278 OA
ATOM     25  H   UNL     1      -1.428   0.171  -2.335  0.00  0.00    +0.149 HD
BRANCH  23  26
ATOM     26  C   UNL     1      -1.586  -0.469  -4.878  0.00  0.00    +0.016 C 
ATOM     27  C   UNL     1      -2.857   0.404  -4.827  0.00  0.00    -0.009 C 
ATOM     28  C   UNL     1      -3.325   0.427  -6.306  0.00  0.00    -0.020 C 
ATOM     29  C   UNL     1      -2.953  -1.001  -6.775  0.00  0.00    -0.082 C 
ATOM     30  N   UNL     1      -1.673  -1.303  -6.092  0.00  0.00    +0.387 N 
ATOM     31  H   UNL     1      -0.900  -1.091  -6.705  0.00  0.00    -0.085 HD
ATOM     32  H   UNL     1      -1.645  -2.279  -5.836  0.00  0.00    -0.085 HD
ENDBRANCH  23  26
ENDBRANCH  21  22
ENDBRANCH   1  21
TORSDOF 7
