REMARK  Name = ZINC45313920
REMARK  11 active torsions:
REMARK  status: ('A' for Active; 'I' for Inactive)
REMARK    1  A    between atoms: C_1  and  C_2
REMARK    2  A    between atoms: C_3  and  C_32
REMARK    3  A    between atoms: C_4  and  C_31
REMARK    4  A    between atoms: C_5  and  S_10
REMARK    5  A    between atoms: C_6  and  C_9
REMARK    6  A    between atoms: C_7  and  C_8
REMARK    7  A    between atoms: S_10  and  N_13
REMARK    8  A    between atoms: N_16  and  C_19
REMARK    9  A    between atoms: C_19  and  C_20
REMARK   10  A    between atoms: N_22  and  C_23
REMARK   11  A    between atoms: C_24  and  C_28
REMARK                            x       y       z     vdW  Elec       q    Type
REMARK                         _______ _______ _______ _____ _____    ______ ____
ROOT
ATOM      1  N   UNL     1       0.452  -5.323   0.163  0.00  0.00    -0.174 NA
ATOM      2  C   UNL     1       1.136  -5.791  -1.052  0.00  0.00    +0.125 C 
ATOM      3  C   UNL     1       1.342  -7.305  -0.941  0.00  0.00    +0.102 C 
ATOM      4  N   UNL     1       2.034  -7.611   0.318  0.00  0.00    -0.291 NA
ATOM      5  C   UNL     1       1.222  -7.224   1.480  0.00  0.00    +0.102 C 
ATOM      6  C   UNL     1       1.014  -5.701   1.468  0.00  0.00    +0.125 C 
ENDROOT
BRANCH   1   7
ATOM      7  S   UNL     1      -0.912  -4.388   0.063  0.00  0.00    +0.061 S 
ATOM      8  O   UNL     1      -1.616  -4.566   1.285  0.00  0.00    -0.153 OA
ATOM      9  O   UNL     1      -1.499  -4.660  -1.202  0.00  0.00    -0.153 OA
BRANCH   7  14
ATOM     10  C   UNL     1       0.883   1.371  -0.069  0.00  0.00    +0.044 C 
ATOM     11  C   UNL     1       0.435  -0.067  -0.036  0.00  0.00    -0.044 A 
ATOM     12  C   UNL     1       0.169  -0.681   1.174  0.00  0.00    -0.043 A 
ATOM     13  C   UNL     1      -0.243  -2.000   1.204  0.00  0.00    -0.021 A 
ATOM     14  C   UNL     1      -0.388  -2.706   0.025  0.00  0.00    +0.112 A 
ATOM     15  C   UNL     1      -0.123  -2.092  -1.185  0.00  0.00    -0.021 A 
ATOM     16  C   UNL     1       0.284  -0.771  -1.216  0.00  0.00    -0.043 A 
ATOM     17  C   UNL     1       0.569  -0.101  -2.535  0.00  0.00    +0.044 C 
ATOM     18  C   UNL     1      -0.281  -2.862  -2.471  0.00  0.00    +0.046 C 
ATOM     19  C   UNL     1      -0.532  -2.669   2.523  0.00  0.00    +0.046 C 
ATOM     20  C   UNL     1       0.328   0.089   2.460  0.00  0.00    +0.044 C 
ENDBRANCH   7  14
ENDBRANCH   1   7
BRANCH   4  21
ATOM     21  C   UNL     1       2.404  -9.031   0.384  0.00  0.00    +0.180 C 
BRANCH  21  22
ATOM     22  C   UNL     1       3.317  -9.258   1.561  0.00  0.00    +0.232 C 
ATOM     23  O   UNL     1       3.629  -8.328   2.275  0.00  0.00    -0.274 OA
ATOM     24  N   UNL     1       3.788 -10.494   1.821  0.00  0.00    -0.278 N 
ATOM     25  H   UNL     1       3.538 -11.238   1.250  0.00  0.00    +0.155 HD
BRANCH  24  26
ATOM     26  C   UNL     1       4.628 -10.703   2.904  0.00  0.00    +0.084 A 
ATOM     27  C   UNL     1       5.207 -11.894   3.317  0.00  0.00    +0.065 A 
ATOM     28  C   UNL     1       6.050 -11.831   4.489  0.00  0.00    +0.022 A 
ATOM     29  C   UNL     1       6.179 -10.616   5.053  0.00  0.00    +0.048 A 
ATOM     30  S   UNL     1       5.184  -9.572   4.011  0.00  0.00    -0.081 S 
BRANCH  27  31
ATOM     31  C   UNL     1       4.976 -13.152   2.600  0.00  0.00    +0.244 C 
ATOM     32  O   UNL     1       4.260 -13.170   1.616  0.00  0.00    -0.270 OA
ATOM     33  N   UNL     1       5.557 -14.290   3.032  0.00  0.00    -0.325 N 
ATOM     34  H   UNL     1       6.127 -14.276   3.816  0.00  0.00    +0.145 HD
ATOM     35  H   UNL     1       5.404 -15.122   2.558  0.00  0.00    +0.145 HD
ENDBRANCH  27  31
ENDBRANCH  24  26
ENDBRANCH  21  22
ENDBRANCH   4  21
TORSDOF 6
