REMARK  Name = ZINC62875940
REMARK  5 active torsions:
REMARK  status: ('A' for Active; 'I' for Inactive)
REMARK    1  A    between atoms: C_1  and  C_2
REMARK    2  A    between atoms: C_2  and  C_4
REMARK    3  A    between atoms: C_2  and  N_11
REMARK    4  A    between atoms: C_15  and  C_17
REMARK    5  A    between atoms: C_15  and  C_18
REMARK                            x       y       z     vdW  Elec       q    Type
REMARK                         _______ _______ _______ _____ _____    ______ ____
ROOT
ATOM      1  N   UNL     1       0.621  -0.602   1.197  0.00  0.00    +0.388 N 
ATOM      2  C   UNL     1      -0.132  -0.115   2.359  0.00  0.00    -0.078 C 
ATOM      3  C   UNL     1       0.507  -0.646   3.644  0.00  0.00    -0.018 C 
ATOM      4  C   UNL     1       0.485  -2.177   3.624  0.00  0.00    +0.014 C 
ATOM      5  C   UNL     1       1.209  -2.672   2.369  0.00  0.00    +0.055 C 
ATOM      6  C   UNL     1       0.544  -2.066   1.131  0.00  0.00    -0.060 C 
ATOM      7  C   UNL     1       2.676  -2.242   2.422  0.00  0.00    +0.021 C 
ATOM      8  H   UNL     1       1.586  -0.321   1.282  0.00  0.00    -0.081 HD
ENDROOT
BRANCH   5   9
ATOM      9  C   UNL     1       1.126  -4.175   2.300  0.00  0.00    +0.360 C 
ATOM     10  O   UNL     1       0.543  -4.794   3.173  0.00  0.00    -0.246 OA
ATOM     11  O   UNL     1       1.643  -4.772   1.371  0.00  0.00    -0.246 OA
ENDBRANCH   5   9
BRANCH   1  13
ATOM     12  C   UNL     1       0.005   1.497   0.095  0.00  0.00    -0.004 C 
ATOM     13  C   UNL     1       0.051  -0.028  -0.029  0.00  0.00    +0.016 C 
BRANCH  13  14
ATOM     14  C   UNL     1       0.907  -0.410  -1.209  0.00  0.00    +0.202 C 
ATOM     15  O   UNL     1       2.073  -0.700  -1.042  0.00  0.00    -0.277 OA
ATOM     16  N   UNL     1       0.378  -0.429  -2.448  0.00  0.00    -0.303 N 
ATOM     17  C   UNL     1      -1.035  -0.196  -2.780  0.00  0.00    +0.108 C 
ATOM     18  C   UNL     1      -1.176  -0.343  -4.310  0.00  0.00    +0.020 C 
ATOM     19  C   UNL     1       0.054  -1.208  -4.691  0.00  0.00    +0.020 C 
ATOM     20  C   UNL     1       1.122  -0.682  -3.696  0.00  0.00    +0.108 C 
ENDBRANCH  13  14
ENDBRANCH   1  13
TORSDOF 3
