REMARK  Name = ZINC12570998
REMARK  9 active torsions:
REMARK  status: ('A' for Active; 'I' for Inactive)
REMARK    1  A    between atoms: C_1  and  C_2
REMARK    2  A    between atoms: C_5  and  O_9
REMARK    3  A    between atoms: O_9  and  C_10
REMARK    4  A    between atoms: C_10  and  C_11
REMARK    5  A    between atoms: N_13  and  C_14
REMARK    6  A    between atoms: C_14  and  N_16
REMARK    7  A    between atoms: N_16  and  N_17
REMARK    8  A    between atoms: C_18  and  C_20
REMARK    9  A    between atoms: C_29  and  O_30
REMARK                            x       y       z     vdW  Elec       q    Type
REMARK                         _______ _______ _______ _____ _____    ______ ____
ROOT
ATOM      1  N   UNL     1      -4.984   4.087   0.076  0.00  0.00    -0.245 N 
ATOM      2  H   UNL     1      -5.812   3.582   0.082  0.00  0.00    +0.172 HD
ENDROOT
BRANCH   1   3
ATOM      3  N   UNL     1      -3.754   3.417   0.060  0.00  0.00    -0.231 N 
ATOM      4  C   UNL     1      -3.721   2.070   0.052  0.00  0.00    +0.264 C 
ATOM      5  O   UNL     1      -4.758   1.436   0.059  0.00  0.00    -0.269 OA
ATOM      6  H   UNL     1      -2.926   3.923   0.054  0.00  0.00    +0.173 HD
BRANCH   4   7
ATOM      7  C   UNL     1      -2.425   1.364   0.034  0.00  0.00    +0.080 A 
ATOM      8  C   UNL     1      -1.245   2.091   0.031  0.00  0.00    +0.025 A 
ATOM      9  C   UNL     1      -0.017   1.415   0.010  0.00  0.00    -0.017 A 
ATOM     10  C   UNL     1       1.200   2.121   0.002  0.00  0.00    +0.008 A 
ATOM     11  C   UNL     1       2.376   1.436  -0.013  0.00  0.00    +0.001 A 
ATOM     12  C   UNL     1       2.394   0.042  -0.021  0.00  0.00    +0.001 A 
ATOM     13  C   UNL     1       1.238  -0.675  -0.013  0.00  0.00    +0.008 A 
ATOM     14  C   UNL     1       0.002  -0.004   0.002  0.00  0.00    -0.014 A 
ATOM     15  C   UNL     1      -1.208  -0.718   0.010  0.00  0.00    +0.054 A 
ATOM     16  C   UNL     1      -2.395  -0.046   0.026  0.00  0.00    +0.130 A 
BRANCH  16  17
ATOM     17  O   UNL     1      -3.560  -0.743   0.033  0.00  0.00    -0.506 OA
ATOM     18  H   UNL     1      -3.889  -0.949   0.919  0.00  0.00    +0.292 HD
ENDBRANCH  16  17
ENDBRANCH   4   7
ENDBRANCH   1   3
BRANCH   1  19
ATOM     19  C   UNL     1      -5.018   5.435   0.084  0.00  0.00    +0.153 C 
ATOM     20  S   UNL     1      -6.521   6.254   0.105  0.00  0.00    -0.017 S 
BRANCH  19  23
ATOM     21  C   UNL     1      -3.901   7.485   0.084  0.00  0.00    +0.256 C 
ATOM     22  O   UNL     1      -4.966   8.065   0.099  0.00  0.00    -0.272 OA
ATOM     23  N   UNL     1      -3.868   6.138   0.076  0.00  0.00    -0.264 N 
ATOM     24  H   UNL     1      -3.016   5.673   0.065  0.00  0.00    +0.157 HD
BRANCH  21  25
ATOM     25  C   UNL     1      -2.615   8.271   0.075  0.00  0.00    +0.325 C 
BRANCH  25  26
ATOM     26  O   UNL     1      -2.911   9.668   0.086  0.00  0.00    -0.482 OA
BRANCH  26  31
ATOM     27  C   UNL     1       1.470  13.209   0.058  0.00  0.00    +0.044 C 
ATOM     28  C   UNL     1       0.297  12.262   0.066  0.00  0.00    -0.049 A 
ATOM     29  C   UNL     1       0.513  10.897   0.057  0.00  0.00    +0.007 A 
ATOM     30  C   UNL     1      -0.559  10.026   0.064  0.00  0.00    +0.047 A 
ATOM     31  C   UNL     1      -1.854  10.523   0.080  0.00  0.00    +0.135 A 
ATOM     32  C   UNL     1      -2.069  11.894   0.084  0.00  0.00    +0.060 A 
ATOM     33  C   UNL     1      -0.992  12.761   0.082  0.00  0.00    +0.022 A 
ATOM     34 BR   UNL     1      -3.833  12.576   0.099  0.00  0.00    -0.047 Br
ENDBRANCH  26  31
ENDBRANCH  25  26
ENDBRANCH  21  25
ENDBRANCH  19  23
ENDBRANCH   1  19
TORSDOF 8
