REMARK  Name = ZINC04328315
REMARK  6 active torsions:
REMARK  status: ('A' for Active; 'I' for Inactive)
REMARK    1  A    between atoms: C_1  and  O_2
REMARK    2  A    between atoms: O_2  and  C_3
REMARK    3  A    between atoms: C_3  and  C_5
REMARK    4  A    between atoms: C_8  and  C_10
REMARK    5  A    between atoms: C_10  and  S_11
REMARK    6  A    between atoms: S_11  and  C_12
REMARK                            x       y       z     vdW  Elec       q    Type
REMARK                         _______ _______ _______ _____ _____    ______ ____
ROOT
ATOM      1  C   UNL     1      -0.021   1.759   0.105  0.00  0.00    +0.115 A 
ATOM      2  C   UNL     1       1.161   2.487   0.082  0.00  0.00    +0.072 A 
ATOM      3  C   UNL     1       1.143   3.886   0.023  0.00  0.00    +0.092 A 
ATOM      4  C   UNL     1       2.461   4.546   0.005  0.00  0.00    +0.035 A 
ATOM      5  C   UNL     1       2.723   5.941  -0.050  0.00  0.00    -0.029 A 
ATOM      6  C   UNL     1       4.008   6.377  -0.056  0.00  0.00    -0.005 A 
ATOM      7  C   UNL     1       5.058   5.449  -0.016  0.00  0.00    +0.103 A 
ATOM      8  C   UNL     1       3.576   3.695   0.046  0.00  0.00    +0.089 A 
ATOM      9  S   UNL     1       2.880   2.062   0.110  0.00  0.00    -0.066 S 
ATOM     10  N   UNL     1       6.372   5.898  -0.028  0.00  0.00    -0.312 N 
ATOM     11  C   UNL     1       7.087   5.403  -1.213  0.00  0.00    +0.134 C 
ATOM     12  C   UNL     1       8.509   5.968  -1.218  0.00  0.00    +0.178 C 
ATOM     13  O   UNL     1       9.165   5.606   0.001  0.00  0.00    -0.377 OA
ATOM     14  C   UNL     1       8.496   6.072   1.175  0.00  0.00    +0.178 C 
ATOM     15  C   UNL     1       7.073   5.508   1.204  0.00  0.00    +0.134 C 
ATOM     16  C   UNL     1       4.367   7.840  -0.095  0.00  0.00    +0.039 C 
ATOM     17  C   UNL     1       3.178   8.672  -0.569  0.00  0.00    +0.005 C 
ATOM     18  C   UNL     1       1.952   8.289   0.268  0.00  0.00    +0.005 C 
ATOM     19  C   UNL     1       1.539   6.867  -0.109  0.00  0.00    +0.036 C 
ATOM     20  N   UNL     1      -0.080   4.463  -0.011  0.00  0.00    -0.234 NA
ATOM     21  C   UNL     1      -1.174   3.745   0.012  0.00  0.00    +0.223 A 
ATOM     22  N   UNL     1      -1.175   2.426   0.063  0.00  0.00    -0.228 NA
ATOM     23  N   UNL     1       4.869   4.102   0.035  0.00  0.00    -0.337 N 
ATOM     24  H   UNL     1       5.652   3.439   0.064  0.00  0.00    +0.168 HD
ENDROOT
BRANCH   1  25
ATOM     25  S   UNL     1       0.003  -0.001   0.179  0.00  0.00    -0.097 S 
BRANCH  25  26
ATOM     26  C   UNL     1      -1.775  -0.340   0.181  0.00  0.00    +0.150 C 
BRANCH  26  30
ATOM     27  C   UNL     1      -2.310  -3.909  -0.384  0.00  0.00    +0.212 A 
ATOM     28  C   UNL     1      -2.326  -3.893   0.982  0.00  0.00    +0.057 A 
ATOM     29  C   UNL     1      -2.124  -2.560   1.373  0.00  0.00    +0.046 A 
ATOM     30  C   UNL     1      -2.003  -1.829   0.243  0.00  0.00    +0.116 A 
ATOM     31  O   UNL     1      -2.113  -2.645  -0.813  0.00  0.00    -0.452 OA
BRANCH  27  32
ATOM     32  C   UNL     1      -2.479  -5.090  -1.233  0.00  0.00    +0.375 C 
ATOM     33  O   UNL     1      -2.652  -6.183  -0.728  0.00  0.00    -0.241 OA
BRANCH  32  35
ATOM     34  C   UNL     1      -2.617  -6.179  -3.355  0.00  0.00    +0.280 C 
ATOM     35  O   UNL     1      -2.442  -4.966  -2.576  0.00  0.00    -0.462 OA
ENDBRANCH  32  35
ENDBRANCH  27  32
ENDBRANCH  26  30
ENDBRANCH  25  26
ENDBRANCH   1  25
TORSDOF 5
