REMARK  Name = ZINC06507143
REMARK  8 active torsions:
REMARK  status: ('A' for Active; 'I' for Inactive)
REMARK    1  A    between atoms: C_1  and  O_2
REMARK    2  A    between atoms: O_2  and  C_3
REMARK    3  A    between atoms: C_3  and  C_5
REMARK    4  A    between atoms: C_5  and  C_6
REMARK    5  A    between atoms: C_13  and  N_34
REMARK    6  A    between atoms: C_14  and  C_32
REMARK    7  A    between atoms: N_22  and  C_25
REMARK    8  A    between atoms: C_25  and  C_26
REMARK                            x       y       z     vdW  Elec       q    Type
REMARK                         _______ _______ _______ _____ _____    ______ ____
ROOT
ATOM      1  C   UNL     1      -2.683  -2.582   0.014  0.00  0.00    +0.055 A 
ATOM      2  C   UNL     1      -3.475  -2.726  -1.059  0.00  0.00    +0.062 A 
ATOM      3  C   UNL     1      -4.745  -3.161  -0.611  0.00  0.00    +0.245 A 
ATOM      4  N   UNL     1      -4.698  -3.270   0.684  0.00  0.00    -0.135 NA
ATOM      5  N   UNL     1      -3.407  -2.916   1.107  0.00  0.00    -0.277 N 
ATOM      6  H   UNL     1      -3.089  -2.911   2.024  0.00  0.00    +0.189 HD
ATOM      7  O   UNL     1      -5.769  -3.395  -1.474  0.00  0.00    -0.421 OA
ATOM      8  C   UNL     1      -5.637  -2.955  -2.741  0.00  0.00    +0.201 C 
ATOM      9  C   UNL     1      -4.475  -2.528  -3.284  0.00  0.00    +0.110 C 
ATOM     10  C   UNL     1      -3.183  -2.499  -2.515  0.00  0.00    +0.145 C 
ATOM     11  C   UNL     1      -2.216  -3.510  -3.040  0.00  0.00    -0.001 A 
ATOM     12  C   UNL     1      -2.288  -4.883  -3.134  0.00  0.00    +0.007 A 
ATOM     13  C   UNL     1      -1.190  -5.537  -3.683  0.00  0.00    +0.000 A 
ATOM     14  C   UNL     1      -0.080  -4.839  -4.114  0.00  0.00    +0.002 A 
ATOM     15  C   UNL     1      -0.000  -3.458  -4.024  0.00  0.00    +0.024 A 
ATOM     16  C   UNL     1      -1.095  -2.790  -3.474  0.00  0.00    +0.041 A 
ATOM     17  N   UNL     1      -1.285  -1.435  -3.268  0.00  0.00    -0.265 N 
ATOM     18  C   UNL     1      -2.485  -1.171  -2.710  0.00  0.00    +0.241 C 
ATOM     19  O   UNL     1      -2.921  -0.077  -2.420  0.00  0.00    -0.274 OA
ENDROOT
BRANCH   8  20
ATOM     20  N   UNL     1      -6.757  -2.942  -3.534  0.00  0.00    -0.328 N 
ATOM     21  H   UNL     1      -7.608  -3.242  -3.177  0.00  0.00    +0.145 HD
ATOM     22  H   UNL     1      -6.698  -2.632  -4.451  0.00  0.00    +0.145 HD
ENDBRANCH   8  20
BRANCH   9  23
ATOM     23  C   UNL     1      -4.475  -2.084  -4.645  0.00  0.00    +0.102 C 
ATOM     24  N   UNL     1      -4.475  -1.732  -5.725  0.00  0.00    -0.191 NA
ENDBRANCH   9  23
BRANCH   1  25
ATOM     25  C   UNL     1      -1.244  -2.135   0.003  0.00  0.00    +0.175 C 
BRANCH  25  26
ATOM     26  C   UNL     1      -1.185  -0.630   0.010  0.00  0.00    +0.313 C 
ATOM     27  O   UNL     1      -2.208   0.015   0.023  0.00  0.00    -0.250 OA
BRANCH  26  29
ATOM     28  C   UNL     1      -0.017   1.425   0.010  0.00  0.00    +0.280 C 
ATOM     29  O   UNL     1       0.002  -0.004   0.002  0.00  0.00    -0.468 OA
ENDBRANCH  26  29
ENDBRANCH  25  26
ENDBRANCH   1  25
BRANCH  17  30
ATOM     30  C   UNL     1      -0.299  -0.408  -3.615  0.00  0.00    +0.148 C 
BRANCH  30  31
ATOM     31  C   UNL     1      -0.537   0.060  -5.027  0.00  0.00    -0.030 A 
ATOM     32  C   UNL     1       0.090  -0.577  -6.082  0.00  0.00    +0.005 A 
ATOM     33  C   UNL     1      -0.128  -0.148  -7.377  0.00  0.00    +0.000 A 
ATOM     34  C   UNL     1      -0.974   0.919  -7.619  0.00  0.00    +0.000 A 
ATOM     35  C   UNL     1      -1.602   1.555  -6.565  0.00  0.00    +0.000 A 
ATOM     36  C   UNL     1      -1.387   1.123  -5.269  0.00  0.00    +0.005 A 
ENDBRANCH  30  31
ENDBRANCH  17  30
TORSDOF 7
