REMARK  Name = ZINC15276519
REMARK  11 active torsions:
REMARK  status: ('A' for Active; 'I' for Inactive)
REMARK    1  A    between atoms: C_1  and  C_2
REMARK    2  A    between atoms: C_2  and  O_3
REMARK    3  A    between atoms: O_3  and  C_4
REMARK    4  A    between atoms: C_6  and  C_11
REMARK    5  A    between atoms: C_9  and  O_10
REMARK    6  A    between atoms: C_16  and  C_21
REMARK    7  A    between atoms: C_27  and  C_39
REMARK    8  A    between atoms: C_28  and  C_29
REMARK    9  A    between atoms: C_29  and  O_31
REMARK   10  A    between atoms: O_31  and  C_32
REMARK   11  A    between atoms: C_32  and  C_33
REMARK                            x       y       z     vdW  Elec       q    Type
REMARK                         _______ _______ _______ _____ _____    ______ ____
ROOT
ATOM      1  C   UNL     1      -4.941  -2.991   0.062  0.00  0.00    +0.092 C 
ATOM      2  C   UNL     1      -3.748  -2.069   0.074  0.00  0.00    +0.024 C 
ATOM      3  C   UNL     1      -3.192  -1.677   1.240  0.00  0.00    +0.016 C 
ATOM      4  C   UNL     1      -2.006  -0.745   1.260  0.00  0.00    +0.060 C 
ATOM      5  C   UNL     1      -1.155  -0.969   0.007  0.00  0.00    +0.039 C 
ATOM      6  C   UNL     1      -2.030  -0.731  -1.228  0.00  0.00    +0.088 C 
ATOM      7  C   UNL     1      -3.231  -1.634  -1.159  0.00  0.00    +0.162 C 
ATOM      8  O   UNL     1      -3.763  -1.997  -2.189  0.00  0.00    -0.292 OA
ATOM      9  N   UNL     1      -3.694  -2.121   2.434  0.00  0.00    -0.321 N 
ATOM     10  C   UNL     1      -4.480  -3.238   2.486  0.00  0.00    +0.016 C 
ATOM     11  C   UNL     1      -5.092  -3.693   1.380  0.00  0.00    +0.065 C 
ATOM     12  C   UNL     1      -4.662  -3.965   3.795  0.00  0.00    +0.061 C 
ATOM     13  H   UNL     1      -3.466  -1.577   3.363  0.00  0.00    +0.152 HD
ENDROOT
BRANCH   1  16
ATOM     14  C   UNL     1      -8.082  -1.710  -1.601  0.00  0.00    +0.162 A 
ATOM     15  C   UNL     1      -6.936  -2.446  -1.347  0.00  0.00    +0.054 A 
ATOM     16  C   UNL     1      -6.185  -2.187  -0.215  0.00  0.00    -0.032 A 
ATOM     17  C   UNL     1      -6.570  -1.188   0.659  0.00  0.00    +0.008 A 
ATOM     18  C   UNL     1      -7.710  -0.447   0.409  0.00  0.00    +0.049 A 
ATOM     19  C   UNL     1      -8.470  -0.705  -0.721  0.00  0.00    +0.158 A 
BRANCH  19  20
ATOM     20  O   UNL     1      -9.591   0.023  -0.968  0.00  0.00    -0.503 OA
ATOM     21  H   UNL     1      -9.897   0.817  -0.271  0.00  0.00    +0.292 HD
ENDBRANCH  19  20
BRANCH  14  22
ATOM     22  O   UNL     1      -8.824  -1.967  -2.711  0.00  0.00    -0.489 OA
BRANCH  22  24
ATOM     23  C   UNL     1      -9.322  -3.155  -4.757  0.00  0.00    +0.048 C 
ATOM     24  C   UNL     1      -8.366  -3.013  -3.570  0.00  0.00    +0.226 C 
ENDBRANCH  22  24
ENDBRANCH  14  22
ENDBRANCH   1  16
BRANCH   5  25
ATOM     25  C   UNL     1       0.002  -0.004   0.002  0.00  0.00    -0.006 A 
ATOM     26  C   UNL     1       1.332  -0.266  -0.012  0.00  0.00    +0.011 A 
ATOM     27  C   UNL     1       2.223   0.790  -0.015  0.00  0.00    +0.008 A 
ATOM     28  C   UNL     1       1.742   2.057  -0.004  0.00  0.00    +0.045 A 
ATOM     29  S   UNL     1      -0.022   1.781   0.012  0.00  0.00    -0.101 S 
ENDBRANCH   5  25
BRANCH  11  30
ATOM     30  C   UNL     1      -5.894  -4.856   1.458  0.00  0.00    +0.338 C 
ATOM     31  O   UNL     1      -6.025  -5.434   2.521  0.00  0.00    -0.245 OA
BRANCH  30  32
ATOM     32  O   UNL     1      -6.515  -5.324   0.355  0.00  0.00    -0.459 OA
BRANCH  32  33
ATOM     33  C   UNL     1      -7.309  -6.502   0.508  0.00  0.00    +0.264 C 
BRANCH  33  34
ATOM     34  C   UNL     1      -7.928  -6.878  -0.840  0.00  0.00    +0.156 C 
ATOM     35  C   UNL     1      -8.750  -8.184  -0.709  0.00  0.00    +0.037 C 
ATOM     36  C   UNL     1      -9.750  -8.023  -1.886  0.00  0.00    +0.031 C 
ATOM     37  C   UNL     1      -9.985  -6.498  -1.909  0.00  0.00    +0.160 C 
ATOM     38  O   UNL     1      -8.875  -5.878  -1.249  0.00  0.00    -0.373 OA
ENDBRANCH  33  34
ENDBRANCH  32  33
ENDBRANCH  30  32
ENDBRANCH  11  30
TORSDOF 9
