REMARK  Name = ZINC28946941
REMARK  12 active torsions:
REMARK  status: ('A' for Active; 'I' for Inactive)
REMARK    1  A    between atoms: C_1  and  C_2
REMARK    2  A    between atoms: C_2  and  C_4
REMARK    3  A    between atoms: C_2  and  N_12
REMARK    4  A    between atoms: C_13  and  C_15
REMARK    5  A    between atoms: C_15  and  C_17
REMARK    6  A    between atoms: C_15  and  S_18
REMARK    7  A    between atoms: S_18  and  C_19
REMARK    8  A    between atoms: C_22  and  C_30
REMARK    9  A    between atoms: N_23  and  C_24
REMARK   10  A    between atoms: C_24  and  C_25
REMARK   11  A    between atoms: C_30  and  C_31
REMARK   12  A    between atoms: C_31  and  C_32
REMARK                            x       y       z     vdW  Elec       q    Type
REMARK                         _______ _______ _______ _____ _____    ______ ____
ROOT
ATOM      1  C   UNL     1      -2.030   3.509  -1.174  0.00  0.00    +0.193 A 
ATOM      2  N   UNL     1      -1.627   4.399  -0.297  0.00  0.00    -0.122 NA
ATOM      3  N   UNL     1      -2.063   5.563  -0.624  0.00  0.00    -0.133 NA
ATOM      4  C   UNL     1      -2.772   5.485  -1.714  0.00  0.00    +0.135 A 
ATOM      5  N   UNL     1      -2.777   4.174  -2.104  0.00  0.00    -0.299 N 
ENDROOT
BRANCH   1   6
ATOM      6  S   UNL     1      -1.681   1.782  -1.150  0.00  0.00    -0.074 S 
BRANCH   6   7
ATOM      7  C   UNL     1      -0.668   1.686   0.347  0.00  0.00    +0.137 C 
ATOM      8  C   UNL     1       0.630   2.468   0.135  0.00  0.00    +0.029 C 
BRANCH   7  10
ATOM      9  N   UNL     1      -0.060  -0.137   1.903  0.00  0.00    -0.308 N 
ATOM     10  C   UNL     1      -0.344   0.245   0.642  0.00  0.00    +0.227 C 
ATOM     11  O   UNL     1      -0.339  -0.572  -0.254  0.00  0.00    -0.275 OA
ATOM     12  H   UNL     1      -0.065   0.604   2.717  0.00  0.00    +0.149 HD
BRANCH   9  14
ATOM     13  C   UNL     1       1.750  -1.780   1.974  0.00  0.00    +0.033 C 
ATOM     14  C   UNL     1       0.255  -1.539   2.191  0.00  0.00    +0.102 C 
BRANCH  14  15
ATOM     15  C   UNL     1      -0.102  -1.850   3.622  0.00  0.00    -0.009 A 
ATOM     16  C   UNL     1      -0.098  -0.844   4.570  0.00  0.00    +0.008 A 
ATOM     17  C   UNL     1      -0.425  -1.129   5.882  0.00  0.00    +0.020 A 
ATOM     18  C   UNL     1      -0.756  -2.422   6.248  0.00  0.00    +0.042 A 
ATOM     19  C   UNL     1      -0.759  -3.429   5.300  0.00  0.00    +0.040 A 
ATOM     20  C   UNL     1      -0.438  -3.142   3.985  0.00  0.00    +0.047 A 
ATOM     21 CL   UNL     1      -0.449  -4.404   2.793  0.00  0.00    -0.083 Cl
ATOM     22 CL   UNL     1      -1.167  -2.780   7.896  0.00  0.00    -0.083 Cl
ENDBRANCH  14  15
ENDBRANCH   9  14
ENDBRANCH   7  10
ENDBRANCH   6   7
ENDBRANCH   1   6
BRANCH   5  23
ATOM     23  C   UNL     1      -3.444   3.602  -3.276  0.00  0.00    +0.199 C 
BRANCH  23  24
ATOM     24  C   UNL     1      -2.523   3.678  -4.466  0.00  0.00    +0.125 A 
ATOM     25  C   UNL     1      -1.620   2.747  -4.823  0.00  0.00    +0.046 A 
ATOM     26  C   UNL     1      -0.982   3.222  -5.991  0.00  0.00    +0.041 A 
ATOM     27  C   UNL     1      -1.527   4.419  -6.274  0.00  0.00    +0.195 A 
ATOM     28  O   UNL     1      -2.459   4.690  -5.346  0.00  0.00    -0.466 OA
ENDBRANCH  23  24
ENDBRANCH   5  23
BRANCH   4  29
ATOM     29  C   UNL     1      -3.459   6.627  -2.416  0.00  0.00    +0.085 C 
BRANCH  29  30
ATOM     30  C   UNL     1      -4.833   6.861  -1.785  0.00  0.00    +0.103 C 
BRANCH  30  31
ATOM     31  C   UNL     1      -5.551   7.954  -2.534  0.00  0.00    +0.211 C 
ATOM     32  O   UNL     1      -5.016   8.493  -3.480  0.00  0.00    -0.276 OA
ATOM     33  N   UNL     1      -6.787   8.332  -2.154  0.00  0.00    -0.329 N 
ATOM     34  H   UNL     1      -7.311   9.130  -2.700  0.00  0.00    +0.145 HD
ATOM     35  H   UNL     1      -7.273   7.843  -1.296  0.00  0.00    +0.145 HD
ENDBRANCH  30  31
ENDBRANCH  29  30
ENDBRANCH   4  29
TORSDOF 10
