REMARK  Name = ZINC14642160
REMARK  6 active torsions:
REMARK  status: ('A' for Active; 'I' for Inactive)
REMARK    1  A    between atoms: C_4  and  C_7
REMARK    2  A    between atoms: C_10  and  O_14
REMARK    3  A    between atoms: O_14  and  C_15
REMARK    4  A    between atoms: C_15  and  C_16
REMARK    5  A    between atoms: N_18  and  N_19
REMARK    6  A    between atoms: C_20  and  C_22
REMARK                            x       y       z     vdW  Elec       q    Type
REMARK                         _______ _______ _______ _____ _____    ______ ____
ROOT
ATOM      1  C   UNL     1       2.279   4.244   0.003  0.00  0.00    +0.267 C 
ATOM      2  O   UNL     1       3.337   3.652  -0.010  0.00  0.00    -0.271 OA
ATOM      3  N   UNL     1       1.121   3.555   0.010  0.00  0.00    -0.231 N 
ATOM      4  H   UNL     1       0.275   4.028   0.021  0.00  0.00    +0.173 HD
ENDROOT
BRANCH   3   5
ATOM      5  N   UNL     1       1.140   2.154   0.003  0.00  0.00    -0.230 N 
ATOM      6  C   UNL     1      -0.018   1.464   0.010  0.00  0.00    +0.268 C 
ATOM      7  O   UNL     1      -1.080   2.058   0.018  0.00  0.00    -0.268 OA
ATOM      8  H   UNL     1       1.987   1.680  -0.008  0.00  0.00    +0.173 HD
BRANCH   6   9
ATOM      9  C   UNL     1       0.002  -0.004   0.002  0.00  0.00    +0.095 A 
ATOM     10  C   UNL     1      -1.051  -0.866   0.013  0.00  0.00    +0.068 A 
ATOM     11  C   UNL     1      -0.820  -2.255  -0.003  0.00  0.00    +0.008 A 
ATOM     12  C   UNL     1      -1.775  -3.304   0.001  0.00  0.00    +0.010 A 
ATOM     13  C   UNL     1      -1.380  -4.603  -0.009  0.00  0.00    +0.001 A 
ATOM     14  C   UNL     1      -0.035  -4.956  -0.024  0.00  0.00    +0.001 A 
ATOM     15  C   UNL     1       0.927  -3.967  -0.028  0.00  0.00    +0.016 A 
ATOM     16  C   UNL     1       0.541  -2.643  -0.017  0.00  0.00    +0.021 A 
ATOM     17  S   UNL     1       1.413  -1.097  -0.017  0.00  0.00    -0.082 S 
ATOM     18 CL   UNL     1      -2.675  -0.255   0.041  0.00  0.00    -0.082 Cl
ENDBRANCH   6   9
ENDBRANCH   3   5
BRANCH   1  19
ATOM     19  C   UNL     1       2.259   5.751   0.011  0.00  0.00    +0.326 C 
BRANCH  19  20
ATOM     20  O   UNL     1       3.599   6.246   0.001  0.00  0.00    -0.482 OA
BRANCH  20  24
ATOM     21  C   UNL     1       4.084  10.347   0.018  0.00  0.00    -0.017 A 
ATOM     22  C   UNL     1       2.805   9.794   0.027  0.00  0.00    +0.012 A 
ATOM     23  C   UNL     1       2.646   8.425   0.016  0.00  0.00    +0.047 A 
ATOM     24  C   UNL     1       3.759   7.595   0.007  0.00  0.00    +0.135 A 
ATOM     25  C   UNL     1       5.036   8.142  -0.002  0.00  0.00    +0.060 A 
ATOM     26  C   UNL     1       5.200   9.512   0.003  0.00  0.00    +0.027 A 
ATOM     27 BR   UNL     1       6.549   7.008  -0.023  0.00  0.00    -0.046 Br
BRANCH  21  31
ATOM     28  C   UNL     1       4.582  14.569   0.036  0.00  0.00    +0.000 A 
ATOM     29  C   UNL     1       3.311  14.026   0.044  0.00  0.00    +0.001 A 
ATOM     30  C   UNL     1       3.143  12.656   0.039  0.00  0.00    +0.008 A 
ATOM     31  C   UNL     1       4.258  11.820   0.024  0.00  0.00    -0.018 A 
ATOM     32  C   UNL     1       5.537  12.373   0.021  0.00  0.00    +0.008 A 
ATOM     33  C   UNL     1       5.693  13.745   0.021  0.00  0.00    +0.001 A 
ENDBRANCH  21  31
ENDBRANCH  20  24
ENDBRANCH  19  20
ENDBRANCH   1  19
TORSDOF 6
