REMARK  Name = ZINC05046073
REMARK  2 active torsions:
REMARK  status: ('A' for Active; 'I' for Inactive)
REMARK    1  A    between atoms: C_5  and  C_7
REMARK    2  A    between atoms: C_5  and  C_9
REMARK                            x       y       z     vdW  Elec       q    Type
REMARK                         _______ _______ _______ _____ _____    ______ ____
ROOT
ATOM      1  C   UNL     1       1.430   2.031  -0.001  0.00  0.00    +0.006 C 
ATOM      2  C   UNL     1       2.083   1.657   1.331  0.00  0.00    +0.027 C 
ATOM      3  C   UNL     1       1.843   0.207   1.636  0.00  0.00    -0.029 C 
ATOM      4  C   UNL     1       0.935  -0.514   1.061  0.00  0.00    -0.002 C 
ATOM      5  C   UNL     1       0.002  -0.004   0.002  0.00  0.00    +0.190 C 
ATOM      6  C   UNL     1      -0.019   1.526   0.010  0.00  0.00    +0.034 C 
ENDROOT
BRANCH   5   7
ATOM      7  C   UNL     1      -1.387  -0.524   0.268  0.00  0.00    +0.377 C 
ATOM      8  O   UNL     1      -2.298   0.250   0.446  0.00  0.00    -0.245 OA
ATOM      9  O   UNL     1      -1.613  -1.847   0.308  0.00  0.00    -0.245 OA
ENDBRANCH   5   7
BRANCH   5  10
ATOM     10  C   UNL     1       0.464  -0.490  -1.348  0.00  0.00    +0.377 C 
ATOM     11  O   UNL     1       0.747   0.306  -2.212  0.00  0.00    -0.245 OA
ATOM     12  O   UNL     1       0.561  -1.807  -1.590  0.00  0.00    -0.245 OA
ENDBRANCH   5  10
TORSDOF 2
