REMARK  Name = ZINC20837679
REMARK  9 active torsions:
REMARK  status: ('A' for Active; 'I' for Inactive)
REMARK    1  A    between atoms: C_4  and  N_7
REMARK    2  A    between atoms: N_7  and  S_8
REMARK    3  A    between atoms: S_8  and  C_11
REMARK    4  A    between atoms: C_14  and  N_17
REMARK    5  A    between atoms: C_18  and  C_20
REMARK    6  A    between atoms: C_20  and  S_21
REMARK    7  A    between atoms: S_21  and  C_22
REMARK    8  A    between atoms: N_27  and  N_28
REMARK    9  A    between atoms: C_29  and  C_30
REMARK                            x       y       z     vdW  Elec       q    Type
REMARK                         _______ _______ _______ _____ _____    ______ ____
ROOT
ATOM      1  N   UNL     1      -1.630   6.299  -0.352  0.00  0.00    -0.285 N 
ATOM      2  C   UNL     1      -2.022   5.013  -0.445  0.00  0.00    +0.227 C 
ATOM      3  O   UNL     1      -3.204   4.739  -0.458  0.00  0.00    -0.275 OA
ATOM      4  H   UNL     1      -0.561   6.543  -0.263  0.00  0.00    +0.155 HD
ENDROOT
BRANCH   1   8
ATOM      5  C   UNL     1      -4.465   9.351  -0.406  0.00  0.00    +0.109 A 
ATOM      6  C   UNL     1      -4.758   8.148   0.209  0.00  0.00    +0.030 A 
ATOM      7  C   UNL     1      -3.820   7.134   0.229  0.00  0.00    +0.025 A 
ATOM      8  C   UNL     1      -2.582   7.324  -0.370  0.00  0.00    +0.034 A 
ATOM      9  C   UNL     1      -2.288   8.536  -0.982  0.00  0.00    +0.025 A 
ATOM     10  C   UNL     1      -3.232   9.544  -1.002  0.00  0.00    +0.030 A 
BRANCH   5  11
ATOM     11  S   UNL     1      -5.664  10.642  -0.428  0.00  0.00    +0.072 S 
ATOM     12  O   UNL     1      -5.417  11.405  -1.601  0.00  0.00    -0.150 OA
ATOM     13  O   UNL     1      -6.921  10.033  -0.167  0.00  0.00    -0.150 OA
BRANCH  11  14
ATOM     14  N   UNL     1      -5.341  11.633   0.859  0.00  0.00    -0.216 N 
ATOM     15  H   UNL     1      -6.079  11.742   1.667  0.00  0.00    +0.174 HD
BRANCH  14  19
ATOM     16  C   UNL     1      -1.736  13.708   1.036  0.00  0.00    +0.000 A 
ATOM     17  C   UNL     1      -2.730  14.126   0.171  0.00  0.00    +0.002 A 
ATOM     18  C   UNL     1      -3.927  13.439   0.109  0.00  0.00    +0.024 A 
ATOM     19  C   UNL     1      -4.132  12.329   0.918  0.00  0.00    +0.048 A 
ATOM     20  C   UNL     1      -3.132  11.915   1.790  0.00  0.00    +0.024 A 
ATOM     21  C   UNL     1      -1.936  12.603   1.843  0.00  0.00    +0.002 A 
ENDBRANCH  14  19
ENDBRANCH  11  14
ENDBRANCH   5  11
ENDBRANCH   1   8
BRANCH   2  22
ATOM     22  C   UNL     1      -0.993   3.915  -0.532  0.00  0.00    +0.173 C 
BRANCH  22  23
ATOM     23  S   UNL     1      -1.828   2.313  -0.645  0.00  0.00    -0.075 S 
BRANCH  23  24
ATOM     24  C   UNL     1      -0.429   1.245  -0.732  0.00  0.00    +0.211 A 
ATOM     25  N   UNL     1      -0.464  -0.116  -0.832  0.00  0.00    -0.186 NA
ATOM     26  C   UNL     1       0.825  -0.570  -0.880  0.00  0.00    +0.232 A 
ATOM     27  N   UNL     1       1.623   0.468  -0.812  0.00  0.00    -0.245 N 
ATOM     28  N   UNL     1       0.829   1.619  -0.718  0.00  0.00    -0.144 NA
ATOM     29  N   UNL     1       1.220  -1.896  -0.982  0.00  0.00    -0.205 N 
ATOM     30  H   UNL     1       0.463  -2.693  -1.032  0.00  0.00    +0.177 HD
ATOM     31  H   UNL     1       2.713   0.326  -0.834  0.00  0.00    +0.192 HD
BRANCH  29  32
ATOM     32  N   UNL     1       2.582  -2.221  -1.020  0.00  0.00    -0.188 NA
ATOM     33  C   UNL     1       2.952  -3.463  -1.116  0.00  0.00    +0.138 C 
BRANCH  33  34
ATOM     34  C   UNL     1       4.384  -3.804  -1.157  0.00  0.00    -0.003 A 
ATOM     35  C   UNL     1       5.365  -2.804  -1.099  0.00  0.00    +0.029 A 
ATOM     36  C   UNL     1       6.694  -3.169  -1.136  0.00  0.00    +0.111 A 
ATOM     37  N   UNL     1       7.046  -4.438  -1.233  0.00  0.00    -0.263 NA
ATOM     38  C   UNL     1       6.156  -5.410  -1.295  0.00  0.00    +0.111 A 
ATOM     39  C   UNL     1       4.805  -5.137  -1.260  0.00  0.00    +0.029 A 
ENDBRANCH  33  34
ENDBRANCH  29  32
ENDBRANCH  23  24
ENDBRANCH  22  23
ENDBRANCH   2  22
TORSDOF 9
