REMARK  Name = ZINC08582674
REMARK  13 active torsions:
REMARK  status: ('A' for Active; 'I' for Inactive)
REMARK    1  A    between atoms: C_1  and  C_2
REMARK    2  A    between atoms: C_2  and  C_3
REMARK    3  A    between atoms: C_3  and  C_5
REMARK    4  A    between atoms: C_3  and  N_66
REMARK    5  A    between atoms: N_9  and  C_10
REMARK    6  A    between atoms: C_10  and  C_11
REMARK    7  A    between atoms: C_16  and  C_17
REMARK    8  A    between atoms: C_16  and  N_66
REMARK    9  A    between atoms: C_17  and  C_18
REMARK   10  A    between atoms: C_24  and  C_25
REMARK   11  A    between atoms: C_24  and  N_66
REMARK   12  A    between atoms: C_31  and  C_36
REMARK   13  A    between atoms: C_34  and  O_35
REMARK                            x       y       z     vdW  Elec       q    Type
REMARK                         _______ _______ _______ _____ _____    ______ ____
ROOT
ATOM      1  N   UNL     1       5.463   4.842  -1.359  0.00  0.00    +0.389 N 
ATOM      2  H   UNL     1       5.367   4.133  -2.095  0.00  0.00    -0.080 HD
ENDROOT
BRANCH   1   3
ATOM      3  C   UNL     1       6.852   5.348  -1.359  0.00  0.00    +0.003 C 
BRANCH   3   4
ATOM      4  C   UNL     1       7.780   4.207  -1.684  0.00  0.00    +0.139 A 
ATOM      5  N   UNL     1       7.715   2.986  -1.210  0.00  0.00    -0.115 NA
ATOM      6  N   UNL     1       8.681   2.307  -1.727  0.00  0.00    -0.023 NA
ATOM      7  N   UNL     1       9.364   3.064  -2.512  0.00  0.00    -0.044 NA
ATOM      8  N   UNL     1       8.841   4.243  -2.512  0.00  0.00    -0.223 N 
BRANCH   8   9
ATOM      9  C   UNL     1       9.312   5.404  -3.271  0.00  0.00    +0.221 C 
BRANCH   9  10
ATOM     10  C   UNL     1      10.310   6.174  -2.445  0.00  0.00    +0.126 A 
ATOM     11  C   UNL     1      11.639   5.970  -2.427  0.00  0.00    +0.046 A 
ATOM     12  C   UNL     1      12.185   6.909  -1.521  0.00  0.00    +0.041 A 
ATOM     13  C   UNL     1      11.155   7.625  -1.034  0.00  0.00    +0.195 A 
ATOM     14  O   UNL     1      10.022   7.175  -1.597  0.00  0.00    -0.466 OA
ENDBRANCH   9  10
ENDBRANCH   8   9
ENDBRANCH   3   4
BRANCH   3  16
ATOM     15  C   UNL     1       6.356   7.162   0.287  0.00  0.00    +0.002 C 
ATOM     16  C   UNL     1       7.211   5.923   0.013  0.00  0.00    -0.011 C 
ENDBRANCH   3  16
ENDBRANCH   1   3
BRANCH   1  17
ATOM     17  C   UNL     1       4.522   5.949  -1.632  0.00  0.00    -0.073 C 
BRANCH  17  18
ATOM     18  C   UNL     1       4.645   6.347  -3.104  0.00  0.00    +0.016 C 
BRANCH  18  19
ATOM     19  C   UNL     1       3.754   7.531  -3.380  0.00  0.00    -0.049 A 
ATOM     20  C   UNL     1       2.448   7.333  -3.787  0.00  0.00    +0.003 A 
ATOM     21  C   UNL     1       1.629   8.419  -4.034  0.00  0.00    +0.000 A 
ATOM     22  C   UNL     1       2.120   9.703  -3.886  0.00  0.00    +0.000 A 
ATOM     23  C   UNL     1       3.428   9.901  -3.485  0.00  0.00    +0.000 A 
ATOM     24  C   UNL     1       4.245   8.815  -3.231  0.00  0.00    +0.003 A 
ENDBRANCH  18  19
ENDBRANCH  17  18
ENDBRANCH   1  17
BRANCH   1  25
ATOM     25  C   UNL     1       5.151   4.224  -0.053  0.00  0.00    -0.037 C 
BRANCH  25  26
ATOM     26  C   UNL     1       3.915   3.374  -0.203  0.00  0.00    -0.002 A 
ATOM     27  C   UNL     1       4.030   2.048  -0.496  0.00  0.00    +0.017 A 
ATOM     28  C   UNL     1       2.850   1.289  -0.627  0.00  0.00    +0.001 A 
ATOM     29  C   UNL     1       2.894  -0.081  -0.927  0.00  0.00    +0.010 A 
ATOM     30  C   UNL     1       1.732  -0.782  -1.047  0.00  0.00    +0.001 A 
ATOM     31  C   UNL     1       0.499  -0.156  -0.876  0.00  0.00    +0.005 A 
ATOM     32  C   UNL     1       0.420   1.171  -0.584  0.00  0.00    -0.024 A 
ATOM     33  C   UNL     1       1.598   1.928  -0.453  0.00  0.00    +0.078 A 
ATOM     34  N   UNL     1       1.549   3.233  -0.167  0.00  0.00    -0.213 NA
ATOM     35  C   UNL     1       2.648   3.947  -0.043  0.00  0.00    +0.214 A 
ATOM     36  C   UNL     1      -0.924   1.828  -0.410  0.00  0.00    +0.046 C 
BRANCH  35  37
ATOM     37  O   UNL     1       2.550   5.267   0.246  0.00  0.00    -0.492 OA
ATOM     38  H   UNL     1       2.546   5.463   1.194  0.00  0.00    +0.294 HD
ENDBRANCH  35  37
ENDBRANCH  25  26
ENDBRANCH   1  25
TORSDOF 11
