REMARK  Name = ZINC13499769
REMARK  8 active torsions:
REMARK  status: ('A' for Active; 'I' for Inactive)
REMARK    1  A    between atoms: C_1  and  C_2
REMARK    2  A    between atoms: C_2  and  C_3
REMARK    3  A    between atoms: C_11  and  C_15
REMARK    4  A    between atoms: C_18  and  S_21
REMARK    5  A    between atoms: S_21  and  C_22
REMARK    6  A    between atoms: C_22  and  C_23
REMARK    7  A    between atoms: C_29  and  C_31
REMARK    8  A    between atoms: C_31  and  C_32
REMARK                            x       y       z     vdW  Elec       q    Type
REMARK                         _______ _______ _______ _____ _____    ______ ____
ROOT
ATOM      1  C   UNL     1      -1.188   1.887  -4.833  0.00  0.00    +0.118 A 
ATOM      2  N   UNL     1      -1.205   1.897  -6.135  0.00  0.00    -0.226 NA
ATOM      3  C   UNL     1      -0.288   1.266  -6.864  0.00  0.00    +0.114 A 
ATOM      4  C   UNL     1       0.765   0.544  -6.284  0.00  0.00    +0.056 A 
ATOM      5  C   UNL     1       1.675  -0.083  -7.172  0.00  0.00    -0.024 A 
ATOM      6  C   UNL     1       1.459   0.065  -8.500  0.00  0.00    -0.004 A 
ATOM      7  S   UNL     1      -0.001   1.066  -8.605  0.00  0.00    -0.073 S 
ATOM      8  C   UNL     1       2.274  -0.496  -9.623  0.00  0.00    +0.046 C 
ATOM      9  C   UNL     1       3.619  -0.970  -9.056  0.00  0.00    -0.009 C 
ATOM     10  C   UNL     1       3.356  -1.803  -7.798  0.00  0.00    +0.008 C 
ATOM     11  C   UNL     1       2.863  -0.899  -6.668  0.00  0.00    +0.037 C 
ATOM     12  C   UNL     1       4.345  -1.823 -10.098  0.00  0.00    +0.008 C 
ATOM     13  C   UNL     1       0.775   0.539  -4.804  0.00  0.00    +0.173 A 
ATOM     14  N   UNL     1      -0.219   1.223  -4.139  0.00  0.00    -0.257 N 
ATOM     15  C   UNL     1       0.045   1.043  -2.809  0.00  0.00    +0.198 A 
ATOM     16  N   UNL     1       1.129   0.306  -2.724  0.00  0.00    -0.122 NA
ATOM     17  N   UNL     1       1.557   0.003  -3.900  0.00  0.00    -0.128 NA
ENDROOT
BRANCH   1  19
ATOM     18  C   UNL     1      -1.809   4.064  -3.821  0.00  0.00    +0.012 C 
ATOM     19  C   UNL     1      -2.262   2.626  -4.076  0.00  0.00    +0.071 C 
ENDBRANCH   1  19
BRANCH  15  20
ATOM     20  S   UNL     1      -0.890   1.687  -1.462  0.00  0.00    -0.076 S 
BRANCH  20  21
ATOM     21  C   UNL     1      -0.013   1.086   0.008  0.00  0.00    +0.173 C 
BRANCH  21  22
ATOM     22  C   UNL     1      -0.718   1.572   1.248  0.00  0.00    +0.229 C 
ATOM     23  O   UNL     1      -1.715   2.256   1.150  0.00  0.00    -0.275 OA
ATOM     24  N   UNL     1      -0.242   1.246   2.466  0.00  0.00    -0.263 N 
ATOM     25  C   UNL     1      -0.892   1.694   3.610  0.00  0.00    +0.188 A 
ATOM     26  N   UNL     1      -1.978   2.440   3.724  0.00  0.00    -0.126 NA
ATOM     27  N   UNL     1      -2.449   2.765   4.849  0.00  0.00    -0.145 NA
ATOM     28  C   UNL     1      -1.866   2.366   5.962  0.00  0.00    +0.103 A 
ATOM     29  S   UNL     1      -0.506   1.422   5.284  0.00  0.00    -0.035 S 
ATOM     30  H   UNL     1       0.555   0.699   2.544  0.00  0.00    +0.157 HD
BRANCH  28  31
ATOM     31  C   UNL     1      -2.242   2.626   7.398  0.00  0.00    +0.061 C 
ATOM     32  C   UNL     1      -3.185   1.525   7.886  0.00  0.00    +0.011 C 
ENDBRANCH  28  31
ENDBRANCH  21  22
ENDBRANCH  20  21
ENDBRANCH  15  20
TORSDOF 5
