REMARK  Name = ZINC15974065
REMARK  7 active torsions:
REMARK  status: ('A' for Active; 'I' for Inactive)
REMARK    1  A    between atoms: C_4  and  C_7
REMARK    2  A    between atoms: C_7  and  N_8
REMARK    3  A    between atoms: C_10  and  C_17
REMARK    4  A    between atoms: N_18  and  N_19
REMARK    5  A    between atoms: C_20  and  C_22
REMARK    6  A    between atoms: C_22  and  N_23
REMARK    7  A    between atoms: N_23  and  C_24
REMARK                            x       y       z     vdW  Elec       q    Type
REMARK                         _______ _______ _______ _____ _____    ______ ____
ROOT
ATOM      1  C   UNL     1       9.441  -3.687   4.862  0.00  0.00    +0.140 C 
ATOM      2  N   UNL     1      10.714  -3.608   5.106  0.00  0.00    -0.188 NA
ENDROOT
BRANCH   1   5
ATOM      3  N   UNL     1       8.255  -7.070   5.571  0.00  0.00    -0.342 N 
ATOM      4  C   UNL     1       9.160  -6.059   5.700  0.00  0.00    +0.096 A 
ATOM      5  C   UNL     1       8.747  -4.979   4.984  0.00  0.00    +0.020 A 
ATOM      6  C   UNL     1       7.467  -5.354   4.358  0.00  0.00    +0.009 A 
ATOM      7  C   UNL     1       7.213  -6.677   4.758  0.00  0.00    +0.050 A 
ATOM      8  C   UNL     1       6.059  -7.314   4.315  0.00  0.00    +0.026 A 
ATOM      9  C   UNL     1       5.181  -6.649   3.487  0.00  0.00    +0.002 A 
ATOM     10  C   UNL     1       5.436  -5.345   3.088  0.00  0.00    +0.001 A 
ATOM     11  C   UNL     1       6.573  -4.696   3.516  0.00  0.00    +0.010 A 
BRANCH   3  12
ATOM     12  C   UNL     1       8.372  -8.385   6.206  0.00  0.00    +0.157 C 
BRANCH  12  16
ATOM     13  C   UNL     1      10.167 -11.132   3.471  0.00  0.00    +0.000 A 
ATOM     14  C   UNL     1      10.960 -10.391   4.327  0.00  0.00    +0.000 A 
ATOM     15  C   UNL     1      10.379  -9.502   5.212  0.00  0.00    +0.005 A 
ATOM     16  C   UNL     1       9.005  -9.354   5.241  0.00  0.00    -0.028 A 
ATOM     17  C   UNL     1       8.212 -10.099   4.388  0.00  0.00    +0.005 A 
ATOM     18  C   UNL     1       8.793 -10.984   3.499  0.00  0.00    +0.000 A 
ENDBRANCH  12  16
ENDBRANCH   3  12
ENDBRANCH   1   5
BRANCH   2  19
ATOM     19  N   UNL     1      11.468  -4.776   5.282  0.00  0.00    -0.206 N 
ATOM     20  C   UNL     1      12.762  -4.694   5.648  0.00  0.00    +0.249 C 
ATOM     21  O   UNL     1      13.275  -3.608   5.825  0.00  0.00    -0.272 OA
ATOM     22  H   UNL     1      11.058  -5.643   5.139  0.00  0.00    +0.177 HD
BRANCH  20  23
ATOM     23  C   UNL     1      13.573  -5.950   5.837  0.00  0.00    +0.199 C 
BRANCH  23  24
ATOM     24  N   UNL     1      14.938  -5.595   6.231  0.00  0.00    -0.335 N 
ATOM     25  H   UNL     1      15.188  -4.663   6.330  0.00  0.00    +0.147 HD
BRANCH  24  26
ATOM     26  C   UNL     1      15.883  -6.601   6.466  0.00  0.00    +0.031 A 
ATOM     27  C   UNL     1      15.526  -7.935   6.324  0.00  0.00    +0.027 A 
ATOM     28  C   UNL     1      16.457  -8.929   6.555  0.00  0.00    +0.051 A 
ATOM     29  C   UNL     1      17.750  -8.598   6.928  0.00  0.00    +0.166 A 
ATOM     30  C   UNL     1      18.111  -7.261   7.070  0.00  0.00    +0.168 A 
ATOM     31  C   UNL     1      17.177  -6.265   6.839  0.00  0.00    +0.072 A 
ATOM     32  O   UNL     1      19.424  -7.200   7.440  0.00  0.00    -0.453 OA
ATOM     33  C   UNL     1      19.972  -8.494   7.125  0.00  0.00    +0.466 C 
ATOM     34  O   UNL     1      18.837  -9.376   7.208  0.00  0.00    -0.453 OA
ENDBRANCH  24  26
ENDBRANCH  23  24
ENDBRANCH  20  23
ENDBRANCH   2  19
TORSDOF 7
