REMARK  Name = ZINC57709874
REMARK  8 active torsions:
REMARK  status: ('A' for Active; 'I' for Inactive)
REMARK    1  A    between atoms: C_1  and  C_2
REMARK    2  A    between atoms: C_7  and  C_14
REMARK    3  A    between atoms: C_14  and  N_15
REMARK    4  A    between atoms: N_15  and  C_16
REMARK    5  A    between atoms: C_31  and  C_33
REMARK    6  A    between atoms: C_33  and  N_34
REMARK    7  A    between atoms: N_34  and  C_35
REMARK    8  A    between atoms: N_34  and  C_36
REMARK                            x       y       z     vdW  Elec       q    Type
REMARK                         _______ _______ _______ _____ _____    ______ ____
ROOT
ATOM      1  C   UNL     1       1.700  -8.299   1.349  0.00  0.00    +0.029 A 
ATOM      2  C   UNL     1       0.683  -9.243   1.271  0.00  0.00    +0.023 A 
ATOM      3  C   UNL     1       0.975 -10.592   1.340  0.00  0.00    +0.007 A 
ATOM      4  C   UNL     1       2.292 -11.002   1.482  0.00  0.00    -0.025 A 
ATOM      5  C   UNL     1       3.297 -10.072   1.542  0.00  0.00    +0.046 A 
ATOM      6  C   UNL     1       3.020  -8.715   1.481  0.00  0.00    +0.047 A 
ATOM      7  N   UNL     1       4.607 -10.541   1.629  0.00  0.00    -0.241 N 
ATOM      8  C   UNL     1       5.095 -11.240   2.730  0.00  0.00    +0.044 A 
ATOM      9  C   UNL     1       6.358 -10.853   3.191  0.00  0.00    +0.024 A 
ATOM     10  C   UNL     1       6.925 -11.455   4.291  0.00  0.00    +0.002 A 
ATOM     11  C   UNL     1       6.230 -12.455   4.948  0.00  0.00    +0.000 A 
ATOM     12  C   UNL     1       4.994 -12.845   4.490  0.00  0.00    +0.005 A 
ATOM     13  C   UNL     1       4.412 -12.254   3.364  0.00  0.00    -0.025 A 
ATOM     14  C   UNL     1       3.088 -12.851   2.961  0.00  0.00    +0.042 C 
ATOM     15  C   UNL     1       2.618 -12.462   1.582  0.00  0.00    +0.042 C 
ATOM     16  C   UNL     1       5.441 -10.307   0.598  0.00  0.00    +0.208 C 
ATOM     17  O   UNL     1       6.608 -10.630   0.676  0.00  0.00    -0.277 OA
ENDROOT
BRANCH   1  18
ATOM     18  N   UNL     1       1.397  -6.937   1.288  0.00  0.00    -0.339 N 
ATOM     19  H   UNL     1       2.109  -6.280   1.339  0.00  0.00    +0.146 HD
BRANCH  18  20
ATOM     20  C   UNL     1       0.006  -6.501   1.149  0.00  0.00    +0.142 C 
BRANCH  20  27
ATOM     21  C   UNL     1      -0.270   1.380  -0.044  0.00  0.00    +0.044 C 
ATOM     22  C   UNL     1      -0.216  -0.126  -0.052  0.00  0.00    -0.048 A 
ATOM     23  C   UNL     1      -0.187  -0.806  -1.262  0.00  0.00    +0.004 A 
ATOM     24  C   UNL     1      -0.138  -2.171  -1.291  0.00  0.00    +0.010 A 
ATOM     25  C   UNL     1      -0.118  -2.890  -0.091  0.00  0.00    -0.001 A 
ATOM     26  C   UNL     1      -0.066  -4.353  -0.086  0.00  0.00    +0.020 A 
ATOM     27  C   UNL     1      -0.048  -4.996   1.108  0.00  0.00    +0.034 A 
ATOM     28  C   UNL     1      -0.079  -4.261   2.312  0.00  0.00    +0.254 A 
ATOM     29  O   UNL     1      -0.062  -4.858   3.374  0.00  0.00    -0.268 OA
ATOM     30  N   UNL     1      -0.128  -2.917   2.317  0.00  0.00    -0.322 N 
ATOM     31  H   UNL     1      -0.148  -2.442   3.163  0.00  0.00    +0.169 HD
ATOM     32  C   UNL     1      -0.148  -2.204   1.138  0.00  0.00    +0.049 A 
ATOM     33  C   UNL     1      -0.192  -0.813   1.143  0.00  0.00    +0.029 A 
ENDBRANCH  20  27
ENDBRANCH  18  20
ENDBRANCH   1  18
BRANCH  16  34
ATOM     34  C   UNL     1       4.926  -9.643  -0.653  0.00  0.00    +0.019 C 
BRANCH  34  35
ATOM     35  N   UNL     1       5.983  -9.631  -1.673  0.00  0.00    +0.382 N 
ATOM     36  C   UNL     1       6.300 -11.010  -2.067  0.00  0.00    -0.096 C 
ATOM     37  C   UNL     1       5.522  -8.879  -2.848  0.00  0.00    -0.096 C 
ATOM     38  H   UNL     1       6.809  -9.191  -1.295  0.00  0.00    -0.082 HD
ENDBRANCH  34  35
ENDBRANCH  16  34
TORSDOF 5
