REMARK  Name = ZINC20916675
REMARK  9 active torsions:
REMARK  status: ('A' for Active; 'I' for Inactive)
REMARK    1  A    between atoms: C_10  and  N_11
REMARK    2  A    between atoms: C_12  and  C_14
REMARK    3  A    between atoms: C_14  and  C_15
REMARK    4  A    between atoms: C_15  and  S_16
REMARK    5  A    between atoms: S_16  and  C_17
REMARK    6  A    between atoms: N_21  and  N_22
REMARK    7  A    between atoms: N_23  and  N_24
REMARK    8  A    between atoms: C_25  and  C_26
REMARK    9  A    between atoms: C_35  and  O_36
REMARK                            x       y       z     vdW  Elec       q    Type
REMARK                         _______ _______ _______ _____ _____    ______ ____
ROOT
ATOM      1  C   UNL     1      -0.024   1.759  -0.023  0.00  0.00    +0.210 A 
ATOM      2  N   UNL     1      -1.096   2.515  -0.008  0.00  0.00    -0.119 NA
ATOM      3  N   UNL     1      -0.681   3.853  -0.005  0.00  0.00    -0.109 NA
ATOM      4  C   UNL     1       0.630   3.872  -0.026  0.00  0.00    +0.254 A 
ATOM      5  N   UNL     1       1.070   2.577  -0.038  0.00  0.00    -0.211 N 
ATOM      6  N   UNL     1       1.429   5.005  -0.036  0.00  0.00    -0.204 N 
ATOM      7  H   UNL     1       2.524   4.905  -0.054  0.00  0.00    +0.177 HD
ENDROOT
BRANCH   5   8
ATOM      8  N   UNL     1       2.375   2.173  -0.060  0.00  0.00    -0.294 N 
ATOM      9  H   UNL     1       3.182   2.920  -0.071  0.00  0.00    +0.163 HD
ATOM     10  H   UNL     1       2.618   1.100  -0.067  0.00  0.00    +0.163 HD
ENDBRANCH   5   8
BRANCH   6  11
ATOM     11  N   UNL     1       0.842   6.277  -0.022  0.00  0.00    -0.187 NA
ATOM     12  C   UNL     1       1.591   7.339  -0.031  0.00  0.00    +0.142 C 
BRANCH  12  13
ATOM     13  C   UNL     1       0.975   8.673  -0.016  0.00  0.00    +0.044 A 
ATOM     14  C   UNL     1       1.803   9.878  -0.020  0.00  0.00    -0.006 A 
ATOM     15  C   UNL     1       3.201   9.804  -0.038  0.00  0.00    +0.009 A 
ATOM     16  C   UNL     1       3.936  10.952  -0.040  0.00  0.00    +0.001 A 
ATOM     17  C   UNL     1       3.316  12.199  -0.026  0.00  0.00    +0.001 A 
ATOM     18  C   UNL     1       1.959  12.307  -0.018  0.00  0.00    +0.008 A 
ATOM     19  C   UNL     1       1.169  11.145  -0.010  0.00  0.00    -0.017 A 
ATOM     20  C   UNL     1      -0.235  11.217   0.014  0.00  0.00    +0.012 A 
ATOM     21  C   UNL     1      -0.990  10.086   0.022  0.00  0.00    +0.046 A 
ATOM     22  C   UNL     1      -0.412   8.818   0.007  0.00  0.00    +0.126 A 
BRANCH  22  23
ATOM     23  O   UNL     1      -1.204   7.715   0.016  0.00  0.00    -0.506 OA
ATOM     24  H   UNL     1      -2.299   7.824   0.035  0.00  0.00    +0.292 HD
ENDBRANCH  22  23
ENDBRANCH  12  13
ENDBRANCH   6  11
BRANCH   1  25
ATOM     25  S   UNL     1       0.001  -0.003  -0.030  0.00  0.00    -0.084 S 
BRANCH  25  26
ATOM     26  C   UNL     1      -1.753  -0.466  -0.003  0.00  0.00    +0.086 C 
BRANCH  26  27
ATOM     27  C   UNL     1      -1.878  -1.991  -0.006  0.00  0.00    +0.107 C 
BRANCH  27  29
ATOM     28  N   UNL     1      -3.688  -3.677   0.018  0.00  0.00    -0.285 N 
ATOM     29  C   UNL     1      -3.335  -2.376   0.017  0.00  0.00    +0.218 C 
ATOM     30  O   UNL     1      -4.189  -1.515   0.034  0.00  0.00    -0.275 OA
ATOM     31  H   UNL     1      -2.917  -4.456  -0.073  0.00  0.00    +0.155 HD
BRANCH  28  41
ATOM     32  C   UNL     1      -6.173  -7.484   2.208  0.00  0.00    +0.001 A 
ATOM     33  C   UNL     1      -4.825  -7.146   2.104  0.00  0.00    +0.001 A 
ATOM     34  C   UNL     1      -4.434  -6.027   1.433  0.00  0.00    +0.010 A 
ATOM     35  C   UNL     1      -5.400  -5.204   0.833  0.00  0.00    +0.003 A 
ATOM     36  C   UNL     1      -6.771  -5.545   0.942  0.00  0.00    -0.016 A 
ATOM     37  C   UNL     1      -7.137  -6.708   1.643  0.00  0.00    +0.008 A 
ATOM     38  C   UNL     1      -7.739  -4.720   0.345  0.00  0.00    +0.008 A 
ATOM     39  C   UNL     1      -7.355  -3.600  -0.328  0.00  0.00    +0.002 A 
ATOM     40  C   UNL     1      -6.012  -3.252  -0.438  0.00  0.00    +0.024 A 
ATOM     41  C   UNL     1      -5.032  -4.035   0.134  0.00  0.00    +0.041 A 
ENDBRANCH  28  41
ENDBRANCH  27  29
ENDBRANCH  26  27
ENDBRANCH  25  26
ENDBRANCH   1  25
TORSDOF 9
