REMARK  Name = ZINC14961761
REMARK  10 active torsions:
REMARK  status: ('A' for Active; 'I' for Inactive)
REMARK    1  A    between atoms: C_1  and  C_2
REMARK    2  A    between atoms: C_5  and  C_12
REMARK    3  A    between atoms: C_14  and  O_18
REMARK    4  A    between atoms: O_18  and  C_19
REMARK    5  A    between atoms: C_19  and  C_20
REMARK    6  A    between atoms: C_20  and  C_22
REMARK    7  A    between atoms: C_20  and  N_53
REMARK    8  A    between atoms: C_22  and  C_23
REMARK    9  A    between atoms: C_26  and  O_29
REMARK   10  A    between atoms: O_29  and  C_30
REMARK                            x       y       z     vdW  Elec       q    Type
REMARK                         _______ _______ _______ _____ _____    ______ ____
ROOT
ATOM      1  O   UNL     1      -9.260   2.540  -0.058  0.00  0.00    -0.492 OA
ENDROOT
BRANCH   1   4
ATOM      2  C   UNL     1      -5.660   1.991   0.026  0.00  0.00    +0.004 A 
ATOM      3  C   UNL     1      -6.942   2.328   0.464  0.00  0.00    +0.057 A 
ATOM      4  C   UNL     1      -7.994   2.223  -0.437  0.00  0.00    +0.139 A 
ATOM      5  C   UNL     1      -7.736   1.791  -1.731  0.00  0.00    +0.156 A 
ATOM      6  N   UNL     1      -6.511   1.481  -2.111  0.00  0.00    -0.259 NA
ATOM      7  C   UNL     1      -5.484   1.571  -1.291  0.00  0.00    +0.119 A 
BRANCH   2  12
ATOM      8  C   UNL     1      -0.013   1.086   0.008  0.00  0.00    +0.068 C 
ATOM      9  C   UNL     1      -0.718   1.572   1.248  0.00  0.00    +0.067 A 
ATOM     10  C   UNL     1      -2.147   1.844   1.374  0.00  0.00    +0.023 A 
ATOM     11  C   UNL     1      -3.233   1.748   0.499  0.00  0.00    +0.020 A 
ATOM     12  C   UNL     1      -4.500   2.085   0.948  0.00  0.00    -0.016 A 
ATOM     13  C   UNL     1      -4.690   2.514   2.267  0.00  0.00    +0.010 A 
ATOM     14  C   UNL     1      -3.637   2.606   3.128  0.00  0.00    +0.028 A 
ATOM     15  C   UNL     1      -2.353   2.271   2.701  0.00  0.00    +0.066 A 
ATOM     16  N   UNL     1      -1.126   2.260   3.313  0.00  0.00    -0.277 N 
ATOM     17  H   UNL     1      -0.950   2.518   4.263  0.00  0.00    +0.189 HD
ATOM     18  N   UNL     1      -0.161   1.829   2.397  0.00  0.00    -0.178 NA
ENDBRANCH   2  12
ENDBRANCH   1   4
BRANCH   1  19
ATOM     19  C   UNL     1     -10.286   2.405  -1.043  0.00  0.00    +0.213 C 
BRANCH  19  20
ATOM     20  C   UNL     1     -11.632   2.804  -0.436  0.00  0.00    -0.033 C 
BRANCH  20  23
ATOM     21  H   UNL     1     -10.925   4.420   0.626  0.00  0.00    -0.089 HD
ATOM     22  H   UNL     1     -11.443   4.799  -0.908  0.00  0.00    -0.089 HD
ATOM     23  N   UNL     1     -11.634   4.234  -0.082  0.00  0.00    +0.382 N 
ATOM     24  H   UNL     1     -12.555   4.489   0.292  0.00  0.00    -0.089 HD
ENDBRANCH  20  23
BRANCH  20  25
ATOM     25  C   UNL     1     -12.747   2.542  -1.451  0.00  0.00    +0.022 C 
BRANCH  25  26
ATOM     26  C   UNL     1     -14.083   2.818  -0.811  0.00  0.00    -0.049 A 
ATOM     27  C   UNL     1     -14.760   1.803  -0.161  0.00  0.00    +0.007 A 
ATOM     28  C   UNL     1     -15.982   2.055   0.431  0.00  0.00    +0.046 A 
ATOM     29  C   UNL     1     -16.536   3.325   0.363  0.00  0.00    +0.130 A 
ATOM     30  C   UNL     1     -15.858   4.341  -0.295  0.00  0.00    +0.046 A 
ATOM     31  C   UNL     1     -14.633   4.085  -0.881  0.00  0.00    +0.007 A 
BRANCH  29  32
ATOM     32  O   UNL     1     -17.741   3.575   0.940  0.00  0.00    -0.406 OA
BRANCH  32  33
ATOM     33  C   UNL     1     -18.383   2.482   1.601  0.00  0.00    +0.575 C 
ATOM     34  F   UNL     1     -17.561   2.013   2.632  0.00  0.00    -0.133 F 
ATOM     35  F   UNL     1     -19.603   2.910   2.134  0.00  0.00    -0.133 F 
ATOM     36  F   UNL     1     -18.611   1.451   0.682  0.00  0.00    -0.133 F 
ENDBRANCH  32  33
ENDBRANCH  29  32
ENDBRANCH  25  26
ENDBRANCH  20  25
ENDBRANCH  19  20
ENDBRANCH   1  19
TORSDOF 9
