REMARK  Name = ZINC58776635
REMARK  14 active torsions:
REMARK  status: ('A' for Active; 'I' for Inactive)
REMARK    1  A    between atoms: C_1  and  C_2
REMARK    2  A    between atoms: C_2  and  O_3
REMARK    3  A    between atoms: O_3  and  C_4
REMARK    4  A    between atoms: C_4  and  C_5
REMARK    5  A    between atoms: C_5  and  C_6
REMARK    6  A    between atoms: C_6  and  N_7
REMARK    7  A    between atoms: C_8  and  C_10
REMARK    8  A    between atoms: N_13  and  C_16
REMARK    9  A    between atoms: C_16  and  C_17
REMARK   10  A    between atoms: N_19  and  C_20
REMARK   11  A    between atoms: C_21  and  C_31
REMARK   12  A    between atoms: C_26  and  C_30
REMARK   13  A    between atoms: C_31  and  O_33
REMARK   14  A    between atoms: O_33  and  C_34
REMARK                            x       y       z     vdW  Elec       q    Type
REMARK                         _______ _______ _______ _____ _____    ______ ____
ROOT
ATOM      1  C   UNL     1      -9.769  -7.833  -1.372  0.00  0.00    +0.019 C 
ENDROOT
BRANCH   1   5
ATOM      2  C   UNL     1      -6.198  -5.977   0.029  0.00  0.00    +0.071 C 
ATOM      3  C   UNL     1      -6.896  -5.423  -1.216  0.00  0.00    -0.006 C 
ATOM      4  C   UNL     1      -8.347  -5.907  -1.239  0.00  0.00    -0.077 C 
ATOM      5  N   UNL     1      -8.377  -7.375  -1.272  0.00  0.00    +0.385 N 
ATOM      6  C   UNL     1      -7.773  -7.912  -0.046  0.00  0.00    -0.077 C 
ATOM      7  C   UNL     1      -6.300  -7.505   0.022  0.00  0.00    -0.006 C 
ATOM      8  H   UNL     1      -7.859  -7.702  -2.073  0.00  0.00    -0.081 HD
BRANCH   2  10
ATOM      9  N   UNL     1      -4.415  -4.263   0.021  0.00  0.00    -0.315 N 
ATOM     10  C   UNL     1      -4.747  -5.569   0.018  0.00  0.00    +0.216 C 
ATOM     11  O   UNL     1      -3.879  -6.416   0.005  0.00  0.00    -0.276 OA
ATOM     12  H   UNL     1      -5.109  -3.586   0.032  0.00  0.00    +0.149 HD
BRANCH   9  13
ATOM     13  C   UNL     1      -3.005  -3.866   0.010  0.00  0.00    +0.106 C 
BRANCH  13  14
ATOM     14  C   UNL     1      -2.905  -2.339   0.017  0.00  0.00    +0.047 C 
BRANCH  14  15
ATOM     15  C   UNL     1      -1.432  -1.925   0.005  0.00  0.00    +0.161 C 
BRANCH  15  16
ATOM     16  O   UNL     1      -1.339  -0.499   0.012  0.00  0.00    -0.380 OA
BRANCH  16  18
ATOM     17  C   UNL     1      -0.019   1.526   0.010  0.00  0.00    +0.034 C 
ATOM     18  C   UNL     1       0.002  -0.004   0.002  0.00  0.00    +0.156 C 
ENDBRANCH  16  18
ENDBRANCH  15  16
ENDBRANCH  14  15
ENDBRANCH  13  14
ENDBRANCH   9  13
ENDBRANCH   2  10
ENDBRANCH   1   5
BRANCH   1  19
ATOM     19  C   UNL     1      -9.795  -9.331  -1.529  0.00  0.00    +0.201 C 
ATOM     20  O   UNL     1      -8.756  -9.956  -1.555  0.00  0.00    -0.278 OA
ATOM     21  N   UNL     1     -10.973  -9.977  -1.641  0.00  0.00    -0.281 N 
ATOM     22  H   UNL     1     -11.804  -9.477  -1.620  0.00  0.00    +0.155 HD
BRANCH  21  23
ATOM     23  C   UNL     1     -10.996 -11.355  -1.786  0.00  0.00    +0.086 A 
ATOM     24  C   UNL     1     -12.103 -12.180  -1.919  0.00  0.00    +0.091 A 
ATOM     25  C   UNL     1     -11.856 -13.605  -2.057  0.00  0.00    -0.021 A 
ATOM     26  C   UNL     1     -10.550 -13.944  -2.037  0.00  0.00    -0.004 A 
ATOM     27  S   UNL     1      -9.690 -12.409  -1.847  0.00  0.00    -0.077 S 
ATOM     28  C   UNL     1      -9.976 -15.322  -2.154  0.00  0.00    +0.046 C 
ATOM     29  C   UNL     1     -11.106 -16.336  -1.924  0.00  0.00    -0.009 C 
ATOM     30  C   UNL     1     -12.314 -15.934  -2.776  0.00  0.00    +0.008 C 
ATOM     31  C   UNL     1     -12.944 -14.658  -2.215  0.00  0.00    +0.037 C 
ATOM     32  C   UNL     1     -10.632 -17.733  -2.331  0.00  0.00    +0.008 C 
BRANCH  24  33
ATOM     33  C   UNL     1     -13.463 -11.637  -1.920  0.00  0.00    +0.342 C 
ATOM     34  O   UNL     1     -13.984 -11.303  -2.967  0.00  0.00    -0.245 OA
BRANCH  33  35
ATOM     35  O   UNL     1     -14.139 -11.509  -0.759  0.00  0.00    -0.464 OA
ATOM     36  C   UNL     1     -15.461 -10.972  -0.834  0.00  0.00    +0.280 C 
ENDBRANCH  33  35
ENDBRANCH  24  33
ENDBRANCH  21  23
ENDBRANCH   1  19
TORSDOF 11
