REMARK  Name = ZINC39671012
REMARK  8 active torsions:
REMARK  status: ('A' for Active; 'I' for Inactive)
REMARK    1  A    between atoms: C_1  and  O_2
REMARK    2  A    between atoms: O_2  and  C_3
REMARK    3  A    between atoms: C_6  and  C_13
REMARK    4  A    between atoms: C_8  and  C_9
REMARK    5  A    between atoms: C_17  and  C_26
REMARK    6  A    between atoms: N_28  and  C_29
REMARK    7  A    between atoms: C_29  and  C_30
REMARK    8  A    between atoms: C_30  and  C_31
REMARK                            x       y       z     vdW  Elec       q    Type
REMARK                         _______ _______ _______ _____ _____    ______ ____
ROOT
ATOM      1  C   UNL     1       2.572  -2.535   4.288  0.00  0.00    +0.247 C 
ATOM      2  O   UNL     1       2.532  -3.746   4.390  0.00  0.00    -0.270 OA
ATOM      3  N   UNL     1       3.219  -1.802   5.214  0.00  0.00    -0.296 N 
ATOM      4  C   UNL     1       3.268  -0.325   5.332  0.00  0.00    +0.121 C 
ATOM      5  C   UNL     1       3.185  -0.051   6.850  0.00  0.00    +0.100 C 
ATOM      6  C   UNL     1       3.696  -1.343   7.510  0.00  0.00    -0.004 C 
ATOM      7  C   UNL     1       4.037  -2.289   6.351  0.00  0.00    +0.115 C 
ATOM      8  C   UNL     1       4.941  -1.054   8.342  0.00  0.00    -0.010 C 
ATOM      9  C   UNL     1       5.397  -2.341   9.035  0.00  0.00    -0.082 C 
ATOM     10  N   UNL     1       4.317  -2.845   9.893  0.00  0.00    +0.379 N 
ATOM     11  C   UNL     1       3.155  -3.208   9.074  0.00  0.00    -0.082 C 
ATOM     12  C   UNL     1       2.605  -1.958   8.382  0.00  0.00    -0.010 C 
ATOM     13  H   UNL     1       4.641  -3.659  10.395  0.00  0.00    -0.086 HD
ATOM     14  H   UNL     1       4.052  -2.130  10.553  0.00  0.00    -0.086 HD
ENDROOT
BRANCH   1  18
ATOM     15  C   UNL     1       0.670  -0.619   1.010  0.00  0.00    +0.132 A 
ATOM     16  C   UNL     1       1.728   0.006   1.660  0.00  0.00    +0.047 A 
ATOM     17  C   UNL     1       2.347  -0.612   2.723  0.00  0.00    +0.016 A 
ATOM     18  C   UNL     1       1.911  -1.869   3.148  0.00  0.00    +0.038 A 
ATOM     19  C   UNL     1       0.847  -2.494   2.492  0.00  0.00    +0.029 A 
ATOM     20  C   UNL     1       0.230  -1.867   1.433  0.00  0.00    +0.097 A 
BRANCH  20  21
ATOM     21  C   UNL     1      -0.921  -2.538   0.728  0.00  0.00    +0.421 C 
ATOM     22  F   UNL     1      -1.179  -3.774   1.329  0.00  0.00    -0.166 F 
ATOM     23  F   UNL     1      -2.059  -1.729   0.819  0.00  0.00    -0.166 F 
ATOM     24  F   UNL     1      -0.594  -2.733  -0.618  0.00  0.00    -0.166 F 
ENDBRANCH  20  21
BRANCH  15  26
ATOM     25  C   UNL     1       0.566   1.276  -0.421  0.00  0.00    +0.277 C 
ATOM     26  O   UNL     1       0.063  -0.006  -0.038  0.00  0.00    -0.495 OA
ENDBRANCH  15  26
ENDBRANCH   1  18
BRANCH   5  27
ATOM     27  C   UNL     1       4.064   1.115   7.222  0.00  0.00    +0.218 C 
ATOM     28  O   UNL     1       5.019   1.398   6.531  0.00  0.00    -0.275 OA
ATOM     29  N   UNL     1       3.789   1.842   8.323  0.00  0.00    -0.315 N 
ATOM     30  H   UNL     1       3.026   1.615   8.876  0.00  0.00    +0.149 HD
BRANCH  29  31
ATOM     31  C   UNL     1       4.644   2.975   8.685  0.00  0.00    +0.112 C 
BRANCH  31  32
ATOM     32  C   UNL     1       4.116   3.624   9.966  0.00  0.00    +0.093 C 
BRANCH  32  33
ATOM     33  C   UNL     1       4.996   4.790  10.338  0.00  0.00    +0.106 A 
ATOM     34  C   UNL     1       4.823   6.063   9.941  0.00  0.00    +0.044 A 
ATOM     35  C   UNL     1       5.870   6.818  10.520  0.00  0.00    +0.041 A 
ATOM     36  C   UNL     1       6.619   5.960  11.236  0.00  0.00    +0.195 A 
ATOM     37  O   UNL     1       6.081   4.734  11.126  0.00  0.00    -0.468 OA
ENDBRANCH  32  33
ENDBRANCH  31  32
ENDBRANCH  29  31
ENDBRANCH   5  27
TORSDOF 7
