REMARK  Name = ZINC06321187
REMARK  13 active torsions:
REMARK  status: ('A' for Active; 'I' for Inactive)
REMARK    1  A    between atoms: C_1  and  C_2
REMARK    2  A    between atoms: C_6  and  C_15
REMARK    3  A    between atoms: C_13  and  C_14
REMARK    4  A    between atoms: C_15  and  C_17
REMARK    5  A    between atoms: C_15  and  N_69
REMARK    6  A    between atoms: N_21  and  C_22
REMARK    7  A    between atoms: C_22  and  C_23
REMARK    8  A    between atoms: C_22  and  C_24
REMARK    9  A    between atoms: C_22  and  C_25
REMARK   10  A    between atoms: C_26  and  C_27
REMARK   11  A    between atoms: C_26  and  N_69
REMARK   12  A    between atoms: C_34  and  C_35
REMARK   13  A    between atoms: C_34  and  N_69
REMARK                            x       y       z     vdW  Elec       q    Type
REMARK                         _______ _______ _______ _____ _____    ______ ____
ROOT
ATOM      1  C   UNL     1      -4.348   4.232  -0.609  0.00  0.00    +0.040 C 
ENDROOT
BRANCH   1   7
ATOM      2  C   UNL     1       2.882   3.402  -2.239  0.00  0.00    +0.044 C 
ATOM      3  C   UNL     1       1.507   2.822  -2.031  0.00  0.00    -0.047 A 
ATOM      4  C   UNL     1       0.468   3.645  -1.699  0.00  0.00    +0.013 A 
ATOM      5  C   UNL     1      -0.808   3.108  -1.506  0.00  0.00    -0.001 A 
ATOM      6  C   UNL     1      -1.944   3.961  -1.151  0.00  0.00    +0.017 A 
ATOM      7  C   UNL     1      -3.158   3.383  -0.976  0.00  0.00    +0.011 A 
ATOM      8  C   UNL     1      -3.312   1.989  -1.137  0.00  0.00    +0.251 A 
ATOM      9  O   UNL     1      -4.412   1.491  -0.976  0.00  0.00    -0.268 OA
ATOM     10  N   UNL     1      -2.276   1.198  -1.464  0.00  0.00    -0.322 N 
ATOM     11  H   UNL     1      -2.416   0.244  -1.567  0.00  0.00    +0.169 HD
ATOM     12  C   UNL     1      -1.016   1.724  -1.661  0.00  0.00    +0.049 A 
ATOM     13  C   UNL     1       0.057   0.905  -1.994  0.00  0.00    +0.030 A 
ATOM     14  C   UNL     1       1.307   1.457  -2.179  0.00  0.00    -0.046 A 
ATOM     15  C   UNL     1       2.467   0.568  -2.546  0.00  0.00    +0.044 C 
ENDBRANCH   1   7
BRANCH   1  16
ATOM     16  C   UNL     1      -4.830   3.853   0.767  0.00  0.00    +0.143 A 
ATOM     17  N   UNL     1      -5.533   2.793   1.085  0.00  0.00    -0.115 NA
ATOM     18  N   UNL     1      -5.747   2.824   2.355  0.00  0.00    -0.023 NA
ATOM     19  N   UNL     1      -5.198   3.875   2.856  0.00  0.00    -0.043 NA
ATOM     20  N   UNL     1      -4.619   4.533   1.909  0.00  0.00    -0.225 N 
BRANCH  20  21
ATOM     21  C   UNL     1      -3.873   5.786   2.050  0.00  0.00    +0.059 C 
ATOM     22  C   UNL     1      -4.575   6.889   1.255  0.00  0.00    +0.036 C 
ATOM     23  C   UNL     1      -3.813   6.181   3.527  0.00  0.00    +0.036 C 
ATOM     24  C   UNL     1      -2.452   5.597   1.514  0.00  0.00    +0.036 C 
ENDBRANCH  20  21
ENDBRANCH   1  16
BRANCH   1  25
ATOM     25  N   UNL     1      -5.437   3.989  -1.578  0.00  0.00    +0.397 N 
ATOM     26  H   UNL     1      -5.871   3.081  -1.371  0.00  0.00    -0.079 HD
BRANCH  25  27
ATOM     27  C   UNL     1      -6.461   5.048  -1.464  0.00  0.00    -0.041 C 
BRANCH  27  28
ATOM     28  C   UNL     1      -7.453   4.644  -0.404  0.00  0.00    -0.064 A 
ATOM     29  C   UNL     1      -8.474   3.764  -0.712  0.00  0.00    +0.003 A 
ATOM     30  C   UNL     1      -9.381   3.389   0.261  0.00  0.00    +0.020 A 
ATOM     31  C   UNL     1      -9.274   3.903   1.541  0.00  0.00    +0.041 A 
ATOM     32  C   UNL     1      -8.256   4.788   1.847  0.00  0.00    +0.020 A 
ATOM     33  C   UNL     1      -7.346   5.159   0.875  0.00  0.00    +0.003 A 
ATOM     34 CL   UNL     1     -10.417   3.437   2.762  0.00  0.00    -0.084 Cl
ENDBRANCH  27  28
ENDBRANCH  25  27
BRANCH  25  35
ATOM     35  C   UNL     1      -4.893   3.958  -2.952  0.00  0.00    -0.001 C 
BRANCH  35  36
ATOM     36  C   UNL     1      -5.953   3.424  -3.881  0.00  0.00    +0.089 A 
ATOM     37  C   UNL     1      -6.788   4.165  -4.631  0.00  0.00    +0.042 A 
ATOM     38  C   UNL     1      -7.609   3.262  -5.344  0.00  0.00    +0.041 A 
ATOM     39  C   UNL     1      -7.228   2.022  -4.987  0.00  0.00    +0.195 A 
ATOM     40  O   UNL     1      -6.220   2.126  -4.105  0.00  0.00    -0.470 OA
ENDBRANCH  35  36
ENDBRANCH  25  35
ENDBRANCH   1  25
TORSDOF 8
