REMARK  Name = ZINC13400022
REMARK  8 active torsions:
REMARK  status: ('A' for Active; 'I' for Inactive)
REMARK    1  A    between atoms: C_1  and  C_2
REMARK    2  A    between atoms: C_5  and  C_8
REMARK    3  A    between atoms: C_16  and  C_21
REMARK    4  A    between atoms: C_18  and  C_20
REMARK    5  A    between atoms: C_21  and  C_23
REMARK    6  A    between atoms: C_21  and  C_29
REMARK    7  A    between atoms: C_29  and  C_31
REMARK    8  A    between atoms: C_29  and  C_33
REMARK                            x       y       z     vdW  Elec       q    Type
REMARK                         _______ _______ _______ _____ _____    ______ ____
ROOT
ATOM      1  C   UNL     1       0.614  -4.344  -0.144  0.00  0.00    +0.080 A 
ATOM      2  C   UNL     1       0.595  -5.016   1.046  0.00  0.00    +0.077 A 
ATOM      3  S   UNL     1       0.455  -6.704   0.472  0.00  0.00    -0.058 S 
ATOM      4  C   UNL     1       0.436  -6.342  -1.278  0.00  0.00    +0.188 A 
ATOM      5  N   UNL     1       0.529  -5.026  -1.276  0.00  0.00    -0.223 NA
ATOM      6  N   UNL     1       0.343  -7.216  -2.356  0.00  0.00    -0.135 N 
ATOM      7  C   UNL     1       0.241  -8.557  -2.245  0.00  0.00    +0.250 C 
ATOM      8  O   UNL     1       0.213  -9.213  -1.225  0.00  0.00    -0.273 OA
ATOM      9  C   UNL     1       0.168  -9.065  -3.672  0.00  0.00    +0.132 C 
ATOM     10  C   UNL     1       0.248  -7.802  -4.503  0.00  0.00    +0.047 C 
ATOM     11  N   UNL     1       0.338  -6.822  -3.691  0.00  0.00    -0.179 NA
ATOM     12  C   UNL     1       0.219  -7.717  -6.007  0.00  0.00    +0.063 C 
ENDROOT
BRANCH   1  17
ATOM     13  C   UNL     1       1.034   1.399  -0.234  0.00  0.00    +0.044 C 
ATOM     14  C   UNL     1       0.924  -0.104  -0.211  0.00  0.00    -0.050 A 
ATOM     15  C   UNL     1       0.837  -0.807  -1.399  0.00  0.00    +0.004 A 
ATOM     16  C   UNL     1       0.736  -2.183  -1.383  0.00  0.00    +0.010 A 
ATOM     17  C   UNL     1       0.722  -2.865  -0.167  0.00  0.00    +0.001 A 
ATOM     18  C   UNL     1       0.811  -2.151   1.026  0.00  0.00    +0.010 A 
ATOM     19  C   UNL     1       0.917  -0.775   0.999  0.00  0.00    +0.004 A 
ENDBRANCH   1  17
BRANCH   9  20
ATOM     20  C   UNL     1      -1.155  -9.793  -3.918  0.00  0.00    +0.062 C 
BRANCH  20  21
ATOM     21  C   UNL     1      -2.302  -8.889  -3.543  0.00  0.00    -0.042 A 
ATOM     22  C   UNL     1      -2.546  -7.743  -4.276  0.00  0.00    +0.004 A 
ATOM     23  C   UNL     1      -3.598  -6.914  -3.932  0.00  0.00    +0.000 A 
ATOM     24  C   UNL     1      -4.406  -7.233  -2.857  0.00  0.00    +0.000 A 
ATOM     25  C   UNL     1      -4.163  -8.380  -2.125  0.00  0.00    +0.000 A 
ATOM     26  C   UNL     1      -3.114  -9.211  -2.471  0.00  0.00    +0.004 A 
ENDBRANCH  20  21
BRANCH  20  27
ATOM     27  C   UNL     1      -1.264 -10.168  -5.397  0.00  0.00    +0.185 C 
BRANCH  27  28
ATOM     28  C   UNL     1      -2.486 -11.024  -5.610  0.00  0.00    +0.228 C 
ATOM     29  O   UNL     1      -2.370 -12.146  -6.054  0.00  0.00    -0.275 OA
ATOM     30  N   UNL     1      -3.707 -10.542  -5.306  0.00  0.00    -0.328 N 
ATOM     31  H   UNL     1      -3.800  -9.644  -4.950  0.00  0.00    +0.145 HD
ATOM     32  H   UNL     1      -4.494 -11.093  -5.443  0.00  0.00    +0.145 HD
ENDBRANCH  27  28
BRANCH  27  33
ATOM     33  C   UNL     1      -0.064 -10.918  -5.803  0.00  0.00    +0.076 C 
ATOM     34  N   UNL     1       0.863 -11.496  -6.115  0.00  0.00    -0.196 NA
ENDBRANCH  27  33
ENDBRANCH  20  27
ENDBRANCH   9  20
TORSDOF 6
