REMARK  Name = ZINC05413389
REMARK  6 active torsions:
REMARK  status: ('A' for Active; 'I' for Inactive)
REMARK    1  A    between atoms: C_4  and  C_7
REMARK    2  A    between atoms: C_7  and  C_8
REMARK    3  A    between atoms: C_8  and  C_10
REMARK    4  A    between atoms: C_8  and  N_13
REMARK    5  A    between atoms: C_14  and  C_16
REMARK    6  A    between atoms: C_22  and  C_24
REMARK                            x       y       z     vdW  Elec       q    Type
REMARK                         _______ _______ _______ _____ _____    ______ ____
ROOT
ATOM      1  N   UNL     1      -2.562   0.435  -4.570  0.00  0.00    -0.303 N 
ATOM      2  C   UNL     1      -3.130   1.653  -4.460  0.00  0.00    +0.232 C 
ATOM      3  O   UNL     1      -2.511   2.643  -4.787  0.00  0.00    -0.274 OA
ATOM      4  H   UNL     1      -3.057  -0.356  -4.309  0.00  0.00    +0.150 HD
ENDROOT
BRANCH   2   5
ATOM      5  C   UNL     1      -4.535   1.783  -3.929  0.00  0.00    +0.145 C 
ATOM      6  C   UNL     1      -4.502   2.430  -2.541  0.00  0.00    -0.050 C 
ATOM      7  C   UNL     1      -6.546   3.660  -2.979  0.00  0.00    -0.063 C 
ATOM      8  C   UNL     1      -6.662   3.063  -4.386  0.00  0.00    +0.089 C 
ATOM      9  N   UNL     1      -5.324   2.641  -4.826  0.00  0.00    -0.293 N 
ATOM     10  C   UNL     1      -4.833   3.030  -6.020  0.00  0.00    +0.219 C 
ATOM     11  O   UNL     1      -3.692   2.756  -6.325  0.00  0.00    -0.275 OA
ATOM     12  N   UNL     1      -5.882   2.690  -2.086  0.00  0.00    +0.382 N 
ATOM     13  H   UNL     1      -5.858   3.071  -1.132  0.00  0.00    -0.086 HD
ATOM     14  H   UNL     1      -6.411   1.810  -2.089  0.00  0.00    -0.086 HD
BRANCH  10  15
ATOM     15  C   UNL     1      -5.703   3.806  -6.975  0.00  0.00    +0.075 C 
ATOM     16  C   UNL     1      -6.469   2.832  -7.873  0.00  0.00    +0.013 C 
ATOM     17  C   UNL     1      -7.352   3.619  -8.843  0.00  0.00    +0.001 C 
ATOM     18  C   UNL     1      -6.476   4.528  -9.707  0.00  0.00    +0.000 C 
ATOM     19  C   UNL     1      -5.710   5.502  -8.810  0.00  0.00    +0.001 C 
ATOM     20  C   UNL     1      -4.827   4.715  -7.840  0.00  0.00    +0.013 C 
ENDBRANCH  10  15
ENDBRANCH   2   5
BRANCH   1  21
ATOM     21  C   UNL     1      -1.196   0.309  -5.086  0.00  0.00    +0.159 C 
BRANCH  21  22
ATOM     22  C   UNL     1      -1.230   0.271  -6.592  0.00  0.00    +0.231 C 
ATOM     23  O   UNL     1      -2.289   0.343  -7.177  0.00  0.00    -0.274 OA
ATOM     24  N   UNL     1      -0.081   0.157  -7.289  0.00  0.00    -0.328 N 
ATOM     25  H   UNL     1       0.766   0.100  -6.821  0.00  0.00    +0.145 HD
ATOM     26  H   UNL     1      -0.103   0.133  -8.258  0.00  0.00    +0.145 HD
ENDBRANCH  21  22
BRANCH  21  27
ATOM     27  C   UNL     1      -0.569  -0.983  -4.557  0.00  0.00    +0.035 C 
BRANCH  27  31
ATOM     28  C   UNL     1       1.105  -1.075  -0.567  0.00  0.00    +0.000 C 
ATOM     29  C   UNL     1       0.598   0.265  -1.106  0.00  0.00    +0.000 C 
ATOM     30  C   UNL     1       0.500   0.197  -2.631  0.00  0.00    +0.003 C 
ATOM     31  C   UNL     1      -0.472  -0.915  -3.031  0.00  0.00    -0.009 C 
ATOM     32  C   UNL     1       0.035  -2.254  -2.493  0.00  0.00    +0.003 C 
ATOM     33  C   UNL     1       0.132  -2.186  -0.967  0.00  0.00    +0.000 C 
ENDBRANCH  27  31
ENDBRANCH  21  27
ENDBRANCH   1  21
TORSDOF 6
