REMARK  Name = ZINC11882644
REMARK  11 active torsions:
REMARK  status: ('A' for Active; 'I' for Inactive)
REMARK    1  A    between atoms: C_1  and  C_2
REMARK    2  A    between atoms: C_2  and  C_3
REMARK    3  A    between atoms: C_3  and  N_68
REMARK    4  A    between atoms: C_9  and  N_15
REMARK    5  A    between atoms: C_10  and  C_11
REMARK    6  A    between atoms: C_11  and  O_13
REMARK    7  A    between atoms: O_13  and  C_14
REMARK    8  A    between atoms: C_16  and  C_18
REMARK    9  A    between atoms: C_21  and  S_24
REMARK   10  A    between atoms: S_24  and  N_27
REMARK   11  A    between atoms: C_31  and  C_34
REMARK                            x       y       z     vdW  Elec       q    Type
REMARK                         _______ _______ _______ _____ _____    ______ ____
ROOT
ATOM      1  N   UNL     1      -6.924  -2.402  -0.127  0.00  0.00    -0.275 N 
ATOM      2  C   UNL     1      -6.758  -1.306  -0.893  0.00  0.00    +0.249 C 
ATOM      3  O   UNL     1      -7.727  -0.688  -1.288  0.00  0.00    -0.270 OA
ATOM      4  H   UNL     1      -6.151  -2.895   0.189  0.00  0.00    +0.156 HD
ENDROOT
BRANCH   1  10
ATOM      5  C   UNL     1     -12.028  -4.932   2.347  0.00  0.00    -0.074 C 
ATOM      6  C   UNL     1     -10.578  -5.284   2.007  0.00  0.00    +0.018 C 
ATOM      7  C   UNL     1      -9.990  -4.140   1.189  0.00  0.00    -0.025 A 
ATOM      8  C   UNL     1     -10.808  -3.242   0.593  0.00  0.00    -0.021 A 
ATOM      9  S   UNL     1      -9.719  -2.115  -0.228  0.00  0.00    -0.079 S 
ATOM     10  C   UNL     1      -8.200  -2.824   0.211  0.00  0.00    +0.086 A 
ATOM     11  C   UNL     1      -8.571  -3.921   0.979  0.00  0.00    +0.091 A 
ATOM     12  C   UNL     1     -12.304  -3.236   0.639  0.00  0.00    -0.035 C 
ATOM     13  N   UNL     1     -12.749  -4.570   1.109  0.00  0.00    +0.383 N 
ATOM     14  H   UNL     1     -12.539  -5.267   0.385  0.00  0.00    -0.081 HD
BRANCH  11  15
ATOM     15  C   UNL     1      -7.569  -4.819   1.558  0.00  0.00    +0.342 C 
ATOM     16  O   UNL     1      -7.121  -4.595   2.667  0.00  0.00    -0.245 OA
BRANCH  15  17
ATOM     17  O   UNL     1      -7.144  -5.893   0.862  0.00  0.00    -0.464 OA
ATOM     18  C   UNL     1      -6.150  -6.739   1.498  0.00  0.00    +0.280 C 
ENDBRANCH  15  17
ENDBRANCH  11  15
BRANCH  13  19
ATOM     19  C   UNL     1     -14.207  -4.559   1.357  0.00  0.00    -0.079 C 
BRANCH  19  21
ATOM     20  C   UNL     1     -16.058  -3.614   2.744  0.00  0.00    +0.002 C 
ATOM     21  C   UNL     1     -14.546  -3.607   2.506  0.00  0.00    -0.022 C 
ENDBRANCH  19  21
ENDBRANCH  13  19
ENDBRANCH   1  10
BRANCH   2  22
ATOM     22  C   UNL     1      -5.397  -0.856  -1.254  0.00  0.00    +0.037 A 
ATOM     23  C   UNL     1      -5.221   0.278  -2.048  0.00  0.00    +0.015 A 
ATOM     24  C   UNL     1      -3.948   0.693  -2.380  0.00  0.00    +0.029 A 
ATOM     25  C   UNL     1      -2.847  -0.013  -1.928  0.00  0.00    +0.106 A 
ATOM     26  C   UNL     1      -3.015  -1.141  -1.146  0.00  0.00    +0.029 A 
ATOM     27  C   UNL     1      -4.282  -1.564  -0.801  0.00  0.00    +0.015 A 
BRANCH  25  28
ATOM     28  S   UNL     1      -1.225   0.524  -2.357  0.00  0.00    +0.061 S 
ATOM     29  O   UNL     1      -1.351   1.284  -3.552  0.00  0.00    -0.153 OA
ATOM     30  O   UNL     1      -0.382  -0.616  -2.266  0.00  0.00    -0.153 OA
BRANCH  28  31
ATOM     31  N   UNL     1      -0.729   1.575  -1.178  0.00  0.00    -0.176 NA
ATOM     32  C   UNL     1      -0.013   1.086   0.008  0.00  0.00    +0.109 C 
ATOM     33  C   UNL     1      -0.736   1.583   1.264  0.00  0.00    +0.017 C 
ATOM     34  C   UNL     1      -0.878   3.105   1.196  0.00  0.00    +0.006 C 
ATOM     35  C   UNL     1      -1.712   3.490  -0.028  0.00  0.00    +0.002 C 
ATOM     36  C   UNL     1      -0.997   3.015  -1.297  0.00  0.00    +0.112 C 
ATOM     37  C   UNL     1      -1.879   5.010  -0.075  0.00  0.00    +0.009 C 
ENDBRANCH  28  31
ENDBRANCH  25  28
ENDBRANCH   2  22
TORSDOF 8
