REMARK  Name = ZINC20454306
REMARK  4 active torsions:
REMARK  status: ('A' for Active; 'I' for Inactive)
REMARK    1  A    between atoms: C_1  and  C_2
REMARK    2  A    between atoms: C_2  and  C_4
REMARK    3  A    between atoms: C_2  and  N_10
REMARK    4  A    between atoms: C_13  and  C_19
REMARK                            x       y       z     vdW  Elec       q    Type
REMARK                         _______ _______ _______ _____ _____    ______ ____
ROOT
ATOM      1  N   UNL     1      -1.339  -0.591   0.048  0.00  0.00    -0.262 N 
ATOM      2  C   UNL     1      -1.865  -1.499  -0.854  0.00  0.00    +0.155 A 
ATOM      3  N   UNL     1      -1.657  -2.207  -1.946  0.00  0.00    -0.321 N 
ATOM      4  C   UNL     1      -2.759  -2.920  -2.222  0.00  0.00    +0.176 A 
ATOM      5  N   UNL     1      -3.690  -2.683  -1.314  0.00  0.00    -0.222 NA
ATOM      6  C   UNL     1      -3.187  -1.792  -0.421  0.00  0.00    +0.125 A 
ATOM      7  C   UNL     1      -3.422  -1.057   0.725  0.00  0.00    +0.133 A 
ATOM      8  N   UNL     1      -2.319  -0.338   1.018  0.00  0.00    -0.300 N 
ATOM      9  H   UNL     1      -2.221   0.259   1.776  0.00  0.00    +0.186 HD
ATOM     10  H   UNL     1      -0.838  -2.211  -2.466  0.00  0.00    +0.169 HD
ENDROOT
BRANCH   4  11
ATOM     11  C   UNL     1      -2.910  -3.834  -3.369  0.00  0.00    +0.170 A 
ATOM     12  C   UNL     1      -4.020  -4.563  -3.670  0.00  0.00    +0.053 A 
ATOM     13  C   UNL     1      -3.724  -5.288  -4.840  0.00  0.00    +0.042 A 
ATOM     14  C   UNL     1      -2.462  -4.972  -5.193  0.00  0.00    +0.196 A 
ATOM     15  O   UNL     1      -1.975  -4.090  -4.305  0.00  0.00    -0.460 OA
ENDBRANCH   4  11
BRANCH   1  17
ATOM     16  C   UNL     1      -0.106   1.521   0.054  0.00  0.00    +0.038 C 
ATOM     17  C   UNL     1       0.002  -0.004   0.002  0.00  0.00    +0.134 C 
BRANCH  17  18
ATOM     18  C   UNL     1       0.804  -0.491   1.181  0.00  0.00    -0.023 A 
ATOM     19  C   UNL     1       0.253  -0.470   2.448  0.00  0.00    +0.006 A 
ATOM     20  C   UNL     1       0.989  -0.917   3.530  0.00  0.00    +0.000 A 
ATOM     21  C   UNL     1       2.276  -1.386   3.344  0.00  0.00    +0.000 A 
ATOM     22  C   UNL     1       2.827  -1.408   2.076  0.00  0.00    +0.000 A 
ATOM     23  C   UNL     1       2.090  -0.965   0.994  0.00  0.00    +0.006 A 
ENDBRANCH  17  18
ENDBRANCH   1  17
TORSDOF 3
