REMARK  Name = ZINC12875074
REMARK  11 active torsions:
REMARK  status: ('A' for Active; 'I' for Inactive)
REMARK    1  A    between atoms: C_1  and  N_2
REMARK    2  A    between atoms: N_2  and  C_3
REMARK    3  A    between atoms: C_4  and  N_19
REMARK    4  A    between atoms: N_5  and  C_12
REMARK    5  A    between atoms: C_12  and  C_13
REMARK    6  A    between atoms: C_20  and  C_22
REMARK    7  A    between atoms: C_22  and  O_23
REMARK    8  A    between atoms: O_23  and  C_24
REMARK    9  A    between atoms: C_24  and  C_26
REMARK   10  A    between atoms: C_27  and  C_28
REMARK   11  A    between atoms: C_31  and  C_34
REMARK                            x       y       z     vdW  Elec       q    Type
REMARK                         _______ _______ _______ _____ _____    ______ ____
ROOT
ATOM      1  C   UNL     1      -0.018   1.509   0.155  0.00  0.00    +0.138 C 
ATOM      2  N   UNL     1      -0.037   0.053  -0.012  0.00  0.00    -0.265 N 
ATOM      3  C   UNL     1      -0.207  -0.483  -1.238  0.00  0.00    +0.257 C 
ATOM      4  O   UNL     1      -0.322  -1.685  -1.364  0.00  0.00    -0.272 OA
ENDROOT
BRANCH   2   5
ATOM      5  C   UNL     1       0.122  -0.787   1.110  0.00  0.00    +0.139 A 
ATOM      6  C   UNL     1      -0.833  -0.817   2.106  0.00  0.00    +0.128 A 
ATOM      7  N   UNL     1      -0.650  -1.647   3.188  0.00  0.00    -0.276 N 
ATOM      8  C   UNL     1       0.448  -2.420   3.274  0.00  0.00    +0.331 A 
ATOM      9  O   UNL     1       0.591  -3.146   4.239  0.00  0.00    -0.246 OA
ATOM     10  N   UNL     1       1.389  -2.404   2.314  0.00  0.00    -0.273 N 
ATOM     11  H   UNL     1       2.171  -2.971   2.400  0.00  0.00    +0.173 HD
ATOM     12  C   UNL     1       1.255  -1.614   1.231  0.00  0.00    +0.277 A 
ATOM     13  O   UNL     1       2.112  -1.611   0.363  0.00  0.00    -0.266 OA
BRANCH   6  14
ATOM     14  N   UNL     1      -1.954  -0.027   2.018  0.00  0.00    -0.343 N 
ATOM     15  H   UNL     1      -2.046   0.605   1.287  0.00  0.00    +0.144 HD
ATOM     16  H   UNL     1      -2.654  -0.101   2.686  0.00  0.00    +0.144 HD
ENDBRANCH   6  14
BRANCH   7  17
ATOM     17  C   UNL     1      -1.656  -1.689   4.252  0.00  0.00    +0.163 C 
BRANCH  17  18
ATOM     18  C   UNL     1      -2.682  -2.746   3.932  0.00  0.00    -0.028 A 
ATOM     19  C   UNL     1      -3.804  -2.420   3.194  0.00  0.00    +0.005 A 
ATOM     20  C   UNL     1      -4.744  -3.389   2.900  0.00  0.00    +0.000 A 
ATOM     21  C   UNL     1      -4.563  -4.685   3.345  0.00  0.00    +0.000 A 
ATOM     22  C   UNL     1      -3.440  -5.012   4.083  0.00  0.00    +0.000 A 
ATOM     23  C   UNL     1      -2.497  -4.043   4.372  0.00  0.00    +0.005 A 
ENDBRANCH  17  18
ENDBRANCH   7  17
ENDBRANCH   2   5
BRANCH   3  24
ATOM     24  C   UNL     1      -0.255   0.409  -2.451  0.00  0.00    +0.328 C 
BRANCH  24  25
ATOM     25  O   UNL     1      -0.442  -0.388  -3.622  0.00  0.00    -0.452 OA
BRANCH  25  26
ATOM     26  C   UNL     1      -0.506   0.262  -4.802  0.00  0.00    +0.332 C 
ATOM     27  O   UNL     1      -0.407   1.474  -4.835  0.00  0.00    -0.246 OA
BRANCH  26  28
ATOM     28  C   UNL     1      -0.696  -0.489  -6.042  0.00  0.00    +0.092 C 
ATOM     29  C   UNL     1      -0.761   0.161  -7.222  0.00  0.00    +0.015 C 
BRANCH  29  30
ATOM     30  C   UNL     1      -0.952  -0.595  -8.470  0.00  0.00    -0.025 A 
ATOM     31  C   UNL     1      -1.073  -1.988  -8.436  0.00  0.00    +0.008 A 
ATOM     32  C   UNL     1      -1.252  -2.690  -9.610  0.00  0.00    +0.013 A 
ATOM     33  C   UNL     1      -1.312  -2.019 -10.819  0.00  0.00    +0.055 A 
ATOM     34  C   UNL     1      -1.193  -0.641 -10.861  0.00  0.00    +0.013 A 
ATOM     35  C   UNL     1      -1.020   0.076  -9.695  0.00  0.00    +0.008 A 
BRANCH  33  36
ATOM     36  C   UNL     1      -1.507  -2.794 -12.097  0.00  0.00    +0.417 C 
ATOM     37  F   UNL     1      -2.875  -2.917 -12.363  0.00  0.00    -0.166 F 
ATOM     38  F   UNL     1      -0.886  -2.117 -13.152  0.00  0.00    -0.166 F 
ATOM     39  F   UNL     1      -0.942  -4.066 -11.962  0.00  0.00    -0.166 F 
ENDBRANCH  33  36
ENDBRANCH  29  30
ENDBRANCH  26  28
ENDBRANCH  25  26
ENDBRANCH  24  25
ENDBRANCH   3  24
TORSDOF 10
