REMARK  Name = ZINC00648562
REMARK  12 active torsions:
REMARK  status: ('A' for Active; 'I' for Inactive)
REMARK    1  A    between atoms: C_1  and  C_2
REMARK    2  A    between atoms: C_2  and  C_35
REMARK    3  A    between atoms: C_6  and  C_14
REMARK    4  A    between atoms: C_8  and  C_12
REMARK    5  A    between atoms: C_9  and  N_11
REMARK    6  A    between atoms: C_17  and  C_22
REMARK    7  A    between atoms: C_18  and  O_20
REMARK    8  A    between atoms: O_20  and  C_21
REMARK    9  A    between atoms: C_22  and  O_23
REMARK   10  A    between atoms: O_23  and  C_24
REMARK   11  A    between atoms: C_27  and  O_30
REMARK   12  A    between atoms: O_30  and  C_31
REMARK                            x       y       z     vdW  Elec       q    Type
REMARK                         _______ _______ _______ _____ _____    ______ ____
ROOT
ATOM      1  C   UNL     1      -2.581   5.536   0.955  0.00  0.00    +0.012 C 
ATOM      2  C   UNL     1      -2.713   5.302  -0.551  0.00  0.00    -0.021 C 
ATOM      3  C   UNL     1      -2.615   3.805  -0.850  0.00  0.00    +0.081 C 
ATOM      4  C   UNL     1      -1.269   3.285  -0.402  0.00  0.00    +0.115 C 
ATOM      5  C   UNL     1      -0.183   4.078  -0.429  0.00  0.00    +0.046 C 
ATOM      6  C   UNL     1       1.164   3.551   0.005  0.00  0.00    +0.101 C 
ATOM      7  C   UNL     1       1.156   2.048   0.002  0.00  0.00    +0.098 C 
ATOM      8  C   UNL     1      -0.017   1.369   0.010  0.00  0.00    +0.198 C 
ATOM      9  O   UNL     1      -1.196   2.010   0.019  0.00  0.00    -0.445 OA
ATOM     10  C   UNL     1      -0.264   5.417  -0.857  0.00  0.00    +0.164 C 
ATOM     11  O   UNL     1       0.741   6.098  -0.882  0.00  0.00    -0.292 OA
ATOM     12  C   UNL     1      -1.575   6.020  -1.285  0.00  0.00    +0.086 C 
ATOM     13  C   UNL     1      -4.059   5.841  -1.039  0.00  0.00    +0.012 C 
ENDROOT
BRANCH   6  14
ATOM     14  C   UNL     1       1.469   4.046   1.396  0.00  0.00    -0.031 A 
ATOM     15  C   UNL     1       0.635   3.712   2.447  0.00  0.00    +0.005 A 
ATOM     16  C   UNL     1       0.913   4.165   3.723  0.00  0.00    +0.011 A 
ATOM     17  C   UNL     1       2.026   4.951   3.952  0.00  0.00    +0.031 A 
ATOM     18  C   UNL     1       2.864   5.287   2.899  0.00  0.00    +0.127 A 
ATOM     19  C   UNL     1       2.586   4.828   1.620  0.00  0.00    +0.050 A 
BRANCH  18  20
ATOM     20  O   UNL     1       3.959   6.061   3.122  0.00  0.00    -0.495 OA
ATOM     21  C   UNL     1       4.777   6.367   1.991  0.00  0.00    +0.277 C 
ENDBRANCH  18  20
BRANCH  17  22
ATOM     22  C   UNL     1       2.328   5.444   5.344  0.00  0.00    +0.268 C 
BRANCH  22  23
ATOM     23  O   UNL     1       1.326   4.969   6.245  0.00  0.00    -0.487 OA
BRANCH  23  24
ATOM     24  C   UNL     1       1.451   5.326   7.551  0.00  0.00    +0.121 A 
ATOM     25  C   UNL     1       2.519   6.113   7.956  0.00  0.00    +0.049 A 
ATOM     26  C   UNL     1       2.644   6.480   9.281  0.00  0.00    +0.049 A 
ATOM     27  C   UNL     1       1.706   6.053  10.210  0.00  0.00    +0.120 A 
ATOM     28  C   UNL     1       0.641   5.262   9.807  0.00  0.00    +0.049 A 
ATOM     29  C   UNL     1       0.514   4.899   8.480  0.00  0.00    +0.049 A 
BRANCH  27  30
ATOM     30  O   UNL     1       1.831   6.411  11.516  0.00  0.00    -0.495 OA
ATOM     31  C   UNL     1       2.953   7.226  11.861  0.00  0.00    +0.277 C 
ENDBRANCH  27  30
ENDBRANCH  23  24
ENDBRANCH  22  23
ENDBRANCH  17  22
ENDBRANCH   6  14
BRANCH   8  32
ATOM     32  N   UNL     1       0.002  -0.004   0.002  0.00  0.00    -0.328 N 
ATOM     33  H   UNL     1       0.849  -0.478  -0.009  0.00  0.00    +0.145 HD
ATOM     34  H   UNL     1      -0.831  -0.500   0.007  0.00  0.00    +0.145 HD
ENDBRANCH   8  32
BRANCH   7  35
ATOM     35  C   UNL     1       2.395   1.330  -0.010  0.00  0.00    +0.101 C 
ATOM     36  N   UNL     1       3.377   0.760  -0.019  0.00  0.00    -0.191 NA
ENDBRANCH   7  35
TORSDOF 8
