REMARK  Name = ZINC09120834
REMARK  4 active torsions:
REMARK  status: ('A' for Active; 'I' for Inactive)
REMARK    1  A    between atoms: C_6  and  N_7
REMARK    2  A    between atoms: C_9  and  C_14
REMARK    3  A    between atoms: C_14  and  N_15
REMARK    4  A    between atoms: C_16  and  C_18
REMARK                            x       y       z     vdW  Elec       q    Type
REMARK                         _______ _______ _______ _____ _____    ______ ____
ROOT
ATOM      1  N   UNL     1      -0.692   4.502   8.167  0.00  0.00    -0.234 N 
ATOM      2  C   UNL     1      -1.669   3.654   7.460  0.00  0.00    +0.163 C 
ATOM      3  C   UNL     1      -0.924   3.235   6.178  0.00  0.00    +0.213 C 
ATOM      4  O   UNL     1       0.377   3.880   6.295  0.00  0.00    -0.444 OA
ATOM      5  C   UNL     1       0.430   4.572   7.438  0.00  0.00    +0.408 C 
ATOM      6  O   UNL     1       1.407   5.207   7.784  0.00  0.00    -0.226 OA
ENDROOT
BRANCH   1  12
ATOM      7  C   UNL     1      -2.118   4.986  10.056  0.00  0.00    +0.027 A 
ATOM      8  C   UNL     1      -2.326   5.603  11.275  0.00  0.00    +0.051 A 
ATOM      9  C   UNL     1      -1.327   6.377  11.842  0.00  0.00    +0.166 A 
ATOM     10  C   UNL     1      -0.108   6.530  11.184  0.00  0.00    +0.168 A 
ATOM     11  C   UNL     1       0.101   5.908   9.965  0.00  0.00    +0.073 A 
ATOM     12  C   UNL     1      -0.903   5.132   9.401  0.00  0.00    +0.043 A 
ATOM     13  O   UNL     1       0.698   7.330  11.941  0.00  0.00    -0.453 OA
ATOM     14  C   UNL     1      -0.180   7.996  12.867  0.00  0.00    +0.466 C 
ATOM     15  O   UNL     1      -1.282   7.081  13.012  0.00  0.00    -0.453 OA
ENDBRANCH   1  12
BRANCH   3  16
ATOM     16  C   UNL     1      -1.664   3.742   4.938  0.00  0.00    +0.150 C 
BRANCH  16  17
ATOM     17  N   UNL     1      -0.979   3.269   3.733  0.00  0.00    -0.311 N 
ATOM     18  C   UNL     1      -1.455   3.595   2.515  0.00  0.00    +0.219 C 
ATOM     19  O   UNL     1      -2.451   4.279   2.417  0.00  0.00    -0.275 OA
ATOM     20  H   UNL     1      -0.181   2.722   3.811  0.00  0.00    +0.149 HD
BRANCH  18  21
ATOM     21  C   UNL     1      -0.750   3.109   1.275  0.00  0.00    +0.048 C 
ATOM     22  C   UNL     1      -0.729   1.579   1.267  0.00  0.00    +0.019 C 
ATOM     23  C   UNL     1      -0.013   1.086   0.008  0.00  0.00    -0.009 C 
ATOM     24  C   UNL     1      -0.753   1.593  -1.232  0.00  0.00    +0.007 C 
ATOM     25  C   UNL     1      -0.773   3.123  -1.223  0.00  0.00    -0.009 C 
ATOM     26  C   UNL     1      -1.490   3.616   0.036  0.00  0.00    +0.019 C 
ATOM     27  C   UNL     1       0.662   3.652  -1.234  0.00  0.00    +0.007 C 
ATOM     28  C   UNL     1       1.402   3.145   0.006  0.00  0.00    -0.009 C 
ATOM     29  C   UNL     1       1.423   1.615  -0.003  0.00  0.00    +0.007 C 
ATOM     30  C   UNL     1       0.686   3.639   1.264  0.00  0.00    +0.019 C 
ENDBRANCH  18  21
ENDBRANCH  16  17
ENDBRANCH   3  16
TORSDOF 4
