REMARK  Name = ZINC36058178
REMARK  6 active torsions:
REMARK  status: ('A' for Active; 'I' for Inactive)
REMARK    1  A    between atoms: C_1  and  C_2
REMARK    2  A    between atoms: C_6  and  C_17
REMARK    3  A    between atoms: C_8  and  N_11
REMARK    4  A    between atoms: C_12  and  N_16
REMARK    5  A    between atoms: C_17  and  C_18
REMARK    6  A    between atoms: C_17  and  C_19
REMARK                            x       y       z     vdW  Elec       q    Type
REMARK                         _______ _______ _______ _____ _____    ______ ____
ROOT
ATOM      1  C   UNL     1      -0.207   1.523   0.036  0.00  0.00    +0.007 C 
ATOM      2  C   UNL     1      -0.186  -0.007   0.028  0.00  0.00    -0.012 C 
ATOM      3  C   UNL     1      -1.600  -0.537   0.273  0.00  0.00    +0.004 C 
ATOM      4  C   UNL     1      -2.103  -0.042   1.630  0.00  0.00    +0.006 C 
ATOM      5  C   UNL     1      -1.170  -0.545   2.734  0.00  0.00    +0.016 C 
ATOM      6  C   UNL     1       0.244  -0.015   2.489  0.00  0.00    +0.113 C 
ATOM      7  C   UNL     1       0.746  -0.510   1.131  0.00  0.00    +0.030 C 
ENDROOT
BRANCH   6   8
ATOM      8  N   UNL     1       0.224   1.450   2.497  0.00  0.00    -0.248 N 
ATOM      9  C   UNL     1       1.287   2.262   2.295  0.00  0.00    +0.115 A 
ATOM     10  C   UNL     1       0.845   3.547   2.384  0.00  0.00    +0.064 A 
ATOM     11  C   UNL     1      -0.527   3.510   2.647  0.00  0.00    +0.136 A 
ATOM     12  N   UNL     1      -0.901   2.258   2.709  0.00  0.00    -0.178 NA
BRANCH   9  13
ATOM     13  N   UNL     1       2.595   1.857   2.044  0.00  0.00    -0.343 N 
ATOM     14  H   UNL     1       2.810   0.912   2.000  0.00  0.00    +0.144 HD
ATOM     15  H   UNL     1       3.291   2.519   1.912  0.00  0.00    +0.144 HD
ENDBRANCH   9  13
ENDBRANCH   6   8
BRANCH   5  16
ATOM     16  C   UNL     1      -1.673  -0.049   4.091  0.00  0.00    -0.012 C 
ATOM     17  C   UNL     1      -3.087  -0.580   4.336  0.00  0.00    +0.007 C 
ATOM     18  C   UNL     1      -0.741  -0.553   5.195  0.00  0.00    +0.007 C 
ENDBRANCH   5  16
TORSDOF 3
