REMARK  Name = ZINC08753998
REMARK  6 active torsions:
REMARK  status: ('A' for Active; 'I' for Inactive)
REMARK    1  A    between atoms: C_4  and  O_31
REMARK    2  A    between atoms: C_5  and  C_7
REMARK    3  A    between atoms: C_8  and  C_9
REMARK    4  A    between atoms: C_12  and  C_14
REMARK    5  A    between atoms: C_12  and  O_18
REMARK    6  A    between atoms: C_21  and  C_24
REMARK                            x       y       z     vdW  Elec       q    Type
REMARK                         _______ _______ _______ _____ _____    ______ ____
ROOT
ATOM      1  C   UNL     1       2.188   1.001  -0.013  0.00  0.00    +0.064 C 
ATOM      2  N   UNL     1       1.294   1.937   0.000  0.00  0.00    -0.180 NA
ATOM      3  N   UNL     1      -0.018   1.467   0.010  0.00  0.00    -0.160 N 
ATOM      4  C   UNL     1       0.002  -0.004   0.002  0.00  0.00    +0.256 C 
ATOM      5  C   UNL     1       1.505  -0.348  -0.014  0.00  0.00    +0.123 C 
ATOM      6  C   UNL     1      -1.155   2.256   0.020  0.00  0.00    +0.184 A 
ATOM      7  N   UNL     1      -1.258   3.574   0.028  0.00  0.00    -0.223 NA
ATOM      8  C   UNL     1      -2.441   4.170   0.036  0.00  0.00    +0.080 A 
ATOM      9  C   UNL     1      -3.576   3.408   0.037  0.00  0.00    +0.077 A 
ATOM     10  S   UNL     1      -2.873   1.764   0.018  0.00  0.00    -0.058 S 
ENDROOT
BRANCH   8  11
ATOM     11  C   UNL     1      -2.533   5.650   0.044  0.00  0.00    +0.001 A 
ATOM     12  C   UNL     1      -1.377   6.423  -0.057  0.00  0.00    +0.013 A 
ATOM     13  C   UNL     1      -1.468   7.800  -0.054  0.00  0.00    +0.039 A 
ATOM     14  C   UNL     1      -2.704   8.414   0.059  0.00  0.00    +0.123 A 
ATOM     15  C   UNL     1      -3.855   7.650   0.165  0.00  0.00    +0.039 A 
ATOM     16  C   UNL     1      -3.775   6.273   0.158  0.00  0.00    +0.013 A 
ATOM     17  F   UNL     1      -2.788   9.762   0.068  0.00  0.00    -0.205 F 
ENDBRANCH   8  11
BRANCH   4  18
ATOM     18  C   UNL     1      -0.687  -0.544  -1.253  0.00  0.00    +0.438 C 
ATOM     19  F   UNL     1      -0.040  -0.049  -2.390  0.00  0.00    -0.166 F 
ATOM     20  F   UNL     1      -0.626  -1.942  -1.253  0.00  0.00    -0.166 F 
ATOM     21  F   UNL     1      -2.025  -0.137  -1.262  0.00  0.00    -0.166 F 
ENDBRANCH   4  18
BRANCH   1  23
ATOM     22  C   UNL     1       4.086   2.464  -0.023  0.00  0.00    +0.013 C 
ATOM     23  C   UNL     1       3.590   1.209  -0.025  0.00  0.00    +0.026 C 
BRANCH  22  28
ATOM     24  C   UNL     1       7.776   1.796  -0.061  0.00  0.00    +0.001 A 
ATOM     25  C   UNL     1       8.285   3.084  -0.059  0.00  0.00    +0.004 A 
ATOM     26  C   UNL     1       7.433   4.173  -0.045  0.00  0.00    +0.046 A 
ATOM     27  C   UNL     1       6.062   3.982  -0.040  0.00  0.00    +0.124 A 
ATOM     28  C   UNL     1       5.541   2.679  -0.036  0.00  0.00    +0.016 A 
ATOM     29  C   UNL     1       6.414   1.587  -0.049  0.00  0.00    +0.011 A 
BRANCH  27  30
ATOM     30  O   UNL     1       5.224   5.051  -0.032  0.00  0.00    -0.506 OA
ATOM     31  H   UNL     1       4.989   5.360   0.854  0.00  0.00    +0.292 HD
ENDBRANCH  27  30
ENDBRANCH  22  28
ENDBRANCH   1  23
BRANCH   4  32
ATOM     32  O   UNL     1      -0.622  -0.521   1.179  0.00  0.00    -0.363 OA
ATOM     33  H   UNL     1      -1.554  -0.278   1.270  0.00  0.00    +0.212 HD
ENDBRANCH   4  32
TORSDOF 6
