REMARK  Name = ZINC39685827
REMARK  14 active torsions:
REMARK  status: ('A' for Active; 'I' for Inactive)
REMARK    1  A    between atoms: C_1  and  C_2
REMARK    2  A    between atoms: C_2  and  C_3
REMARK    3  A    between atoms: C_3  and  C_5
REMARK    4  A    between atoms: C_3  and  C_11
REMARK    5  A    between atoms: C_15  and  C_24
REMARK    6  A    between atoms: N_26  and  C_27
REMARK    7  A    between atoms: C_27  and  C_29
REMARK    8  A    between atoms: C_27  and  C_32
REMARK    9  A    between atoms: C_29  and  C_30
REMARK   10  A    between atoms: C_29  and  C_31
REMARK   11  A    between atoms: N_34  and  C_35
REMARK   12  A    between atoms: C_35  and  C_36
REMARK   13  A    between atoms: C_35  and  C_37
REMARK   14  A    between atoms: C_35  and  C_38
REMARK                            x       y       z     vdW  Elec       q    Type
REMARK                         _______ _______ _______ _____ _____    ______ ____
ROOT
ATOM      1  C   UNL     1      -2.362   0.049  -1.450  0.00  0.00    +0.223 C 
ATOM      2  O   UNL     1      -3.162  -0.426  -2.228  0.00  0.00    -0.275 OA
ATOM      3  N   UNL     1      -2.258   1.387  -1.323  0.00  0.00    -0.300 N 
ATOM      4  C   UNL     1      -1.411   2.147  -0.373  0.00  0.00    +0.121 C 
ATOM      5  C   UNL     1      -0.884   3.345  -1.193  0.00  0.00    +0.100 C 
ATOM      6  C   UNL     1      -1.909   3.528  -2.325  0.00  0.00    -0.004 C 
ATOM      7  C   UNL     1      -2.961   2.431  -2.107  0.00  0.00    +0.115 C 
ATOM      8  C   UNL     1      -1.236   3.343  -3.682  0.00  0.00    -0.010 C 
ATOM      9  C   UNL     1      -2.263   3.585  -4.792  0.00  0.00    -0.082 C 
ATOM     10  N   UNL     1      -2.803   4.945  -4.673  0.00  0.00    +0.379 N 
ATOM     11  C   UNL     1      -3.528   5.086  -3.405  0.00  0.00    -0.082 C 
ATOM     12  C   UNL     1      -2.555   4.907  -2.236  0.00  0.00    -0.010 C 
ATOM     13  H   UNL     1      -2.045   5.610  -4.702  0.00  0.00    -0.086 HD
ATOM     14  H   UNL     1      -3.433   5.124  -5.441  0.00  0.00    -0.086 HD
ENDROOT
BRANCH   5  15
ATOM     15  C   UNL     1       0.477   3.035  -1.760  0.00  0.00    +0.219 C 
ATOM     16  O   UNL     1       0.772   1.891  -2.038  0.00  0.00    -0.275 OA
ATOM     17  N   UNL     1       1.367   4.027  -1.959  0.00  0.00    -0.303 N 
ATOM     18  H   UNL     1       1.138   4.939  -1.720  0.00  0.00    +0.149 HD
BRANCH  17  19
ATOM     19  C   UNL     1       2.680   3.729  -2.536  0.00  0.00    +0.161 C 
BRANCH  19  20
ATOM     20  C   UNL     1       3.708   4.667  -1.956  0.00  0.00    +0.234 C 
ATOM     21  O   UNL     1       3.354   5.668  -1.371  0.00  0.00    -0.274 OA
ATOM     22  N   UNL     1       5.021   4.392  -2.088  0.00  0.00    -0.309 N 
ATOM     23  H   UNL     1       5.304   3.553  -2.485  0.00  0.00    +0.149 HD
BRANCH  22  24
ATOM     24  C   UNL     1       6.021   5.360  -1.632  0.00  0.00    +0.026 C 
ATOM     25  C   UNL     1       5.845   5.609  -0.133  0.00  0.00    +0.031 C 
ATOM     26  C   UNL     1       7.424   4.807  -1.896  0.00  0.00    +0.031 C 
ATOM     27  C   UNL     1       5.841   6.676  -2.393  0.00  0.00    +0.031 C 
ENDBRANCH  22  24
ENDBRANCH  19  20
BRANCH  19  28
ATOM     28  C   UNL     1       2.623   3.910  -4.054  0.00  0.00    +0.012 C 
ATOM     29  C   UNL     1       1.708   2.845  -4.661  0.00  0.00    +0.009 C 
ATOM     30  C   UNL     1       2.074   5.300  -4.382  0.00  0.00    +0.009 C 
ENDBRANCH  19  28
ENDBRANCH  17  19
ENDBRANCH   5  15
BRANCH   1  31
ATOM     31  C   UNL     1      -1.484  -0.856  -0.624  0.00  0.00    +0.105 C 
BRANCH  31  32
ATOM     32  C   UNL     1      -2.207  -1.239   0.641  0.00  0.00    -0.036 A 
ATOM     33  C   UNL     1      -3.409  -1.920   0.572  0.00  0.00    +0.004 A 
ATOM     34  C   UNL     1      -4.072  -2.271   1.733  0.00  0.00    +0.000 A 
ATOM     35  C   UNL     1      -3.533  -1.943   2.963  0.00  0.00    +0.000 A 
ATOM     36  C   UNL     1      -2.331  -1.264   3.032  0.00  0.00    +0.000 A 
ATOM     37  C   UNL     1      -1.666  -0.916   1.871  0.00  0.00    +0.004 A 
ENDBRANCH  31  32
BRANCH  31  39
ATOM     38  C   UNL     1      -0.345  -1.736  -2.666  0.00  0.00    +0.005 C 
ATOM     39  C   UNL     1      -1.155  -2.117  -1.426  0.00  0.00    +0.014 C 
ENDBRANCH  31  39
ENDBRANCH   1  31
TORSDOF 8
