REMARK  Name = ZINC11867622
REMARK  10 active torsions:
REMARK  status: ('A' for Active; 'I' for Inactive)
REMARK    1  A    between atoms: C_1  and  C_2
REMARK    2  A    between atoms: C_2  and  C_3
REMARK    3  A    between atoms: C_8  and  C_28
REMARK    4  A    between atoms: C_9  and  C_27
REMARK    5  A    between atoms: C_12  and  C_15
REMARK    6  A    between atoms: C_13  and  O_14
REMARK    7  A    between atoms: C_15  and  N_71
REMARK    8  A    between atoms: C_17  and  C_26
REMARK    9  A    between atoms: C_22  and  C_24
REMARK   10  A    between atoms: C_22  and  C_25
REMARK                            x       y       z     vdW  Elec       q    Type
REMARK                         _______ _______ _______ _____ _____    ______ ____
ROOT
ATOM      1  C   UNL     1      -0.040   1.331   0.194  0.00  0.00    -0.005 A 
ATOM      2  C   UNL     1      -0.002  -0.011  -0.057  0.00  0.00    +0.022 A 
ATOM      3  C   UNL     1       1.220  -0.683  -0.042  0.00  0.00    +0.065 A 
ATOM      4  C   UNL     1       1.299  -2.131  -0.308  0.00  0.00    +0.203 A 
ATOM      5  O   UNL     1       0.304  -2.792  -0.550  0.00  0.00    -0.286 OA
ATOM      6  C   UNL     1       2.641  -2.741  -0.267  0.00  0.00    +0.102 A 
ATOM      7  C   UNL     1       3.712  -1.946   0.010  0.00  0.00    +0.117 A 
ATOM      8  O   UNL     1       3.592  -0.639   0.244  0.00  0.00    -0.459 OA
ATOM      9  C   UNL     1       2.412   0.012   0.230  0.00  0.00    +0.144 A 
ATOM     10  C   UNL     1       2.355   1.376   0.483  0.00  0.00    +0.021 A 
ATOM     11  C   UNL     1       1.134   2.030   0.465  0.00  0.00    +0.125 A 
ATOM     12  C   UNL     1       5.084  -2.568   0.053  0.00  0.00    +0.087 C 
ENDROOT
BRANCH   6  13
ATOM     13  C   UNL     1       2.821  -4.184  -0.521  0.00  0.00    +0.146 A 
ATOM     14  N   UNL     1       1.805  -5.090  -0.670  0.00  0.00    -0.338 N 
ATOM     15  H   UNL     1       0.825  -4.896  -0.625  0.00  0.00    +0.167 HD
ATOM     16  C   UNL     1       2.387  -6.324  -0.894  0.00  0.00    +0.066 A 
ATOM     17  C   UNL     1       1.886  -7.599  -1.116  0.00  0.00    +0.028 A 
ATOM     18  C   UNL     1       2.756  -8.652  -1.304  0.00  0.00    +0.002 A 
ATOM     19  C   UNL     1       4.128  -8.446  -1.272  0.00  0.00    +0.002 A 
ATOM     20  C   UNL     1       4.640  -7.197  -1.056  0.00  0.00    +0.030 A 
ATOM     21  C   UNL     1       3.776  -6.114  -0.863  0.00  0.00    +0.089 A 
ATOM     22  N   UNL     1       3.977  -4.793  -0.632  0.00  0.00    -0.228 NA
ENDBRANCH   6  13
BRANCH   1  24
ATOM     23  C   UNL     1      -1.575   2.683  -1.209  0.00  0.00    +0.009 C 
ATOM     24  C   UNL     1      -1.359   2.061   0.172  0.00  0.00    +0.035 C 
ENDBRANCH   1  24
BRANCH  11  25
ATOM     25  O   UNL     1       1.082   3.363   0.712  0.00  0.00    -0.506 OA
ATOM     26  H   UNL     1       0.966   3.586   1.646  0.00  0.00    +0.292 HD
ENDBRANCH  11  25
BRANCH  10  27
ATOM     27  C   UNL     1       3.619   2.143   0.777  0.00  0.00    -0.035 C 
BRANCH  27  38
ATOM     28  C   UNL     1       4.610   1.592  -1.397  0.00  0.00    -0.071 C 
ATOM     29  C   UNL     1       5.934   2.089  -2.030  0.00  0.00    -0.048 C 
ATOM     30  C   UNL     1       5.924   3.613  -1.741  0.00  0.00    -0.011 C 
ATOM     31  C   UNL     1       5.288   3.602  -0.324  0.00  0.00    -0.067 C 
ATOM     32  C   UNL     1       6.349   3.110   0.646  0.00  0.00    -0.009 C 
ATOM     33  C   UNL     1       7.161   1.909   0.212  0.00  0.00    -0.036 C 
ATOM     34  C   UNL     1       7.091   1.486  -1.240  0.00  0.00    +0.011 C 
ATOM     35  C   UNL     1       6.790   0.704   1.099  0.00  0.00    +0.011 C 
ATOM     36  C   UNL     1       8.647   2.225   0.524  0.00  0.00    +0.011 C 
ATOM     37  C   UNL     1       6.011   1.777  -3.532  0.00  0.00    +0.009 C 
ATOM     38  N   UNL     1       4.154   2.672  -0.523  0.00  0.00    +0.385 N 
ATOM     39  H   UNL     1       3.394   3.178  -0.994  0.00  0.00    -0.081 HD
ENDBRANCH  27  38
ENDBRANCH  10  27
TORSDOF 5
