REMARK  Name = ZINC20288721
REMARK  12 active torsions:
REMARK  status: ('A' for Active; 'I' for Inactive)
REMARK    1  A    between atoms: C_1  and  C_2
REMARK    2  A    between atoms: C_2  and  C_4
REMARK    3  A    between atoms: C_2  and  N_24
REMARK    4  A    between atoms: C_4  and  C_6
REMARK    5  A    between atoms: C_4  and  N_11
REMARK    6  A    between atoms: N_14  and  C_17
REMARK    7  A    between atoms: C_25  and  C_27
REMARK    8  A    between atoms: N_29  and  C_30
REMARK    9  A    between atoms: C_30  and  C_31
REMARK   10  A    between atoms: C_31  and  N_32
REMARK   11  A    between atoms: N_32  and  C_33
REMARK   12  A    between atoms: N_32  and  C_34
REMARK                            x       y       z     vdW  Elec       q    Type
REMARK                         _______ _______ _______ _____ _____    ______ ____
ROOT
ATOM      1  C   UNL     1       0.918   5.160   0.021  0.00  0.00    +0.114 C 
ENDROOT
BRANCH   1   2
ATOM      2  N   UNL     1       2.073   5.277  -0.880  0.00  0.00    -0.290 NA
ATOM      3  C   UNL     1       2.641   6.632  -0.834  0.00  0.00    +0.104 C 
ATOM      4  C   UNL     1       3.886   6.690  -1.723  0.00  0.00    +0.120 C 
ATOM      5  N   UNL     1       3.521   6.321  -3.098  0.00  0.00    -0.325 N 
ATOM      6  C   UNL     1       2.953   4.967  -3.143  0.00  0.00    +0.120 C 
ATOM      7  C   UNL     1       1.708   4.909  -2.255  0.00  0.00    +0.104 C 
BRANCH   5   8
ATOM      8  C   UNL     1       4.620   6.433  -3.955  0.00  0.00    +0.065 A 
ATOM      9  C   UNL     1       4.468   6.199  -5.315  0.00  0.00    +0.026 A 
ATOM     10  C   UNL     1       5.555   6.314  -6.160  0.00  0.00    +0.002 A 
ATOM     11  C   UNL     1       6.796   6.652  -5.652  0.00  0.00    +0.003 A 
ATOM     12  C   UNL     1       6.954   6.880  -4.298  0.00  0.00    +0.040 A 
ATOM     13  C   UNL     1       5.870   6.772  -3.446  0.00  0.00    +0.144 A 
ATOM     14  F   UNL     1       6.023   6.994  -2.123  0.00  0.00    -0.204 F 
ENDBRANCH   5   8
ENDBRANCH   1   2
BRANCH   1  15
ATOM     15  C   UNL     1       0.421   3.738   0.017  0.00  0.00    +0.009 A 
ATOM     16  C   UNL     1      -0.855   3.279   0.027  0.00  0.00    +0.013 A 
ATOM     17  C   UNL     1      -1.077   1.915   0.017  0.00  0.00    +0.008 A 
ATOM     18  C   UNL     1      -0.013   1.076   0.008  0.00  0.00    +0.045 A 
ATOM     19  S   UNL     1       1.359   2.219   0.001  0.00  0.00    -0.100 S 
ENDBRANCH   1  15
BRANCH   1  21
ATOM     20  C   UNL     1       2.534   4.703   1.870  0.00  0.00    +0.030 C 
ATOM     21  C   UNL     1       1.336   5.551   1.439  0.00  0.00    +0.092 C 
BRANCH  21  22
ATOM     22  N   UNL     1       0.219   5.321   2.359  0.00  0.00    -0.303 N 
ATOM     23  C   UNL     1       0.137   6.021   3.508  0.00  0.00    +0.299 C 
ATOM     24  O   UNL     1       0.988   6.841   3.781  0.00  0.00    -0.265 OA
ATOM     25  H   UNL     1      -0.553   4.577   2.111  0.00  0.00    +0.149 HD
BRANCH  23  26
ATOM     26  C   UNL     1      -1.003   5.786   4.446  0.00  0.00    +0.299 C 
ATOM     27  O   UNL     1      -1.855   4.965   4.172  0.00  0.00    -0.265 OA
ATOM     28  N   UNL     1      -1.085   6.485   5.595  0.00  0.00    -0.309 N 
ATOM     29  H   UNL     1      -0.314   7.229   5.842  0.00  0.00    +0.149 HD
BRANCH  28  30
ATOM     30  C   UNL     1      -2.203   6.255   6.514  0.00  0.00    +0.086 C 
BRANCH  30  31
ATOM     31  C   UNL     1      -2.058   7.170   7.731  0.00  0.00    -0.061 C 
BRANCH  31  32
ATOM     32  N   UNL     1      -3.178   6.939   8.653  0.00  0.00    +0.377 N 
ATOM     33  C   UNL     1      -2.954   7.620   9.935  0.00  0.00    -0.097 C 
ATOM     34  C   UNL     1      -4.451   7.358   8.050  0.00  0.00    -0.097 C 
ATOM     35  H   UNL     1      -3.237   5.859   8.850  0.00  0.00    -0.083 HD
ENDBRANCH  31  32
ENDBRANCH  30  31
ENDBRANCH  28  30
ENDBRANCH  23  26
ENDBRANCH  21  22
ENDBRANCH   1  21
TORSDOF 9
