REMARK  Name = ZINC28434712
REMARK  4 active torsions:
REMARK  status: ('A' for Active; 'I' for Inactive)
REMARK    1  A    between atoms: C_3  and  C_6
REMARK    2  A    between atoms: C_8  and  C_12
REMARK    3  A    between atoms: N_14  and  N_15
REMARK    4  A    between atoms: C_16  and  C_18
REMARK                            x       y       z     vdW  Elec       q    Type
REMARK                         _______ _______ _______ _____ _____    ______ ____
ROOT
ATOM      1  C   UNL     1      -1.177  -0.895   0.008  0.00  0.00    +0.280 C 
ATOM      2  O   UNL     1      -2.296  -0.421   0.021  0.00  0.00    -0.267 OA
ATOM      3  N   UNL     1      -1.010  -2.232  -0.001  0.00  0.00    -0.229 N 
ATOM      4  H   UNL     1       0.003  -2.661  -0.012  0.00  0.00    +0.173 HD
ENDROOT
BRANCH   1   7
ATOM      5  C   UNL     1       1.298   1.789  -0.001  0.00  0.00    +0.101 A 
ATOM      6  C   UNL     1      -0.017   1.407   0.010  0.00  0.00    +0.065 A 
ATOM      7  C   UNL     1       0.002  -0.004   0.002  0.00  0.00    +0.149 A 
ATOM      8  N   UNL     1       1.266  -0.381  -0.012  0.00  0.00    -0.169 NA
ATOM      9  N   UNL     1       2.041   0.643  -0.014  0.00  0.00    -0.273 N 
ATOM     10  H   UNL     1       3.139   0.699  -0.024  0.00  0.00    +0.189 HD
BRANCH   5  13
ATOM     11  C   UNL     1       3.155   4.942  -0.002  0.00  0.00    +0.042 A 
ATOM     12  C   UNL     1       3.125   3.534  -0.009  0.00  0.00    +0.051 A 
ATOM     13  C   UNL     1       1.813   3.170   0.002  0.00  0.00    +0.152 A 
ATOM     14  O   UNL     1       1.067   4.292   0.009  0.00  0.00    -0.461 OA
ATOM     15  C   UNL     1       1.875   5.365   0.012  0.00  0.00    +0.196 A 
ENDBRANCH   5  13
ENDBRANCH   1   7
BRANCH   3  16
ATOM     16  N   UNL     1      -2.128  -3.077   0.005  0.00  0.00    -0.230 N 
ATOM     17  C   UNL     1      -1.962  -4.415  -0.004  0.00  0.00    +0.267 C 
ATOM     18  O   UNL     1      -0.841  -4.888  -0.017  0.00  0.00    -0.268 OA
ATOM     19  H   UNL     1      -3.141  -2.649   0.017  0.00  0.00    +0.173 HD
BRANCH  17  20
ATOM     20  C   UNL     1      -3.131  -5.298   0.002  0.00  0.00    +0.076 A 
ATOM     21  C   UNL     1      -3.181  -6.681  -0.005  0.00  0.00    +0.024 A 
ATOM     22  C   UNL     1      -4.429  -7.291   0.011  0.00  0.00    -0.036 A 
ATOM     23  C   UNL     1      -5.504  -6.470   0.002  0.00  0.00    -0.006 A 
ATOM     24  S   UNL     1      -4.866  -4.873   0.029  0.00  0.00    -0.088 S 
ATOM     25  C   UNL     1      -6.958  -6.885  -0.037  0.00  0.00    +0.043 C 
ATOM     26  C   UNL     1      -7.277  -7.552   1.312  0.00  0.00    +0.005 C 
ATOM     27  C   UNL     1      -6.762  -8.973   1.328  0.00  0.00    +0.001 C 
ATOM     28  C   UNL     1      -5.267  -9.144   1.410  0.00  0.00    +0.005 C 
ATOM     29  C   UNL     1      -4.578  -8.815   0.084  0.00  0.00    +0.036 C 
ENDBRANCH  17  20
ENDBRANCH   3  16
TORSDOF 4
