REMARK  Name = ZINC67257075
REMARK  6 active torsions:
REMARK  status: ('A' for Active; 'I' for Inactive)
REMARK    1  A    between atoms: C_3  and  N_14
REMARK    2  A    between atoms: C_6  and  C_7
REMARK    3  A    between atoms: C_7  and  C_8
REMARK    4  A    between atoms: C_8  and  N_9
REMARK    5  A    between atoms: C_15  and  C_17
REMARK    6  A    between atoms: N_19  and  C_20
REMARK                            x       y       z     vdW  Elec       q    Type
REMARK                         _______ _______ _______ _____ _____    ______ ____
ROOT
ATOM      1  N   UNL     1       3.583   2.122  -0.021  0.00  0.00    -0.278 N 
ATOM      2  C   UNL     1       4.757   1.466   0.066  0.00  0.00    +0.303 C 
ATOM      3  O   UNL     1       4.775   0.252   0.060  0.00  0.00    -0.265 OA
ATOM      4  H   UNL     1       3.572   3.089  -0.093  0.00  0.00    +0.155 HD
ENDROOT
BRANCH   1   7
ATOM      5  C   UNL     1       1.083  -0.460   0.751  0.00  0.00    +0.005 A 
ATOM      6  C   UNL     1       2.272   0.242   0.739  0.00  0.00    +0.023 A 
ATOM      7  C   UNL     1       2.381   1.409  -0.007  0.00  0.00    +0.034 A 
ATOM      8  C   UNL     1       1.292   1.866  -0.739  0.00  0.00    +0.023 A 
ATOM      9  C   UNL     1       0.106   1.159  -0.723  0.00  0.00    +0.005 A 
ATOM     10  C   UNL     1       0.001  -0.002   0.021  0.00  0.00    -0.049 A 
BRANCH  10  11
ATOM     11  C   UNL     1      -1.295  -0.771   0.037  0.00  0.00    +0.016 C 
BRANCH  11  12
ATOM     12  C   UNL     1      -2.176  -0.263   1.179  0.00  0.00    -0.074 C 
BRANCH  12  13
ATOM     13  N   UNL     1      -3.439  -1.012   1.194  0.00  0.00    +0.380 N 
ATOM     14  C   UNL     1      -3.195  -2.421   1.597  0.00  0.00    -0.079 C 
ATOM     15  C   UNL     1      -4.581  -2.890   2.104  0.00  0.00    -0.020 C 
ATOM     16  C   UNL     1      -5.130  -1.636   2.821  0.00  0.00    -0.020 C 
ATOM     17  C   UNL     1      -4.351  -0.453   2.216  0.00  0.00    -0.079 C 
ATOM     18  H   UNL     1      -3.874  -0.980   0.285  0.00  0.00    -0.082 HD
ENDBRANCH  12  13
ENDBRANCH  11  12
ENDBRANCH  10  11
ENDBRANCH   1   7
BRANCH   2  19
ATOM     19  C   UNL     1       6.034   2.232   0.170  0.00  0.00    +0.300 C 
ATOM     20  O   UNL     1       6.016   3.446   0.176  0.00  0.00    -0.265 OA
ATOM     21  N   UNL     1       7.208   1.576   0.257  0.00  0.00    -0.302 N 
ATOM     22  H   UNL     1       7.223   0.606   0.252  0.00  0.00    +0.150 HD
BRANCH  21  23
ATOM     23  C   UNL     1       8.462   2.328   0.359  0.00  0.00    +0.036 C 
ATOM     24  C   UNL     1       8.626   3.216  -0.876  0.00  0.00    +0.029 C 
ATOM     25  C   UNL     1       9.935   4.001  -0.769  0.00  0.00    -0.008 C 
ATOM     26  C   UNL     1      11.109   3.024  -0.684  0.00  0.00    +0.007 C 
ATOM     27  C   UNL     1      10.946   2.136   0.550  0.00  0.00    -0.008 C 
ATOM     28  C   UNL     1       9.637   1.351   0.444  0.00  0.00    +0.029 C 
ATOM     29  C   UNL     1      10.916   3.009   1.807  0.00  0.00    +0.007 C 
ATOM     30  C   UNL     1       9.741   3.986   1.722  0.00  0.00    -0.008 C 
ATOM     31  C   UNL     1       9.905   4.874   0.487  0.00  0.00    +0.007 C 
ATOM     32  C   UNL     1       8.432   3.201   1.615  0.00  0.00    +0.029 C 
ENDBRANCH  21  23
ENDBRANCH   2  19
TORSDOF 6
