REMARK  Name = ZINC40173467
REMARK  8 active torsions:
REMARK  status: ('A' for Active; 'I' for Inactive)
REMARK    1  A    between atoms: C_1  and  C_2
REMARK    2  A    between atoms: C_2  and  C_3
REMARK    3  A    between atoms: C_3  and  C_5
REMARK    4  A    between atoms: C_3  and  N_20
REMARK    5  A    between atoms: C_10  and  C_13
REMARK    6  A    between atoms: C_24  and  S_25
REMARK    7  A    between atoms: S_25  and  C_26
REMARK    8  A    between atoms: C_26  and  C_27
REMARK                            x       y       z     vdW  Elec       q    Type
REMARK                         _______ _______ _______ _____ _____    ______ ____
ROOT
ATOM      1  C   UNL     1      -0.148  -0.348   2.453  0.00  0.00    +0.242 C 
ATOM      2  O   UNL     1      -0.514  -1.267   3.155  0.00  0.00    -0.273 OA
ATOM      3  N   UNL     1      -0.486   0.917   2.771  0.00  0.00    -0.263 N 
ATOM      4  C   UNL     1      -1.337   1.161   3.841  0.00  0.00    +0.165 A 
ATOM      5  N   UNL     1      -1.788   2.312   4.305  0.00  0.00    -0.225 NA
ATOM      6  C   UNL     1      -2.602   2.362   5.348  0.00  0.00    +0.080 A 
ATOM      7  C   UNL     1      -2.984   1.199   5.957  0.00  0.00    +0.076 A 
ATOM      8  S   UNL     1      -2.119  -0.000   4.952  0.00  0.00    -0.060 S 
ATOM      9  H   UNL     1      -0.135   1.658   2.251  0.00  0.00    +0.157 HD
ENDROOT
BRANCH   6  10
ATOM     10  C   UNL     1      -3.095   3.667   5.852  0.00  0.00    +0.001 A 
ATOM     11  C   UNL     1      -3.947   3.716   6.954  0.00  0.00    +0.011 A 
ATOM     12  C   UNL     1      -4.403   4.933   7.418  0.00  0.00    +0.020 A 
ATOM     13  C   UNL     1      -4.015   6.104   6.791  0.00  0.00    +0.041 A 
ATOM     14  C   UNL     1      -3.170   6.062   5.696  0.00  0.00    +0.020 A 
ATOM     15  C   UNL     1      -2.703   4.851   5.228  0.00  0.00    +0.011 A 
ATOM     16 CL   UNL     1      -4.593   7.632   7.379  0.00  0.00    -0.084 Cl
ENDBRANCH   6  10
BRANCH   1  17
ATOM     17  C   UNL     1       0.684  -0.621   1.227  0.00  0.00    +0.178 C 
BRANCH  17  18
ATOM     18  N   UNL     1       0.835  -2.067   1.051  0.00  0.00    -0.279 N 
ATOM     19  C   UNL     1      -0.179  -2.964   0.867  0.00  0.00    +0.216 A 
ATOM     20  N   UNL     1       0.351  -4.156   0.748  0.00  0.00    -0.113 NA
ATOM     21  N   UNL     1       1.741  -4.025   0.858  0.00  0.00    -0.121 NA
ATOM     22  C   UNL     1       2.016  -2.756   1.035  0.00  0.00    +0.194 A 
ATOM     23  N   UNL     1      -1.534  -2.664   0.815  0.00  0.00    -0.328 N 
ATOM     24  H   UNL     1      -1.832  -1.746   0.914  0.00  0.00    +0.145 HD
ATOM     25  H   UNL     1      -2.183  -3.372   0.680  0.00  0.00    +0.145 HD
BRANCH  22  26
ATOM     26  S   UNL     1       3.623  -2.060   1.224  0.00  0.00    -0.071 S 
BRANCH  26  27
ATOM     27  C   UNL     1       4.736  -3.488   1.110  0.00  0.00    +0.195 C 
BRANCH  27  28
ATOM     28  C   UNL     1       6.130  -3.037   1.254  0.00  0.00    +0.074 C 
ATOM     29  N   UNL     1       7.205  -2.689   1.366  0.00  0.00    -0.196 NA
ENDBRANCH  27  28
ENDBRANCH  26  27
ENDBRANCH  22  26
ENDBRANCH  17  18
BRANCH  17  31
ATOM     30  C   UNL     1       0.901  -0.180  -1.223  0.00  0.00    +0.006 C 
ATOM     31  C   UNL     1      -0.008  -0.026  -0.002  0.00  0.00    +0.031 C 
ENDBRANCH  17  31
ENDBRANCH   1  17
TORSDOF 7
