REMARK  Name = ZINC13831096
REMARK  4 active torsions:
REMARK  status: ('A' for Active; 'I' for Inactive)
REMARK    1  A    between atoms: C_6  and  C_7
REMARK    2  A    between atoms: C_10  and  C_24
REMARK    3  A    between atoms: C_13  and  C_15
REMARK    4  A    between atoms: C_29  and  O_30
REMARK                            x       y       z     vdW  Elec       q    Type
REMARK                         _______ _______ _______ _____ _____    ______ ____
ROOT
ATOM      1  C   UNL     1      -1.293  -0.775   0.010  0.00  0.00    +0.081 C 
ATOM      2  N   UNL     1      -1.084  -2.063   0.680  0.00  0.00    +0.401 N 
ATOM      3  C   UNL     1      -0.819  -1.821   2.108  0.00  0.00    -0.028 C 
ATOM      4  C   UNL     1      -2.108  -1.303   2.755  0.00  0.00    +0.044 C 
ATOM      5  C   UNL     1      -2.684  -0.203   1.906  0.00  0.00    +0.040 C 
ATOM      6  N   UNL     1      -2.312   0.008   0.699  0.00  0.00    -0.299 NA
ATOM      7  H   UNL     1      -1.910  -2.633   0.582  0.00  0.00    -0.081 HD
ATOM      8  H   UNL     1      -0.294  -2.535   0.266  0.00  0.00    -0.081 HD
ENDROOT
BRANCH   5   9
ATOM      9  C   UNL     1      -3.721   0.669   2.488  0.00  0.00    -0.001 A 
ATOM     10  C   UNL     1      -4.145   0.470   3.804  0.00  0.00    +0.013 A 
ATOM     11  C   UNL     1      -5.114   1.286   4.347  0.00  0.00    +0.050 A 
ATOM     12  C   UNL     1      -5.671   2.308   3.589  0.00  0.00    +0.166 A 
ATOM     13  C   UNL     1      -5.252   2.512   2.275  0.00  0.00    +0.167 A 
ATOM     14  C   UNL     1      -4.277   1.700   1.727  0.00  0.00    +0.059 A 
ATOM     15  O   UNL     1      -5.947   3.566   1.754  0.00  0.00    -0.453 OA
ATOM     16  C   UNL     1      -7.082   3.743   2.623  0.00  0.00    +0.466 C 
ATOM     17  O   UNL     1      -6.627   3.234   3.890  0.00  0.00    -0.453 OA
ENDBRANCH   5   9
BRANCH   1  23
ATOM     18  C   UNL     1      -0.017   1.378   0.010  0.00  0.00    +0.006 A 
ATOM     19  C   UNL     1       1.170   2.086   0.002  0.00  0.00    +0.040 A 
ATOM     20  C   UNL     1       2.379   1.411  -0.013  0.00  0.00    +0.137 A 
ATOM     21  C   UNL     1       2.397   0.026  -0.021  0.00  0.00    +0.053 A 
ATOM     22  C   UNL     1       1.208  -0.680  -0.013  0.00  0.00    +0.022 A 
ATOM     23  C   UNL     1       0.002  -0.004   0.002  0.00  0.00    -0.039 A 
ATOM     24 BR   UNL     1       4.046  -0.899  -0.042  0.00  0.00    -0.047 Br
ATOM     25  F   UNL     1       3.539   2.103  -0.021  0.00  0.00    -0.204 F 
ENDBRANCH   1  23
BRANCH   3  26
ATOM     26  C   UNL     1      -0.398  -3.107   2.772  0.00  0.00    -0.018 A 
ATOM     27  C   UNL     1      -0.694  -4.319   2.179  0.00  0.00    +0.025 A 
ATOM     28  C   UNL     1      -0.307  -5.500   2.788  0.00  0.00    +0.041 A 
ATOM     29  C   UNL     1       0.375  -5.469   3.992  0.00  0.00    +0.023 A 
ATOM     30  C   UNL     1       0.672  -4.259   4.587  0.00  0.00    +0.047 A 
ATOM     31  C   UNL     1       0.290  -3.073   3.975  0.00  0.00    +0.119 A 
ATOM     32 CL   UNL     1      -0.680  -7.022   2.042  0.00  0.00    -0.084 Cl
BRANCH  31  33
ATOM     33  O   UNL     1       0.587  -1.881   4.557  0.00  0.00    -0.507 OA
ATOM     34  H   UNL     1      -0.093  -1.560   5.164  0.00  0.00    +0.292 HD
ENDBRANCH  31  33
ENDBRANCH   3  26
TORSDOF 4
