REMARK  Name = ZINC08879778
REMARK  8 active torsions:
REMARK  status: ('A' for Active; 'I' for Inactive)
REMARK    1  A    between atoms: C_1  and  O_2
REMARK    2  A    between atoms: O_2  and  C_3
REMARK    3  A    between atoms: C_6  and  N_9
REMARK    4  A    between atoms: N_9  and  C_10
REMARK    5  A    between atoms: C_10  and  C_11
REMARK    6  A    between atoms: C_16  and  C_18
REMARK    7  A    between atoms: C_18  and  N_56
REMARK    8  A    between atoms: C_27  and  C_29
REMARK                            x       y       z     vdW  Elec       q    Type
REMARK                         _______ _______ _______ _____ _____    ______ ____
ROOT
ATOM      1  N   UNL     1      -3.373  -1.532  -0.714  0.00  0.00    -0.268 N 
ATOM      2  C   UNL     1      -2.180  -0.905  -0.736  0.00  0.00    +0.204 C 
ATOM      3  O   UNL     1      -1.893  -0.177  -1.663  0.00  0.00    -0.277 OA
ENDROOT
BRANCH   1   7
ATOM      4  C   UNL     1      -5.959  -1.201  -3.969  0.00  0.00    +0.120 A 
ATOM      5  C   UNL     1      -5.396  -2.429  -3.652  0.00  0.00    +0.047 A 
ATOM      6  C   UNL     1      -4.540  -2.539  -2.575  0.00  0.00    +0.027 A 
ATOM      7  C   UNL     1      -4.242  -1.421  -1.808  0.00  0.00    +0.037 A 
ATOM      8  C   UNL     1      -4.810  -0.193  -2.122  0.00  0.00    +0.027 A 
ATOM      9  C   UNL     1      -5.662  -0.083  -3.203  0.00  0.00    +0.047 A 
BRANCH   4  11
ATOM     10  C   UNL     1      -7.346   0.201  -5.298  0.00  0.00    +0.277 C 
ATOM     11  O   UNL     1      -6.803  -1.094  -5.030  0.00  0.00    -0.495 OA
ENDBRANCH   4  11
ENDBRANCH   1   7
BRANCH   1  12
ATOM     12  C   UNL     1      -3.762  -2.328   0.452  0.00  0.00    +0.156 C 
BRANCH  12  13
ATOM     13  C   UNL     1      -4.488  -1.452   1.440  0.00  0.00    +0.007 A 
ATOM     14  C   UNL     1      -5.814  -1.185   1.531  0.00  0.00    +0.013 A 
ATOM     15  C   UNL     1      -6.261  -0.344   2.533  0.00  0.00    +0.008 A 
ATOM     16  C   UNL     1      -5.359   0.198   3.387  0.00  0.00    +0.045 A 
ATOM     17  S   UNL     1      -3.824  -0.489   2.789  0.00  0.00    -0.100 S 
ENDBRANCH  12  13
ENDBRANCH   1  12
BRANCH   2  18
ATOM     18  C   UNL     1      -1.201  -1.110   0.392  0.00  0.00    +0.021 C 
BRANCH  18  28
ATOM     19  C   UNL     1      -0.211   1.097   0.412  0.00  0.00    -0.041 C 
ATOM     20  C   UNL     1       1.066   1.876   0.240  0.00  0.00    -0.061 A 
ATOM     21  C   UNL     1       0.985   3.254   0.097  0.00  0.00    +0.002 A 
ATOM     22  C   UNL     1       2.131   4.007  -0.060  0.00  0.00    +0.000 A 
ATOM     23  C   UNL     1       3.366   3.387  -0.075  0.00  0.00    +0.000 A 
ATOM     24  C   UNL     1       3.448   2.017   0.066  0.00  0.00    +0.004 A 
ATOM     25  C   UNL     1       2.298   1.258   0.222  0.00  0.00    -0.047 A 
ATOM     26  C   UNL     1       2.436  -0.235   0.367  0.00  0.00    +0.029 C 
ATOM     27  C   UNL     1       1.144  -0.827   0.932  0.00  0.00    +0.024 C 
ATOM     28  N   UNL     1       0.021  -0.326   0.112  0.00  0.00    +0.396 N 
ATOM     29  H   UNL     1       0.261  -0.424  -0.881  0.00  0.00    -0.080 HD
BRANCH  27  30
ATOM     30  C   UNL     1       1.193  -2.331   0.851  0.00  0.00    +0.197 C 
ATOM     31  O   UNL     1       0.813  -2.897  -0.152  0.00  0.00    -0.278 OA
ATOM     32  N   UNL     1       1.659  -3.047   1.893  0.00  0.00    -0.331 N 
ATOM     33  H   UNL     1       1.964  -2.594   2.696  0.00  0.00    +0.145 HD
ATOM     34  H   UNL     1       1.691  -4.015   1.841  0.00  0.00    +0.145 HD
ENDBRANCH  27  30
ENDBRANCH  18  28
ENDBRANCH   2  18
TORSDOF 7
