REMARK  Name = ZINC10386538
REMARK  3 active torsions:
REMARK  status: ('A' for Active; 'I' for Inactive)
REMARK    1  A    between atoms: C_3  and  C_10
REMARK    2  A    between atoms: C_5  and  N_7
REMARK    3  A    between atoms: N_16  and  C_17
REMARK                            x       y       z     vdW  Elec       q    Type
REMARK                         _______ _______ _______ _____ _____    ______ ____
ROOT
ATOM      1  C   UNL     1       3.649   2.149  -0.022  0.00  0.00    +0.028 C 
ATOM      2  C   UNL     1       3.636   3.529  -0.119  0.00  0.00    +0.078 C 
ATOM      3  C   UNL     1       4.769   4.474  -0.252  0.00  0.00    +0.256 C 
ATOM      4  O   UNL     1       5.930   4.113  -0.294  0.00  0.00    -0.269 OA
ATOM      5  N   UNL     1       4.407   5.747  -0.322  0.00  0.00    -0.260 N 
ATOM      6  C   UNL     1       3.094   6.102  -0.271  0.00  0.00    +0.168 C 
ATOM      7  N   UNL     1       2.582   7.337  -0.331  0.00  0.00    -0.200 NA
ATOM      8  S   UNL     1       2.252   4.655  -0.127  0.00  0.00    -0.049 S 
ATOM      9  H   UNL     1       5.086   6.435  -0.410  0.00  0.00    +0.157 HD
ENDROOT
BRANCH   1  12
ATOM     10  C   UNL     1       0.021   1.340  -0.482  0.00  0.00    +0.003 A 
ATOM     11  C   UNL     1       1.197   2.054  -0.423  0.00  0.00    +0.008 A 
ATOM     12  C   UNL     1       2.394   1.400  -0.087  0.00  0.00    -0.022 A 
ATOM     13  C   UNL     1       2.378   0.022   0.186  0.00  0.00    +0.040 A 
ATOM     14  C   UNL     1       1.191  -0.673   0.122  0.00  0.00    +0.127 A 
ATOM     15  C   UNL     1       0.016  -0.019  -0.211  0.00  0.00    +0.033 A 
BRANCH  14  16
ATOM     16  N   UNL     1       1.171  -2.126   0.409  0.00  0.00    +0.056 N 
ATOM     17  O   UNL     1       2.287  -2.750   0.725  0.00  0.00    -0.126 OA
ATOM     18  O   UNL     1       0.038  -2.793   0.348  0.00  0.00    -0.126 OA
ENDBRANCH  14  16
ENDBRANCH   1  12
BRANCH   7  19
ATOM     19  C   UNL     1       3.385   8.379  -0.452  0.00  0.00    +0.195 A 
ATOM     20  N   UNL     1       4.736   8.409  -0.539  0.00  0.00    -0.230 NA
ATOM     21  C   UNL     1       5.322   9.549  -0.654  0.00  0.00    +0.121 A 
ATOM     22  C   UNL     1       4.534  10.722  -0.685  0.00  0.00    +0.068 A 
ATOM     23  S   UNL     1       2.970  10.112  -0.553  0.00  0.00    -0.056 S 
ENDBRANCH   7  19
TORSDOF 3
