REMARK  Name = ZINC00650789
REMARK  10 active torsions:
REMARK  status: ('A' for Active; 'I' for Inactive)
REMARK    1  A    between atoms: C_1  and  C_2
REMARK    2  A    between atoms: C_4  and  C_36
REMARK    3  A    between atoms: C_5  and  C_17
REMARK    4  A    between atoms: C_7  and  C_8
REMARK    5  A    between atoms: C_8  and  O_9
REMARK    6  A    between atoms: O_9  and  C_10
REMARK    7  A    between atoms: C_26  and  C_34
REMARK    8  A    between atoms: C_27  and  N_33
REMARK    9  A    between atoms: C_28  and  C_29
REMARK   10  A    between atoms: C_28  and  C_31
REMARK                            x       y       z     vdW  Elec       q    Type
REMARK                         _______ _______ _______ _____ _____    ______ ____
ROOT
ATOM      1  C   UNL     1      -1.831   5.921  -0.409  0.00  0.00    +0.066 C 
ATOM      2  C   UNL     1      -2.384   5.383  -1.730  0.00  0.00    +0.030 C 
ATOM      3  C   UNL     1      -1.409   5.571  -2.868  0.00  0.00    +0.009 C 
ATOM      4  C   UNL     1      -1.745   6.800  -3.710  0.00  0.00    +0.005 C 
ATOM      5  C   UNL     1      -3.164   6.628  -4.269  0.00  0.00    +0.027 C 
ATOM      6  C   UNL     1      -4.111   6.538  -3.101  0.00  0.00    -0.022 C 
ATOM      7  C   UNL     1      -3.734   5.997  -1.959  0.00  0.00    -0.029 C 
ATOM      8  C   UNL     1      -4.664   6.028  -0.800  0.00  0.00    +0.074 C 
ATOM      9  C   UNL     1      -4.182   5.792   0.446  0.00  0.00    +0.054 C 
ATOM     10  C   UNL     1      -2.746   5.472   0.731  0.00  0.00    +0.188 C 
ENDROOT
BRANCH   1  15
ATOM     11  C   UNL     1       3.491   3.839   0.449  0.00  0.00    +0.044 C 
ATOM     12  C   UNL     1       2.103   4.382   0.225  0.00  0.00    -0.044 A 
ATOM     13  C   UNL     1       1.873   5.743   0.301  0.00  0.00    +0.007 A 
ATOM     14  C   UNL     1       0.600   6.241   0.096  0.00  0.00    -0.047 A 
ATOM     15  C   UNL     1      -0.443   5.378  -0.185  0.00  0.00    -0.038 A 
ATOM     16  C   UNL     1      -0.211   4.018  -0.267  0.00  0.00    +0.011 A 
ATOM     17  C   UNL     1       1.061   3.519  -0.056  0.00  0.00    -0.007 A 
ATOM     18  C   UNL     1       0.349   7.724   0.179  0.00  0.00    +0.044 C 
BRANCH  17  19
ATOM     19  C   UNL     1       1.312   2.035  -0.139  0.00  0.00    +0.264 C 
BRANCH  19  20
ATOM     20  O   UNL     1       0.088   1.361  -0.440  0.00  0.00    -0.486 OA
BRANCH  20  21
ATOM     21  C   UNL     1       0.141   0.008  -0.550  0.00  0.00    +0.135 A 
ATOM     22  C   UNL     1       1.346  -0.657  -0.379  0.00  0.00    +0.047 A 
ATOM     23  C   UNL     1       1.395  -2.034  -0.486  0.00  0.00    +0.004 A 
ATOM     24  C   UNL     1       0.247  -2.748  -0.776  0.00  0.00    +0.001 A 
ATOM     25  C   UNL     1      -0.955  -2.088  -0.952  0.00  0.00    +0.019 A 
ATOM     26  C   UNL     1      -1.011  -0.711  -0.840  0.00  0.00    +0.059 A 
ATOM     27 BR   UNL     1      -2.655   0.192  -1.081  0.00  0.00    -0.047 Br
ENDBRANCH  20  21
ENDBRANCH  19  20
ENDBRANCH  17  19
ENDBRANCH   1  15
BRANCH   9  28
ATOM     28  N   UNL     1      -5.053   5.849   1.498  0.00  0.00    -0.358 N 
ATOM     29  H   UNL     1      -4.693   5.663   2.521  0.00  0.00    +0.142 HD
ATOM     30  H   UNL     1      -6.113   6.082   1.322  0.00  0.00    +0.142 HD
ENDBRANCH   9  28
BRANCH  10  31
ATOM     31  C   UNL     1      -2.605   4.019   0.917  0.00  0.00    +0.091 C 
ATOM     32  N   UNL     1      -2.496   2.897   1.060  0.00  0.00    -0.194 NA
ENDBRANCH  10  31
BRANCH  10  33
ATOM     33  C   UNL     1      -2.339   6.155   1.971  0.00  0.00    +0.091 C 
ATOM     34  N   UNL     1      -2.025   6.681   2.927  0.00  0.00    -0.194 NA
ENDBRANCH  10  33
BRANCH   8  35
ATOM     35  C   UNL     1      -6.056   6.303  -0.997  0.00  0.00    +0.101 C 
ATOM     36  N   UNL     1      -7.160   6.522  -1.153  0.00  0.00    -0.191 NA
ENDBRANCH   8  35
TORSDOF 8
