REMARK  Name = ZINC66080311
REMARK  6 active torsions:
REMARK  status: ('A' for Active; 'I' for Inactive)
REMARK    1  A    between atoms: C_12  and  C_15
REMARK    2  A    between atoms: C_13  and  O_14
REMARK    3  A    between atoms: C_15  and  N_16
REMARK    4  A    between atoms: C_20  and  C_23
REMARK    5  A    between atoms: C_23  and  C_24
REMARK    6  A    between atoms: C_24  and  C_25
REMARK                            x       y       z     vdW  Elec       q    Type
REMARK                         _______ _______ _______ _____ _____    ______ ____
ROOT
ATOM      1  C   UNL     1      -0.017   1.387   0.010  0.00  0.00    +0.049 A 
ATOM      2  C   UNL     1       1.160   2.105   0.002  0.00  0.00    +0.050 A 
ATOM      3  C   UNL     1       2.380   1.442  -0.013  0.00  0.00    +0.136 A 
ATOM      4  C   UNL     1       2.401   0.035  -0.021  0.00  0.00    +0.028 A 
ATOM      5  C   UNL     1       3.817  -0.327  -0.038  0.00  0.00    +0.002 A 
ATOM      6  C   UNL     1       4.511   0.824  -0.039  0.00  0.00    +0.109 A 
ATOM      7  O   UNL     1       3.662   1.864  -0.024  0.00  0.00    -0.459 OA
ATOM      8  C   UNL     1       6.021   0.888  -0.052  0.00  0.00    +0.075 C 
ATOM      9  C   UNL     1       6.571  -0.482   0.359  0.00  0.00    +0.008 C 
ATOM     10  C   UNL     1       5.898  -1.575  -0.475  0.00  0.00    +0.005 C 
ATOM     11  C   UNL     1       4.429  -1.702  -0.053  0.00  0.00    +0.039 C 
ATOM     12  C   UNL     1       1.206  -0.682  -0.013  0.00  0.00    -0.011 A 
ATOM     13  C   UNL     1       0.002  -0.004   0.002  0.00  0.00    +0.119 A 
ENDROOT
BRANCH  13  14
ATOM     14  O   UNL     1      -1.167  -0.698   0.010  0.00  0.00    -0.507 OA
ATOM     15  H   UNL     1      -1.514  -0.894  -0.872  0.00  0.00    +0.292 HD
ENDBRANCH  13  14
BRANCH  12  16
ATOM     16  C   UNL     1       1.226  -2.189  -0.021  0.00  0.00    -0.039 C 
BRANCH  16  17
ATOM     17  N   UNL     1       1.247  -2.686   1.361  0.00  0.00    +0.383 N 
ATOM     18  C   UNL     1      -0.002  -2.310   2.033  0.00  0.00    -0.078 C 
ATOM     19  C   UNL     1       0.048  -2.755   3.497  0.00  0.00    -0.018 C 
ATOM     20  C   UNL     1       0.225  -4.275   3.557  0.00  0.00    -0.000 C 
ATOM     21  C   UNL     1       1.492  -4.662   2.789  0.00  0.00    -0.027 C 
ATOM     22  C   UNL     1       1.388  -4.147   1.352  0.00  0.00    -0.075 C 
ATOM     23  H   UNL     1       2.028  -2.277   1.853  0.00  0.00    -0.081 HD
BRANCH  21  24
ATOM     24  C   UNL     1       1.636  -6.186   2.777  0.00  0.00    +0.011 C 
BRANCH  24  25
ATOM     25  C   UNL     1       1.859  -6.687   4.205  0.00  0.00    +0.096 C 
BRANCH  25  26
ATOM     26  C   UNL     1       2.002  -8.188   4.194  0.00  0.00    +0.210 C 
ATOM     27  O   UNL     1       1.931  -8.796   3.147  0.00  0.00    -0.276 OA
ATOM     28  N   UNL     1       2.207  -8.854   5.348  0.00  0.00    -0.329 N 
ATOM     29  H   UNL     1       2.263  -8.368   6.185  0.00  0.00    +0.145 HD
ATOM     30  H   UNL     1       2.299  -9.819   5.340  0.00  0.00    +0.145 HD
ENDBRANCH  25  26
ENDBRANCH  24  25
ENDBRANCH  21  24
ENDBRANCH  16  17
ENDBRANCH  12  16
TORSDOF 6
