REMARK  Name = ZINC09468703
REMARK  10 active torsions:
REMARK  status: ('A' for Active; 'I' for Inactive)
REMARK    1  A    between atoms: C_1  and  C_2
REMARK    2  A    between atoms: C_2  and  C_4
REMARK    3  A    between atoms: C_2  and  S_16
REMARK    4  A    between atoms: S_16  and  C_17
REMARK    5  A    between atoms: C_20  and  C_29
REMARK    6  A    between atoms: N_21  and  C_22
REMARK    7  A    between atoms: C_29  and  C_31
REMARK    8  A    between atoms: C_29  and  N_54
REMARK    9  A    between atoms: C_32  and  N_54
REMARK   10  A    between atoms: C_33  and  N_54
REMARK                            x       y       z     vdW  Elec       q    Type
REMARK                         _______ _______ _______ _____ _____    ______ ____
ROOT
ATOM      1  C   UNL     1       0.573   3.602   0.016  0.00  0.00    +0.197 A 
ATOM      2  N   UNL     1      -0.736   3.500   0.028  0.00  0.00    -0.122 NA
ATOM      3  N   UNL     1      -1.078   2.261   0.019  0.00  0.00    -0.135 NA
ATOM      4  C   UNL     1      -0.018   1.503   0.010  0.00  0.00    +0.125 A 
ATOM      5  N   UNL     1       1.074   2.330   0.004  0.00  0.00    -0.275 N 
ENDROOT
BRANCH   5   6
ATOM      6  C   UNL     1       2.424   1.950  -0.011  0.00  0.00    +0.050 A 
ATOM      7  C   UNL     1       2.968   1.272   1.071  0.00  0.00    +0.028 A 
ATOM      8  C   UNL     1       4.297   0.895   1.051  0.00  0.00    +0.022 A 
ATOM      9  C   UNL     1       5.088   1.203  -0.042  0.00  0.00    +0.041 A 
ATOM     10  C   UNL     1       4.549   1.883  -1.119  0.00  0.00    +0.022 A 
ATOM     11  C   UNL     1       3.220   2.257  -1.106  0.00  0.00    +0.028 A 
ATOM     12 CL   UNL     1       6.759   0.733  -0.061  0.00  0.00    -0.084 Cl
ENDBRANCH   5   6
BRANCH   4  13
ATOM     13  C   UNL     1       0.002  -0.004   0.002  0.00  0.00    -0.003 C 
ATOM     14  C   UNL     1      -0.378  -0.512  -1.391  0.00  0.00    -0.005 C 
BRANCH  13  17
ATOM     15  C   UNL     1      -2.338  -0.179   0.599  0.00  0.00    -0.096 C 
ATOM     16  C   UNL     1      -0.804  -1.960   1.180  0.00  0.00    -0.096 C 
ATOM     17  N   UNL     1      -0.956  -0.499   1.013  0.00  0.00    +0.382 N 
ATOM     18  H   UNL     1      -0.761  -0.039   1.910  0.00  0.00    -0.082 HD
ENDBRANCH  13  17
ENDBRANCH   4  13
BRANCH   1  19
ATOM     19  S   UNL     1       1.507   5.096   0.015  0.00  0.00    -0.075 S 
BRANCH  19  21
ATOM     20  C   UNL     1      -0.612   6.189   1.349  0.00  0.00    +0.027 C 
ATOM     21  C   UNL     1       0.162   6.308   0.034  0.00  0.00    +0.117 C 
BRANCH  21  22
ATOM     22  C   UNL     1       0.735   7.696  -0.088  0.00  0.00    +0.124 A 
ATOM     23  N   UNL     1       0.032   8.624  -0.789  0.00  0.00    -0.309 N 
ATOM     24  H   UNL     1      -0.816   8.380  -1.193  0.00  0.00    +0.170 HD
ATOM     25  C   UNL     1       0.501   9.886  -0.924  0.00  0.00    +0.259 A 
ATOM     26  O   UNL     1      -0.120  10.729  -1.545  0.00  0.00    -0.267 OA
ATOM     27  C   UNL     1       1.793  10.199  -0.295  0.00  0.00    +0.065 A 
ATOM     28  C   UNL     1       2.366  11.466  -0.379  0.00  0.00    +0.015 A 
ATOM     29  C   UNL     1       3.579  11.704   0.228  0.00  0.00    +0.001 A 
ATOM     30  C   UNL     1       4.232  10.694   0.921  0.00  0.00    +0.002 A 
ATOM     31  C   UNL     1       3.683   9.435   1.016  0.00  0.00    +0.028 A 
ATOM     32  C   UNL     1       2.454   9.169   0.409  0.00  0.00    +0.078 A 
ATOM     33  N   UNL     1       1.877   7.943   0.477  0.00  0.00    -0.233 NA
ENDBRANCH  21  22
ENDBRANCH  19  21
ENDBRANCH   1  19
TORSDOF 6
