REMARK  Name = ZINC08843560
REMARK  5 active torsions:
REMARK  status: ('A' for Active; 'I' for Inactive)
REMARK    1  A    between atoms: C_5  and  C_7
REMARK    2  A    between atoms: C_10  and  C_23
REMARK    3  A    between atoms: N_12  and  C_13
REMARK    4  A    between atoms: C_16  and  S_19
REMARK    5  A    between atoms: S_19  and  N_22
REMARK                            x       y       z     vdW  Elec       q    Type
REMARK                         _______ _______ _______ _____ _____    ______ ____
ROOT
ATOM      1  C   UNL     1       2.471   5.355   0.006  0.00  0.00    +0.137 C 
ATOM      2  C   UNL     1       3.994   5.593  -0.008  0.00  0.00    +0.087 C 
ATOM      3  C   UNL     1       4.581   4.200  -0.021  0.00  0.00    +0.069 C 
ATOM      4  N   UNL     1       3.629   3.332  -0.010  0.00  0.00    -0.183 NA
ATOM      5  N   UNL     1       2.351   3.888  -0.000  0.00  0.00    -0.216 N 
ENDROOT
BRANCH   1  10
ATOM      6  C   UNL     1       1.164   5.680   3.533  0.00  0.00    +0.000 A 
ATOM      7  C   UNL     1       0.724   6.990   3.546  0.00  0.00    +0.003 A 
ATOM      8  C   UNL     1       0.849   7.773   2.414  0.00  0.00    +0.039 A 
ATOM      9  C   UNL     1       1.415   7.244   1.266  0.00  0.00    +0.128 A 
ATOM     10  C   UNL     1       1.855   5.932   1.254  0.00  0.00    +0.010 A 
ATOM     11  C   UNL     1       1.724   5.149   2.386  0.00  0.00    +0.008 A 
ATOM     12  F   UNL     1       1.537   8.008   0.159  0.00  0.00    -0.205 F 
ENDBRANCH   1  10
BRANCH   3  13
ATOM     13  C   UNL     1       6.021   3.884  -0.036  0.00  0.00    -0.002 A 
ATOM     14  C   UNL     1       6.965   4.913  -0.046  0.00  0.00    +0.012 A 
ATOM     15  C   UNL     1       8.311   4.611  -0.057  0.00  0.00    +0.039 A 
ATOM     16  C   UNL     1       8.727   3.289  -0.067  0.00  0.00    +0.123 A 
ATOM     17  C   UNL     1       7.795   2.263  -0.062  0.00  0.00    +0.039 A 
ATOM     18  C   UNL     1       6.447   2.553  -0.047  0.00  0.00    +0.012 A 
ATOM     19  F   UNL     1      10.046   2.999  -0.082  0.00  0.00    -0.205 F 
ENDBRANCH   3  13
BRANCH   5  20
ATOM     20  C   UNL     1       1.154   3.171   0.008  0.00  0.00    +0.052 A 
ATOM     21  C   UNL     1       1.174   1.782   0.000  0.00  0.00    +0.027 A 
ATOM     22  C   UNL     1      -0.013   1.076   0.008  0.00  0.00    +0.030 A 
ATOM     23  C   UNL     1      -1.220   1.750   0.017  0.00  0.00    +0.105 A 
ATOM     24  C   UNL     1      -1.244   3.133   0.030  0.00  0.00    +0.030 A 
ATOM     25  C   UNL     1      -0.061   3.845   0.022  0.00  0.00    +0.027 A 
BRANCH  23  26
ATOM     26  S   UNL     1      -2.732   0.845   0.020  0.00  0.00    +0.056 S 
ATOM     27  O   UNL     1      -3.723   1.708  -0.521  0.00  0.00    -0.153 OA
ATOM     28  O   UNL     1      -2.444  -0.429  -0.539  0.00  0.00    -0.153 OA
BRANCH  26  29
ATOM     29  N   UNL     1      -3.144   0.586   1.603  0.00  0.00    -0.204 NA
ATOM     30  H   UNL     1      -2.575   0.920   2.313  0.00  0.00    +0.144 HD
ATOM     31  H   UNL     1      -3.955   0.099   1.819  0.00  0.00    +0.144 HD
ENDBRANCH  26  29
ENDBRANCH  23  26
ENDBRANCH   5  20
TORSDOF 5
