REMARK  Name = ZINC09807347
REMARK  10 active torsions:
REMARK  status: ('A' for Active; 'I' for Inactive)
REMARK    1  A    between atoms: C_1  and  C_2
REMARK    2  A    between atoms: C_5  and  C_36
REMARK    3  A    between atoms: C_6  and  S_8
REMARK    4  A    between atoms: S_8  and  N_11
REMARK    5  A    between atoms: C_15  and  C_17
REMARK    6  A    between atoms: C_17  and  N_18
REMARK    7  A    between atoms: C_19  and  C_21
REMARK    8  A    between atoms: N_23  and  C_24
REMARK    9  A    between atoms: C_24  and  C_25
REMARK   10  A    between atoms: C_25  and  C_26
REMARK                            x       y       z     vdW  Elec       q    Type
REMARK                         _______ _______ _______ _____ _____    ______ ____
ROOT
ATOM      1  N   UNL     1       3.648   8.968   3.220  0.00  0.00    -0.306 N 
ATOM      2  C   UNL     1       2.865   8.923   2.124  0.00  0.00    +0.299 C 
ATOM      3  O   UNL     1       2.932   9.806   1.294  0.00  0.00    -0.265 OA
ATOM      4  H   UNL     1       3.595   8.263   3.883  0.00  0.00    +0.149 HD
ENDROOT
BRANCH   2   5
ATOM      5  C   UNL     1       1.913   7.787   1.931  0.00  0.00    +0.299 C 
ATOM      6  O   UNL     1       1.846   6.904   2.762  0.00  0.00    -0.265 OA
ATOM      7  N   UNL     1       1.130   7.742   0.836  0.00  0.00    -0.307 N 
ATOM      8  H   UNL     1       1.183   8.447   0.172  0.00  0.00    +0.149 HD
BRANCH   7   9
ATOM      9  C   UNL     1       0.197   6.628   0.647  0.00  0.00    +0.109 C 
BRANCH   9  10
ATOM     10  C   UNL     1      -0.566   6.818  -0.665  0.00  0.00    +0.056 C 
BRANCH  10  11
ATOM     11  C   UNL     1      -1.525   5.672  -0.859  0.00  0.00    -0.021 A 
ATOM     12  C   UNL     1      -1.300   4.553  -1.565  0.00  0.00    +0.087 A 
ATOM     13  N   UNL     1      -2.400   3.741  -1.516  0.00  0.00    -0.360 N 
ATOM     14  H   UNL     1      -2.474   2.877  -1.950  0.00  0.00    +0.165 HD
ATOM     15  C   UNL     1      -3.387   4.335  -0.761  0.00  0.00    +0.047 A 
ATOM     16  C   UNL     1      -2.880   5.568  -0.312  0.00  0.00    +0.003 A 
ATOM     17  C   UNL     1      -3.670   6.396   0.487  0.00  0.00    +0.010 A 
ATOM     18  C   UNL     1      -4.931   6.001   0.834  0.00  0.00    +0.001 A 
ATOM     19  C   UNL     1      -5.434   4.783   0.398  0.00  0.00    +0.002 A 
ATOM     20  C   UNL     1      -4.671   3.951  -0.392  0.00  0.00    +0.026 A 
ENDBRANCH  10  11
ENDBRANCH   9  10
ENDBRANCH   7   9
ENDBRANCH   2   5
BRANCH   1  21
ATOM     21  C   UNL     1       4.581  10.082   3.408  0.00  0.00    +0.125 C 
BRANCH  21  26
ATOM     22  N   UNL     1       4.198  10.058   5.834  0.00  0.00    -0.172 NA
ATOM     23  C   UNL     1       4.465  11.244   6.669  0.00  0.00    +0.110 C 
ATOM     24  C   UNL     1       5.981  11.514   6.502  0.00  0.00    +0.019 C 
ATOM     25  C   UNL     1       6.201  11.155   5.006  0.00  0.00    +0.023 C 
ATOM     26  C   UNL     1       5.230   9.976   4.790  0.00  0.00    +0.097 C 
BRANCH  22  27
ATOM     27  S   UNL     1       2.945   8.996   6.038  0.00  0.00    +0.061 S 
ATOM     28  O   UNL     1       1.844   9.523   5.310  0.00  0.00    -0.153 OA
ATOM     29  O   UNL     1       3.468   7.698   5.795  0.00  0.00    -0.153 OA
BRANCH  27  35
ATOM     30  C   UNL     1      -0.496   9.991   9.845  0.00  0.00    +0.044 C 
ATOM     31  C   UNL     1       0.877   9.518   9.444  0.00  0.00    -0.049 A 
ATOM     32  C   UNL     1       1.782   9.123  10.411  0.00  0.00    +0.004 A 
ATOM     33  C   UNL     1       3.042   8.689  10.043  0.00  0.00    +0.005 A 
ATOM     34  C   UNL     1       3.397   8.651   8.708  0.00  0.00    -0.024 A 
ATOM     35  C   UNL     1       2.492   9.045   7.740  0.00  0.00    +0.109 A 
ATOM     36  C   UNL     1       1.234   9.484   8.109  0.00  0.00    +0.032 A 
ATOM     37  C   UNL     1       4.771   8.178   8.307  0.00  0.00    +0.046 C 
ENDBRANCH  27  35
ENDBRANCH  22  27
ENDBRANCH  21  26
ENDBRANCH   1  21
TORSDOF 8
