REMARK  Name = ZINC12129964
REMARK  4 active torsions:
REMARK  status: ('A' for Active; 'I' for Inactive)
REMARK    1  A    between atoms: C_4  and  C_7
REMARK    2  A    between atoms: N_10  and  C_11
REMARK    3  A    between atoms: C_12  and  C_20
REMARK    4  A    between atoms: C_24  and  O_29
REMARK                            x       y       z     vdW  Elec       q    Type
REMARK                         _______ _______ _______ _____ _____    ______ ____
ROOT
ATOM      1  C   UNL     1       1.659   6.768  -0.283  0.00  0.00    +0.138 A 
ATOM      2  C   UNL     1       2.386   5.625  -0.192  0.00  0.00    +0.073 A 
ATOM      3  C   UNL     1       1.718   4.378  -0.090  0.00  0.00    +0.054 A 
ATOM      4  N   UNL     1       2.394   3.238  -0.003  0.00  0.00    -0.348 N 
ATOM      5  C   UNL     1       0.240   4.398  -0.078  0.00  0.00    +0.044 A 
ATOM      6  C   UNL     1      -0.498   3.223   0.025  0.00  0.00    +0.059 A 
ATOM      7  C   UNL     1      -1.880   3.284   0.031  0.00  0.00    +0.118 A 
ATOM      8  C   UNL     1      -2.526   4.512  -0.063  0.00  0.00    +0.049 A 
ATOM      9  C   UNL     1      -1.799   5.681  -0.165  0.00  0.00    +0.050 A 
ATOM     10  C   UNL     1      -0.412   5.638  -0.173  0.00  0.00    +0.138 A 
ATOM     11  O   UNL     1       0.315   6.773  -0.272  0.00  0.00    -0.455 OA
ATOM     12  H   UNL     1       3.489   3.254   0.102  0.00  0.00    +0.166 HD
ENDROOT
BRANCH   4  13
ATOM     13  C   UNL     1       1.740   2.064  -0.044  0.00  0.00    +0.096 A 
ATOM     14  C   UNL     1       1.363   1.230   1.018  0.00  0.00    +0.086 A 
ATOM     15  C   UNL     1       0.656   0.005   0.690  0.00  0.00    -0.018 A 
ATOM     16  C   UNL     1       0.425  -0.222  -0.624  0.00  0.00    -0.004 A 
ATOM     17  S   UNL     1       1.130   1.171  -1.462  0.00  0.00    -0.075 S 
ATOM     18  C   UNL     1      -0.276  -1.399  -1.230  0.00  0.00    +0.043 C 
ATOM     19  C   UNL     1      -0.373  -2.505  -0.170  0.00  0.00    +0.005 C 
ATOM     20  C   UNL     1      -0.888  -1.890   1.135  0.00  0.00    +0.005 C 
ATOM     21  C   UNL     1       0.187  -0.992   1.746  0.00  0.00    +0.037 C 
BRANCH  14  22
ATOM     22  C   UNL     1       1.663   1.573   2.375  0.00  0.00    +0.102 C 
ATOM     23  N   UNL     1       1.902   1.845   3.452  0.00  0.00    -0.191 NA
ENDBRANCH  14  22
ENDBRANCH   4  13
BRANCH   1  27
ATOM     24  C   UNL     1       3.709  10.472  -0.602  0.00  0.00    +0.000 A 
ATOM     25  C   UNL     1       2.326  10.450  -0.589  0.00  0.00    +0.001 A 
ATOM     26  C   UNL     1       1.653   9.250  -0.485  0.00  0.00    +0.011 A 
ATOM     27  C   UNL     1       2.372   8.056  -0.394  0.00  0.00    +0.017 A 
ATOM     28  C   UNL     1       3.768   8.086  -0.403  0.00  0.00    +0.011 A 
ATOM     29  C   UNL     1       4.428   9.292  -0.513  0.00  0.00    +0.001 A 
ENDBRANCH   1  27
BRANCH   7  30
ATOM     30  O   UNL     1      -2.610   2.140   0.130  0.00  0.00    -0.507 OA
ATOM     31  H   UNL     1      -3.708   2.188   0.136  0.00  0.00    +0.292 HD
ENDBRANCH   7  30
TORSDOF 4
