REMARK  Name = ZINC63480848
REMARK  10 active torsions:
REMARK  status: ('A' for Active; 'I' for Inactive)
REMARK    1  A    between atoms: C_1  and  C_2
REMARK    2  A    between atoms: C_2  and  C_3
REMARK    3  A    between atoms: C_9  and  C_11
REMARK    4  A    between atoms: C_11  and  S_12
REMARK    5  A    between atoms: S_12  and  C_13
REMARK    6  A    between atoms: C_17  and  C_28
REMARK    7  A    between atoms: N_19  and  C_20
REMARK    8  A    between atoms: C_23  and  O_26
REMARK    9  A    between atoms: O_26  and  C_27
REMARK   10  A    between atoms: C_28  and  C_29
REMARK                            x       y       z     vdW  Elec       q    Type
REMARK                         _______ _______ _______ _____ _____    ______ ____
ROOT
ATOM      1  C   UNL     1       5.195  -3.425  -8.579  0.00  0.00    +0.276 C 
ATOM      2  N   UNL     1       4.697  -2.382  -9.477  0.00  0.00    -0.156 NA
ATOM      3  N   UNL     1       3.748  -2.775 -10.152  0.00  0.00    -0.166 NA
ATOM      4  C   UNL     1       3.406  -4.166  -9.851  0.00  0.00    +0.222 C 
ATOM      5  N   UNL     1       4.353  -4.611  -8.813  0.00  0.00    -0.274 N 
ENDROOT
BRANCH   5   6
ATOM      6  C   UNL     1       4.434  -5.864  -8.195  0.00  0.00    +0.034 A 
ATOM      7  C   UNL     1       3.551  -6.874  -8.552  0.00  0.00    +0.027 A 
ATOM      8  C   UNL     1       3.632  -8.110  -7.942  0.00  0.00    +0.047 A 
ATOM      9  C   UNL     1       4.596  -8.344  -6.973  0.00  0.00    +0.120 A 
ATOM     10  C   UNL     1       5.479  -7.336  -6.615  0.00  0.00    +0.047 A 
ATOM     11  C   UNL     1       5.403  -6.100  -7.228  0.00  0.00    +0.027 A 
BRANCH   9  12
ATOM     12  O   UNL     1       4.675  -9.561  -6.373  0.00  0.00    -0.495 OA
ATOM     13  C   UNL     1       5.692  -9.732  -5.383  0.00  0.00    +0.277 C 
ENDBRANCH   9  12
ENDBRANCH   5   6
BRANCH   1  14
ATOM     14  S   UNL     1       5.044  -2.884  -6.854  0.00  0.00    -0.104 S 
BRANCH  14  15
ATOM     15  C   UNL     1       3.275  -2.533  -6.657  0.00  0.00    +0.168 C 
BRANCH  15  22
ATOM     16  C   UNL     1       0.707  -0.490  -1.238  0.00  0.00    +0.103 A 
ATOM     17  N   UNL     1       1.983  -0.759  -1.434  0.00  0.00    -0.145 NA
ATOM     18  N   UNL     1       2.358  -1.161  -2.572  0.00  0.00    -0.126 NA
ATOM     19  C   UNL     1       1.510  -1.319  -3.570  0.00  0.00    +0.188 A 
ATOM     20  S   UNL     1       0.050  -0.872  -2.855  0.00  0.00    -0.035 S 
ATOM     21  N   UNL     1       1.756  -1.748  -4.870  0.00  0.00    -0.263 N 
ATOM     22  C   UNL     1       3.009  -2.068  -5.248  0.00  0.00    +0.229 C 
ATOM     23  O   UNL     1       3.923  -1.982  -4.455  0.00  0.00    -0.275 OA
ATOM     24  H   UNL     1       1.025  -1.817  -5.504  0.00  0.00    +0.157 HD
BRANCH  16  26
ATOM     25  C   UNL     1      -0.019   1.526   0.010  0.00  0.00    +0.011 C 
ATOM     26  C   UNL     1       0.002  -0.004   0.002  0.00  0.00    +0.061 C 
ENDBRANCH  16  26
ENDBRANCH  15  22
ENDBRANCH  14  15
ENDBRANCH   1  14
BRANCH   4  27
ATOM     27  C   UNL     1       1.971  -4.252  -9.327  0.00  0.00    +0.102 C 
BRANCH  27  28
ATOM     28  C   UNL     1       1.011  -3.874 -10.426  0.00  0.00    +0.029 A 
ATOM     29  N   UNL     1       0.713  -2.558 -10.656  0.00  0.00    -0.311 N 
ATOM     30  C   UNL     1      -0.142  -2.210 -11.634  0.00  0.00    +0.327 A 
ATOM     31  O   UNL     1      -0.393  -1.035 -11.822  0.00  0.00    -0.247 OA
ATOM     32  N   UNL     1      -0.724  -3.144 -12.410  0.00  0.00    -0.275 N 
ATOM     33  C   UNL     1      -0.456  -4.452 -12.215  0.00  0.00    +0.254 A 
ATOM     34  O   UNL     1      -0.982  -5.298 -12.915  0.00  0.00    -0.268 OA
ATOM     35  C   UNL     1       0.445  -4.831 -11.191  0.00  0.00    +0.091 A 
ATOM     36  H   UNL     1      -1.338  -2.876 -13.111  0.00  0.00    +0.173 HD
ATOM     37  H   UNL     1       1.122  -1.870 -10.108  0.00  0.00    +0.170 HD
ENDBRANCH  27  28
ENDBRANCH   4  27
TORSDOF 8
