REMARK  Name = ZINC08280836
REMARK  7 active torsions:
REMARK  status: ('A' for Active; 'I' for Inactive)
REMARK    1  A    between atoms: C_1  and  C_2
REMARK    2  A    between atoms: C_5  and  C_29
REMARK    3  A    between atoms: C_6  and  N_8
REMARK    4  A    between atoms: C_9  and  C_11
REMARK    5  A    between atoms: C_11  and  C_12
REMARK    6  A    between atoms: C_12  and  C_13
REMARK    7  A    between atoms: C_25  and  C_28
REMARK                            x       y       z     vdW  Elec       q    Type
REMARK                         _______ _______ _______ _____ _____    ______ ____
ROOT
ATOM      1  C   UNL     1       0.504  -2.683   7.314  0.00  0.00    +0.111 A 
ATOM      2  N   UNL     1       0.596  -2.003   8.485  0.00  0.00    -0.310 N 
ATOM      3  H   UNL     1       0.577  -1.033   8.475  0.00  0.00    +0.170 HD
ATOM      4  C   UNL     1       0.713  -2.647   9.662  0.00  0.00    +0.260 A 
ATOM      5  O   UNL     1       0.794  -2.022  10.705  0.00  0.00    -0.267 OA
ATOM      6  C   UNL     1       0.740  -4.080   9.666  0.00  0.00    +0.075 A 
ATOM      7  C   UNL     1       0.860  -4.983  10.811  0.00  0.00    -0.023 A 
ATOM      8  C   UNL     1       0.861  -6.307  10.549  0.00  0.00    -0.004 A 
ATOM      9  S   UNL     1       0.704  -6.426   8.787  0.00  0.00    -0.073 S 
ATOM     10  C   UNL     1       0.638  -4.694   8.408  0.00  0.00    +0.116 A 
ATOM     11  N   UNL     1       0.520  -3.988   7.286  0.00  0.00    -0.227 NA
ATOM     12  C   UNL     1       0.972  -7.428  11.537  0.00  0.00    +0.046 C 
ATOM     13  C   UNL     1       1.461  -6.849  12.872  0.00  0.00    -0.009 C 
ATOM     14  C   UNL     1       0.627  -5.608  13.204  0.00  0.00    +0.008 C 
ATOM     15  C   UNL     1       0.981  -4.472  12.244  0.00  0.00    +0.037 C 
ATOM     16  C   UNL     1       1.290  -7.893  13.977  0.00  0.00    +0.008 C 
ENDROOT
BRANCH   1  17
ATOM     17  C   UNL     1       0.374  -1.917   6.022  0.00  0.00    +0.083 C 
BRANCH  17  18
ATOM     18  C   UNL     1       0.280  -2.900   4.854  0.00  0.00    +0.104 C 
BRANCH  18  20
ATOM     19  N   UNL     1       0.052  -2.797   2.393  0.00  0.00    -0.285 N 
ATOM     20  C   UNL     1       0.150  -2.135   3.562  0.00  0.00    +0.218 C 
ATOM     21  O   UNL     1       0.134  -0.922   3.575  0.00  0.00    -0.275 OA
ATOM     22  H   UNL     1      -0.016  -3.765   2.388  0.00  0.00    +0.155 HD
BRANCH  19  28
ATOM     23  C   UNL     1       1.264   1.227  -0.158  0.00  0.00    +0.044 C 
ATOM     24  C   UNL     1       0.628  -0.137  -0.079  0.00  0.00    -0.049 A 
ATOM     25  C   UNL     1       0.039  -0.690  -1.201  0.00  0.00    +0.004 A 
ATOM     26  C   UNL     1      -0.546  -1.941  -1.133  0.00  0.00    +0.005 A 
ATOM     27  C   UNL     1      -0.543  -2.643   0.057  0.00  0.00    -0.029 A 
ATOM     28  C   UNL     1       0.048  -2.090   1.185  0.00  0.00    +0.037 A 
ATOM     29  C   UNL     1       0.639  -0.835   1.112  0.00  0.00    +0.027 A 
ATOM     30  C   UNL     1      -1.181  -4.006   0.131  0.00  0.00    +0.045 C 
ENDBRANCH  19  28
ENDBRANCH  18  20
ENDBRANCH  17  18
ENDBRANCH   1  17
TORSDOF 4
