REMARK  Name = ZINC63513944
REMARK  7 active torsions:
REMARK  status: ('A' for Active; 'I' for Inactive)
REMARK    1  A    between atoms: C_5  and  S_14
REMARK    2  A    between atoms: C_10  and  N_11
REMARK    3  A    between atoms: S_14  and  C_15
REMARK    4  A    between atoms: C_15  and  C_16
REMARK    5  A    between atoms: N_18  and  C_19
REMARK    6  A    between atoms: C_19  and  C_20
REMARK    7  A    between atoms: C_20  and  C_21
REMARK                            x       y       z     vdW  Elec       q    Type
REMARK                         _______ _______ _______ _____ _____    ______ ____
ROOT
ATOM      1  C   UNL     1       4.412   0.743   2.819  0.00  0.00    +0.168 C 
ENDROOT
BRANCH   1   2
ATOM      2  C   UNL     1       5.167   0.747   4.123  0.00  0.00    +0.223 C 
ATOM      3  O   UNL     1       6.380   0.764   4.122  0.00  0.00    -0.275 OA
ATOM      4  N   UNL     1       4.495   0.730   5.291  0.00  0.00    -0.315 N 
ATOM      5  H   UNL     1       3.525   0.716   5.292  0.00  0.00    +0.149 HD
BRANCH   4   6
ATOM      6  C   UNL     1       5.229   0.734   6.559  0.00  0.00    +0.105 C 
BRANCH   6   7
ATOM      7  C   UNL     1       4.236   0.713   7.723  0.00  0.00    +0.025 C 
BRANCH   7   8
ATOM      8  C   UNL     1       5.003   0.717   9.047  0.00  0.00    -0.027 C 
ATOM      9  C   UNL     1       5.900  -0.520   9.120  0.00  0.00    +0.010 C 
ATOM     10  C   UNL     1       6.667  -0.516  10.445  0.00  0.00    -0.010 C 
ATOM     11  C   UNL     1       5.674  -0.537  11.609  0.00  0.00    +0.007 C 
ATOM     12  C   UNL     1       4.776   0.699  11.536  0.00  0.00    -0.010 C 
ATOM     13  C   UNL     1       4.010   0.696  10.211  0.00  0.00    +0.010 C 
ATOM     14  C   UNL     1       5.638   1.961  11.623  0.00  0.00    +0.007 C 
ATOM     15  C   UNL     1       6.630   1.982  10.459  0.00  0.00    -0.010 C 
ATOM     16  C   UNL     1       7.528   0.745  10.532  0.00  0.00    +0.007 C 
ATOM     17  C   UNL     1       5.864   1.978   9.134  0.00  0.00    +0.010 C 
ENDBRANCH   7   8
ENDBRANCH   6   7
ENDBRANCH   4   6
ENDBRANCH   1   2
BRANCH   1  18
ATOM     18  S   UNL     1       5.589   0.768   1.439  0.00  0.00    -0.106 S 
BRANCH  18  23
ATOM     19  C   UNL     1      -0.017   1.402   0.010  0.00  0.00    +0.035 A 
ATOM     20  C   UNL     1       1.108   2.144   0.003  0.00  0.00    +0.029 A 
ATOM     21  C   UNL     1       2.417   1.476  -0.013  0.00  0.00    +0.061 A 
ATOM     22  N   UNL     1       3.639   1.924  -0.022  0.00  0.00    -0.355 N 
ATOM     23  C   UNL     1       4.535   0.761  -0.037  0.00  0.00    +0.236 C 
ATOM     24  N   UNL     1       3.671  -0.427  -0.035  0.00  0.00    -0.355 N 
ATOM     25  C   UNL     1       2.437  -0.012  -0.021  0.00  0.00    +0.063 A 
ATOM     26  C   UNL     1       1.147  -0.715  -0.013  0.00  0.00    +0.060 A 
ATOM     27  C   UNL     1       0.002  -0.004   0.002  0.00  0.00    +0.128 A 
ATOM     28  H   UNL     1       3.966  -1.351  -0.043  0.00  0.00    +0.162 HD
ATOM     29  H   UNL     1       3.909   2.856  -0.020  0.00  0.00    +0.162 HD
BRANCH  27  30
ATOM     30  N   UNL     1      -1.286  -0.732   0.010  0.00  0.00    +0.056 N 
ATOM     31  O   UNL     1      -2.328  -0.118   0.024  0.00  0.00    -0.126 OA
ATOM     32  O   UNL     1      -1.298  -1.941   0.004  0.00  0.00    -0.126 OA
ENDBRANCH  27  30
ENDBRANCH  18  23
ENDBRANCH   1  18
TORSDOF 7
