REMARK  Name = ZINC63428499
REMARK  8 active torsions:
REMARK  status: ('A' for Active; 'I' for Inactive)
REMARK    1  A    between atoms: C_6  and  S_10
REMARK    2  A    between atoms: S_10  and  C_11
REMARK    3  A    between atoms: C_14  and  C_16
REMARK    4  A    between atoms: N_17  and  N_18
REMARK    5  A    between atoms: C_19  and  C_21
REMARK    6  A    between atoms: C_21  and  S_22
REMARK    7  A    between atoms: S_22  and  C_23
REMARK    8  A    between atoms: C_23  and  C_24
REMARK                            x       y       z     vdW  Elec       q    Type
REMARK                         _______ _______ _______ _____ _____    ______ ____
ROOT
ATOM      1  C   UNL     1       2.879  -1.885  -2.748  0.00  0.00    +0.166 A 
ATOM      2  C   UNL     1       2.896  -2.096  -4.093  0.00  0.00    +0.057 A 
ATOM      3  C   UNL     1       2.189  -1.038  -4.684  0.00  0.00    +0.052 A 
ATOM      4  C   UNL     1       1.770  -0.225  -3.669  0.00  0.00    +0.149 A 
ATOM      5  O   UNL     1       2.192  -0.757  -2.501  0.00  0.00    -0.448 OA
ENDROOT
BRANCH   4   6
ATOM      6  C   UNL     1       0.994   1.005  -3.820  0.00  0.00    +0.176 C 
ATOM      7  N   UNL     1       0.738   1.746  -2.779  0.00  0.00    -0.185 NA
BRANCH   7   8
ATOM      8  N   UNL     1       0.086   2.975  -2.938  0.00  0.00    -0.206 N 
ATOM      9  C   UNL     1      -0.089   3.787  -1.876  0.00  0.00    +0.242 C 
ATOM     10  O   UNL     1       0.397   3.496  -0.803  0.00  0.00    -0.273 OA
ATOM     11  H   UNL     1      -0.240   3.243  -3.811  0.00  0.00    +0.177 HD
BRANCH   9  12
ATOM     12  C   UNL     1      -0.889   5.056  -2.022  0.00  0.00    +0.166 C 
BRANCH  12  13
ATOM     13  S   UNL     1      -0.942   5.924  -0.429  0.00  0.00    -0.147 S 
BRANCH  13  14
ATOM     14  C   UNL     1      -1.927   7.408  -0.771  0.00  0.00    +0.104 C 
BRANCH  14  15
ATOM     15  C   UNL     1      -2.050   8.229   0.487  0.00  0.00    -0.037 A 
ATOM     16  C   UNL     1      -3.101   8.007   1.357  0.00  0.00    +0.005 A 
ATOM     17  C   UNL     1      -3.215   8.760   2.510  0.00  0.00    +0.015 A 
ATOM     18  C   UNL     1      -2.276   9.736   2.794  0.00  0.00    +0.018 A 
ATOM     19  C   UNL     1      -1.225   9.958   1.923  0.00  0.00    +0.015 A 
ATOM     20  C   UNL     1      -1.109   9.201   0.773  0.00  0.00    +0.005 A 
ATOM     21 BR   UNL     1      -2.431  10.766   4.372  0.00  0.00    -0.050 Br
ENDBRANCH  14  15
ENDBRANCH  13  14
ENDBRANCH  12  13
ENDBRANCH   9  12
ENDBRANCH   7   8
ENDBRANCH   4   6
BRANCH   1  22
ATOM     22  S   UNL     1       3.626  -2.922  -1.536  0.00  0.00    -0.042 S 
BRANCH  22  28
ATOM     23  C   UNL     1       6.658   1.769  -3.167  0.00  0.00    +0.002 A 
ATOM     24  C   UNL     1       7.242   0.866  -4.074  0.00  0.00    +0.002 A 
ATOM     25  C   UNL     1       7.118  -0.471  -3.950  0.00  0.00    +0.027 A 
ATOM     26  C   UNL     1       6.347  -1.026  -2.829  0.00  0.00    +0.061 A 
ATOM     27  N   UNL     1       6.065  -2.244  -2.466  0.00  0.00    -0.355 N 
ATOM     28  C   UNL     1       5.249  -2.163  -1.248  0.00  0.00    +0.243 C 
ATOM     29  N   UNL     1       5.091  -0.735  -0.950  0.00  0.00    -0.355 N 
ATOM     30  C   UNL     1       5.730  -0.070  -1.869  0.00  0.00    +0.061 A 
ATOM     31  C   UNL     1       5.932   1.366  -2.106  0.00  0.00    +0.027 A 
ATOM     32  H   UNL     1       6.344  -3.056  -2.917  0.00  0.00    +0.162 HD
ATOM     33  H   UNL     1       4.600  -0.355  -0.204  0.00  0.00    +0.162 HD
ENDBRANCH  22  28
ENDBRANCH   1  22
TORSDOF 8
