REMARK  Name = ZINC20752777
REMARK  5 active torsions:
REMARK  status: ('A' for Active; 'I' for Inactive)
REMARK    1  A    between atoms: C_1  and  N_2
REMARK    2  A    between atoms: N_2  and  C_3
REMARK    3  A    between atoms: N_2  and  S_9
REMARK    4  A    between atoms: S_9  and  C_12
REMARK    5  A    between atoms: C_25  and  C_28
REMARK                            x       y       z     vdW  Elec       q    Type
REMARK                         _______ _______ _______ _____ _____    ______ ____
ROOT
ATOM      1  C   UNL     1       1.682  -1.059  -1.905  0.00  0.00    +0.106 A 
ATOM      2  C   UNL     1       2.322  -0.107  -2.678  0.00  0.00    +0.030 A 
ATOM      3  C   UNL     1       3.637  -0.298  -3.049  0.00  0.00    +0.025 A 
ATOM      4  C   UNL     1       4.318  -1.442  -2.646  0.00  0.00    +0.031 A 
ATOM      5  C   UNL     1       3.682  -2.391  -1.860  0.00  0.00    -0.018 A 
ATOM      6  C   UNL     1       2.358  -2.190  -1.496  0.00  0.00    +0.034 A 
ATOM      7  C   UNL     1       4.391  -3.610  -1.376  0.00  0.00    +0.049 C 
ATOM      8  C   UNL     1       3.994  -4.842  -2.148  0.00  0.00    -0.023 C 
ATOM      9  C   UNL     1       5.024  -5.636  -2.296  0.00  0.00    -0.030 C 
ATOM     10  C   UNL     1       6.258  -5.046  -1.648  0.00  0.00    +0.033 C 
ATOM     11  C   UNL     1       5.912  -3.547  -1.492  0.00  0.00    +0.029 C 
ATOM     12  C   UNL     1       6.400  -2.818  -2.727  0.00  0.00    +0.111 C 
ATOM     13  N   UNL     1       5.637  -1.629  -3.043  0.00  0.00    -0.336 N 
ATOM     14  H   UNL     1       6.059  -0.938  -3.578  0.00  0.00    +0.147 HD
ENDROOT
BRANCH  12  15
ATOM     15  C   UNL     1       7.830  -2.397  -2.500  0.00  0.00    +0.010 A 
ATOM     16  C   UNL     1       8.971  -2.977  -2.944  0.00  0.00    +0.013 A 
ATOM     17  C   UNL     1      10.186  -2.409  -2.610  0.00  0.00    +0.008 A 
ATOM     18  C   UNL     1      10.200  -1.288  -1.848  0.00  0.00    +0.045 A 
ATOM     19  S   UNL     1       8.458  -0.998  -1.585  0.00  0.00    -0.100 S 
ENDBRANCH  12  15
BRANCH   1  20
ATOM     20  S   UNL     1      -0.000  -0.824  -1.437  0.00  0.00    +0.061 S 
ATOM     21  O   UNL     1      -0.531  -2.115  -1.167  0.00  0.00    -0.153 OA
ATOM     22  O   UNL     1      -0.572   0.049  -2.401  0.00  0.00    -0.153 OA
BRANCH  20  24
ATOM     23  C   UNL     1      -0.018   1.461   0.010  0.00  0.00    +0.132 C 
ATOM     24  N   UNL     1       0.002  -0.004   0.002  0.00  0.00    -0.177 NA
BRANCH  24  25
ATOM     25  C   UNL     1       0.024  -0.743   1.267  0.00  0.00    +0.080 C 
ATOM     26  C   UNL     1      -1.222  -0.395   2.083  0.00  0.00    +0.020 C 
ATOM     27  C   UNL     1      -1.199  -1.167   3.404  0.00  0.00    +0.002 C 
ATOM     28  C   UNL     1       0.052  -0.785   4.196  0.00  0.00    +0.000 C 
ATOM     29  C   UNL     1       1.299  -1.133   3.380  0.00  0.00    +0.002 C 
ATOM     30  C   UNL     1       1.276  -0.361   2.059  0.00  0.00    +0.020 C 
ENDBRANCH  24  25
ENDBRANCH  20  24
ENDBRANCH   1  20
TORSDOF 4
