REMARK  Name = ZINC16740712
REMARK  11 active torsions:
REMARK  status: ('A' for Active; 'I' for Inactive)
REMARK    1  A    between atoms: C_1  and  C_2
REMARK    2  A    between atoms: C_2  and  O_3
REMARK    3  A    between atoms: O_3  and  C_4
REMARK    4  A    between atoms: C_4  and  C_6
REMARK    5  A    between atoms: C_7  and  C_36
REMARK    6  A    between atoms: C_14  and  C_15
REMARK    7  A    between atoms: C_18  and  O_23
REMARK    8  A    between atoms: C_19  and  O_21
REMARK    9  A    between atoms: O_21  and  C_22
REMARK   10  A    between atoms: O_23  and  C_24
REMARK   11  A    between atoms: C_28  and  C_30
REMARK                            x       y       z     vdW  Elec       q    Type
REMARK                         _______ _______ _______ _____ _____    ______ ____
ROOT
ATOM      1  C   UNL     1       1.344   3.741  -1.351  0.00  0.00    +0.085 C 
ATOM      2  C   UNL     1       2.531   4.358  -1.070  0.00  0.00    +0.053 C 
ATOM      3  N   UNL     1       2.561   5.640  -0.731  0.00  0.00    -0.228 NA
ATOM      4  C   UNL     1       1.507   6.410  -0.624  0.00  0.00    +0.178 A 
ATOM      5  N   UNL     1       0.218   5.988  -0.857  0.00  0.00    -0.275 N 
ATOM      6  C   UNL     1      -0.781   6.868  -0.715  0.00  0.00    +0.268 A 
ATOM      7  O   UNL     1      -1.937   6.540  -0.910  0.00  0.00    -0.266 OA
ATOM      8  C   UNL     1      -0.441   8.241  -0.317  0.00  0.00    +0.081 A 
ATOM      9  C   UNL     1      -1.256   9.306  -0.109  0.00  0.00    +0.028 C 
ATOM     10  S   UNL     1       1.336   8.127  -0.181  0.00  0.00    -0.046 S 
ATOM     11  C   UNL     1       0.076   4.558  -1.252  0.00  0.00    +0.162 C 
ATOM     12  C   UNL     1       3.817   3.576  -1.151  0.00  0.00    +0.066 C 
ENDROOT
BRANCH   9  13
ATOM     13  C   UNL     1      -2.713   9.127  -0.112  0.00  0.00    -0.020 A 
ATOM     14  C   UNL     1      -3.280   7.973   0.443  0.00  0.00    +0.012 A 
ATOM     15  C   UNL     1      -4.648   7.808   0.439  0.00  0.00    +0.050 A 
ATOM     16  C   UNL     1      -5.467   8.783  -0.114  0.00  0.00    +0.168 A 
ATOM     17  C   UNL     1      -4.911   9.935  -0.669  0.00  0.00    +0.162 A 
ATOM     18  C   UNL     1      -3.541  10.113  -0.664  0.00  0.00    +0.057 A 
BRANCH  17  19
ATOM     19  O   UNL     1      -5.718  10.888  -1.209  0.00  0.00    -0.491 OA
ATOM     20  C   UNL     1      -5.080  12.042  -1.760  0.00  0.00    +0.277 C 
ENDBRANCH  17  19
BRANCH  16  21
ATOM     21  O   UNL     1      -6.815   8.614  -0.116  0.00  0.00    -0.431 OA
BRANCH  21  22
ATOM     22  C   UNL     1      -7.319   7.411   0.468  0.00  0.00    +0.541 C 
ATOM     23  F   UNL     1      -6.801   6.308  -0.219  0.00  0.00    -0.166 F 
ATOM     24  F   UNL     1      -6.933   7.348   1.811  0.00  0.00    -0.166 F 
ENDBRANCH  21  22
ENDBRANCH  16  21
ENDBRANCH   9  13
BRANCH  11  25
ATOM     25  C   UNL     1      -0.610   4.514  -2.592  0.00  0.00    -0.020 A 
ATOM     26  C   UNL     1      -0.183   5.339  -3.615  0.00  0.00    +0.006 A 
ATOM     27  C   UNL     1      -0.810   5.295  -4.847  0.00  0.00    +0.000 A 
ATOM     28  C   UNL     1      -1.871   4.433  -5.052  0.00  0.00    +0.000 A 
ATOM     29  C   UNL     1      -2.301   3.611  -4.027  0.00  0.00    +0.000 A 
ATOM     30  C   UNL     1      -1.671   3.652  -2.797  0.00  0.00    +0.006 A 
ENDBRANCH  11  25
BRANCH   1  31
ATOM     31  C   UNL     1       1.303   2.386  -1.717  0.00  0.00    +0.339 C 
ATOM     32  O   UNL     1       2.340   1.771  -1.895  0.00  0.00    -0.245 OA
BRANCH  31  33
ATOM     33  O   UNL     1       0.114   1.764  -1.873  0.00  0.00    -0.462 OA
BRANCH  33  35
ATOM     34  C   UNL     1      -1.283  -0.144  -2.373  0.00  0.00    +0.048 C 
ATOM     35  C   UNL     1       0.147   0.385  -2.246  0.00  0.00    +0.229 C 
ENDBRANCH  33  35
ENDBRANCH  31  33
ENDBRANCH   1  31
TORSDOF 8
