REMARK  Name = ZINC45481211
REMARK  7 active torsions:
REMARK  status: ('A' for Active; 'I' for Inactive)
REMARK    1  A    between atoms: C_1  and  C_2
REMARK    2  A    between atoms: C_2  and  C_3
REMARK    3  A    between atoms: N_11  and  C_15
REMARK    4  A    between atoms: C_15  and  C_16
REMARK    5  A    between atoms: N_18  and  N_19
REMARK    6  A    between atoms: N_19  and  C_20
REMARK    7  A    between atoms: C_23  and  C_27
REMARK                            x       y       z     vdW  Elec       q    Type
REMARK                         _______ _______ _______ _____ _____    ______ ____
ROOT
ATOM      1  C   UNL     1      -1.433  -0.534   0.013  0.00  0.00    -0.011 C 
ATOM      2  C   UNL     1      -2.110  -0.145   1.329  0.00  0.00    +0.006 C 
ATOM      3  C   UNL     1      -3.550  -0.664   1.333  0.00  0.00    +0.035 C 
ATOM      4  C   UNL     1      -3.547  -2.181   1.173  0.00  0.00    +0.113 C 
ATOM      5  C   UNL     1      -2.853  -2.585  -0.123  0.00  0.00    +0.035 C 
ATOM      6  C   UNL     1      -1.415  -2.058  -0.121  0.00  0.00    +0.006 C 
ATOM      7  C   UNL     1      -2.876  -2.835   2.358  0.00  0.00    +0.247 C 
ATOM      8  O   UNL     1      -1.728  -2.694   2.722  0.00  0.00    -0.273 OA
ATOM      9  N   UNL     1      -3.824  -3.610   2.926  0.00  0.00    -0.215 N 
ATOM     10  C   UNL     1      -4.986  -3.531   2.266  0.00  0.00    +0.310 C 
ATOM     11  O   UNL     1      -5.988  -4.139   2.587  0.00  0.00    -0.252 OA
ATOM     12  N   UNL     1      -4.919  -2.704   1.206  0.00  0.00    -0.285 N 
ATOM     13  H   UNL     1      -5.636  -2.494   0.586  0.00  0.00    +0.151 HD
ENDROOT
BRANCH   1  15
ATOM     14  C   UNL     1      -0.019   1.526   0.010  0.00  0.00    +0.004 C 
ATOM     15  C   UNL     1       0.002  -0.004   0.002  0.00  0.00    -0.000 C 
ENDBRANCH   1  15
BRANCH   9  16
ATOM     16  C   UNL     1      -3.608  -4.435   4.117  0.00  0.00    +0.215 C 
BRANCH  16  17
ATOM     17  C   UNL     1      -3.928  -3.631   5.351  0.00  0.00    +0.247 C 
ATOM     18  O   UNL     1      -4.301  -2.481   5.245  0.00  0.00    -0.273 OA
ATOM     19  N   UNL     1      -3.801  -4.189   6.571  0.00  0.00    -0.235 N 
ATOM     20  H   UNL     1      -3.504  -5.108   6.655  0.00  0.00    +0.173 HD
BRANCH  19  21
ATOM     21  N   UNL     1      -4.099  -3.441   7.718  0.00  0.00    -0.264 N 
ATOM     22  H   UNL     1      -4.397  -2.521   7.633  0.00  0.00    +0.170 HD
BRANCH  21  23
ATOM     23  C   UNL     1      -3.968  -4.019   8.982  0.00  0.00    +0.046 A 
ATOM     24  C   UNL     1      -3.536  -5.334   9.105  0.00  0.00    +0.025 A 
ATOM     25  C   UNL     1      -3.407  -5.903  10.356  0.00  0.00    +0.006 A 
ATOM     26  C   UNL     1      -3.707  -5.166  11.488  0.00  0.00    -0.032 A 
ATOM     27  C   UNL     1      -4.137  -3.856  11.369  0.00  0.00    +0.046 A 
ATOM     28  C   UNL     1      -4.263  -3.279  10.120  0.00  0.00    +0.044 A 
ATOM     29 CL   UNL     1      -4.513  -2.935  12.792  0.00  0.00    -0.083 Cl
ATOM     30  C   UNL     1      -3.564  -5.791  12.851  0.00  0.00    +0.045 C 
ENDBRANCH  21  23
ENDBRANCH  19  21
ENDBRANCH  16  17
ENDBRANCH   9  16
TORSDOF 5
