REMARK  Name = ZINC39863508
REMARK  5 active torsions:
REMARK  status: ('A' for Active; 'I' for Inactive)
REMARK    1  A    between atoms: C_1  and  C_2
REMARK    2  A    between atoms: C_6  and  N_8
REMARK    3  A    between atoms: N_10  and  C_23
REMARK    4  A    between atoms: C_14  and  C_15
REMARK    5  A    between atoms: C_20  and  O_21
REMARK                            x       y       z     vdW  Elec       q    Type
REMARK                         _______ _______ _______ _____ _____    ______ ____
ROOT
ATOM      1  N   UNL     1      -1.229  -2.620   2.514  0.00  0.00    -0.206 NA
ATOM      2  C   UNL     1      -0.757  -2.083   3.619  0.00  0.00    +0.174 C 
ATOM      3  N   UNL     1      -0.643  -0.748   3.942  0.00  0.00    -0.214 N 
ATOM      4  C   UNL     1      -0.142  -0.377   5.108  0.00  0.00    +0.263 C 
ATOM      5  O   UNL     1      -0.034   0.797   5.410  0.00  0.00    -0.269 OA
ATOM      6  C   UNL     1       0.281  -1.451   6.026  0.00  0.00    +0.079 C 
ATOM      7  C   UNL     1       0.820  -1.359   7.269  0.00  0.00    +0.032 C 
ATOM      8  S   UNL     1      -0.116  -2.906   5.068  0.00  0.00    -0.048 S 
ENDROOT
BRANCH   1  14
ATOM      9  C   UNL     1      -0.322  -0.075  -1.417  0.00  0.00    +0.065 C 
ATOM     10  C   UNL     1      -1.302  -0.579  -0.389  0.00  0.00    +0.041 A 
ATOM     11  C   UNL     1      -2.633  -0.223  -0.486  0.00  0.00    +0.023 A 
ATOM     12  C   UNL     1      -3.536  -0.689   0.462  0.00  0.00    +0.005 A 
ATOM     13  C   UNL     1      -3.068  -1.499   1.478  0.00  0.00    +0.048 A 
ATOM     14  C   UNL     1      -1.707  -1.821   1.517  0.00  0.00    +0.155 A 
ATOM     15  N   UNL     1      -0.878  -1.358   0.586  0.00  0.00    -0.233 NA
ENDBRANCH   1  14
BRANCH   7  16
ATOM     16  C   UNL     1       0.952  -2.559   8.102  0.00  0.00    +0.018 A 
ATOM     17  C   UNL     1       0.193  -3.701   7.819  0.00  0.00    +0.011 A 
ATOM     18  C   UNL     1       0.323  -4.824   8.606  0.00  0.00    +0.001 A 
ATOM     19  C   UNL     1       1.201  -4.830   9.678  0.00  0.00    +0.004 A 
ATOM     20  C   UNL     1       1.956  -3.710   9.970  0.00  0.00    +0.046 A 
ATOM     21  C   UNL     1       1.845  -2.572   9.187  0.00  0.00    +0.124 A 
BRANCH  21  22
ATOM     22  O   UNL     1       2.590  -1.474   9.470  0.00  0.00    -0.506 OA
ATOM     23  H   UNL     1       2.166  -0.858  10.082  0.00  0.00    +0.292 HD
ENDBRANCH  21  22
ENDBRANCH   7  16
BRANCH   3  24
ATOM     24  C   UNL     1      -1.062   0.226   3.025  0.00  0.00    +0.043 A 
ATOM     25  C   UNL     1      -2.367   0.700   3.062  0.00  0.00    +0.024 A 
ATOM     26  C   UNL     1      -2.776   1.660   2.157  0.00  0.00    +0.002 A 
ATOM     27  C   UNL     1      -1.889   2.149   1.216  0.00  0.00    +0.000 A 
ATOM     28  C   UNL     1      -0.589   1.678   1.177  0.00  0.00    +0.002 A 
ATOM     29  C   UNL     1      -0.172   0.723   2.083  0.00  0.00    +0.024 A 
ENDBRANCH   3  24
TORSDOF 4
