REMARK  Name = ZINC11227450
REMARK  12 active torsions:
REMARK  status: ('A' for Active; 'I' for Inactive)
REMARK    1  A    between atoms: C_1  and  C_2
REMARK    2  A    between atoms: C_2  and  N_3
REMARK    3  A    between atoms: N_3  and  C_4
REMARK    4  A    between atoms: N_3  and  S_6
REMARK    5  A    between atoms: C_4  and  C_5
REMARK    6  A    between atoms: S_6  and  C_9
REMARK    7  A    between atoms: C_13  and  N_15
REMARK    8  A    between atoms: C_16  and  C_18
REMARK    9  A    between atoms: C_18  and  C_20
REMARK   10  A    between atoms: C_18  and  O_21
REMARK   11  A    between atoms: O_21  and  C_22
REMARK   12  A    between atoms: C_22  and  C_24
REMARK                            x       y       z     vdW  Elec       q    Type
REMARK                         _______ _______ _______ _____ _____    ______ ____
ROOT
ATOM      1  N   UNL     1       2.356   3.891   0.001  0.00  0.00    -0.281 N 
ATOM      2  C   UNL     1       2.336   5.236  -0.094  0.00  0.00    +0.258 C 
ATOM      3  O   UNL     1       1.278   5.829  -0.082  0.00  0.00    -0.271 OA
ATOM      4  H   UNL     1       3.202   3.423   0.071  0.00  0.00    +0.155 HD
ENDROOT
BRANCH   1   9
ATOM      5  C   UNL     1      -1.161   2.998  -0.600  0.00  0.00    +0.107 A 
ATOM      6  C   UNL     1      -1.217   1.746  -0.015  0.00  0.00    +0.030 A 
ATOM      7  C   UNL     1      -0.093   1.208   0.583  0.00  0.00    +0.024 A 
ATOM      8  C   UNL     1       1.095   1.915   0.589  0.00  0.00    +0.062 A 
ATOM      9  C   UNL     1       1.155   3.171  -0.003  0.00  0.00    +0.054 A 
ATOM     10  C   UNL     1       0.022   3.710  -0.598  0.00  0.00    +0.053 A 
ATOM     11 CL   UNL     1       2.508   1.237   1.334  0.00  0.00    -0.082 Cl
BRANCH   5  12
ATOM     12  S   UNL     1      -2.598   3.681  -1.356  0.00  0.00    +0.061 S 
ATOM     13  O   UNL     1      -3.716   3.052  -0.745  0.00  0.00    -0.153 OA
ATOM     14  O   UNL     1      -2.425   5.092  -1.357  0.00  0.00    -0.153 OA
BRANCH  12  15
ATOM     15  N   UNL     1      -2.593   3.203  -2.941  0.00  0.00    -0.177 NA
BRANCH  15  17
ATOM     16  C   UNL     1      -4.672   2.249  -3.805  0.00  0.00    +0.022 C 
ATOM     17  C   UNL     1      -3.248   1.952  -3.331  0.00  0.00    +0.106 C 
ENDBRANCH  15  17
BRANCH  15  18
ATOM     18  C   UNL     1      -1.933   4.030  -3.954  0.00  0.00    +0.106 C 
ATOM     19  C   UNL     1      -0.506   3.523  -4.176  0.00  0.00    +0.022 C 
ENDBRANCH  15  18
ENDBRANCH  12  15
ENDBRANCH   5  12
ENDBRANCH   1   9
BRANCH   2  20
ATOM     20  C   UNL     1       3.628   6.002  -0.216  0.00  0.00    +0.259 C 
ATOM     21  C   UNL     1       4.498   5.731   1.013  0.00  0.00    +0.062 C 
BRANCH  20  22
ATOM     22  O   UNL     1       3.341   7.423  -0.302  0.00  0.00    -0.448 OA
BRANCH  22  23
ATOM     23  C   UNL     1       4.208   8.180  -1.004  0.00  0.00    +0.356 C 
ATOM     24  O   UNL     1       5.177   7.667  -1.529  0.00  0.00    -0.243 OA
BRANCH  23  25
ATOM     25  C   UNL     1       3.982   9.626  -1.134  0.00  0.00    +0.125 A 
ATOM     26  C   UNL     1       4.782  10.491  -1.813  0.00  0.00    +0.042 A 
ATOM     27  C   UNL     1       4.216  11.783  -1.695  0.00  0.00    +0.000 A 
ATOM     28  C   UNL     1       4.591  13.045  -2.176  0.00  0.00    +0.010 A 
ATOM     29  C   UNL     1       3.823  14.136  -1.890  0.00  0.00    +0.001 A 
ATOM     30  C   UNL     1       2.670  14.008  -1.125  0.00  0.00    +0.002 A 
ATOM     31  C   UNL     1       2.281  12.780  -0.640  0.00  0.00    +0.026 A 
ATOM     32  C   UNL     1       3.048  11.652  -0.919  0.00  0.00    +0.047 A 
ATOM     33  N   UNL     1       2.920  10.323  -0.591  0.00  0.00    -0.349 N 
ATOM     34  H   UNL     1       2.203   9.938  -0.063  0.00  0.00    +0.166 HD
ENDBRANCH  23  25
ENDBRANCH  22  23
ENDBRANCH  20  22
ENDBRANCH   2  20
TORSDOF 9
