REMARK  Name = ZINC20915171
REMARK  8 active torsions:
REMARK  status: ('A' for Active; 'I' for Inactive)
REMARK    1  A    between atoms: C_1  and  C_2
REMARK    2  A    between atoms: C_9  and  C_11
REMARK    3  A    between atoms: C_11  and  S_12
REMARK    4  A    between atoms: S_12  and  C_13
REMARK    5  A    between atoms: N_17  and  N_18
REMARK    6  A    between atoms: N_19  and  N_20
REMARK    7  A    between atoms: C_21  and  C_22
REMARK    8  A    between atoms: C_26  and  O_28
REMARK                            x       y       z     vdW  Elec       q    Type
REMARK                         _______ _______ _______ _____ _____    ______ ____
ROOT
ATOM      1  C   UNL     1      -1.417  -7.701   3.358  0.00  0.00    +0.210 A 
ATOM      2  N   UNL     1      -0.278  -8.272   3.668  0.00  0.00    -0.119 NA
ATOM      3  N   UNL     1      -0.561  -9.486   4.306  0.00  0.00    -0.109 NA
ATOM      4  C   UNL     1      -1.864  -9.618   4.366  0.00  0.00    +0.254 A 
ATOM      5  N   UNL     1      -2.427  -8.515   3.786  0.00  0.00    -0.211 N 
ATOM      6  N   UNL     1      -2.552 -10.686   4.923  0.00  0.00    -0.204 N 
ATOM      7  H   UNL     1      -3.522 -10.694   4.920  0.00  0.00    +0.177 HD
ENDROOT
BRANCH   5   8
ATOM      8  N   UNL     1      -3.765  -8.271   3.654  0.00  0.00    -0.294 N 
ATOM      9  H   UNL     1      -4.117  -8.647   2.786  0.00  0.00    +0.163 HD
ATOM     10  H   UNL     1      -4.278  -8.637   4.441  0.00  0.00    +0.163 HD
ENDBRANCH   5   8
BRANCH   6  11
ATOM     11  N   UNL     1      -1.845 -11.754   5.492  0.00  0.00    -0.188 NA
ATOM     12  C   UNL     1      -2.488 -12.754   6.014  0.00  0.00    +0.138 C 
BRANCH  12  13
ATOM     13  C   UNL     1      -1.744 -13.878   6.612  0.00  0.00    -0.002 A 
ATOM     14  C   UNL     1      -0.347 -13.867   6.624  0.00  0.00    +0.010 A 
ATOM     15  C   UNL     1       0.345 -14.920   7.184  0.00  0.00    +0.004 A 
ATOM     16  C   UNL     1      -0.339 -15.988   7.735  0.00  0.00    +0.045 A 
ATOM     17  C   UNL     1      -1.727 -16.009   7.727  0.00  0.00    +0.117 A 
ATOM     18  C   UNL     1      -2.433 -14.954   7.174  0.00  0.00    +0.054 A 
BRANCH  17  19
ATOM     19  O   UNL     1      -2.393 -17.062   8.270  0.00  0.00    -0.507 OA
ATOM     20  H   UNL     1      -2.596 -16.957   9.209  0.00  0.00    +0.292 HD
ENDBRANCH  17  19
ENDBRANCH  12  13
ENDBRANCH   6  11
BRANCH   1  21
ATOM     21  S   UNL     1      -1.611  -6.152   2.541  0.00  0.00    -0.077 S 
BRANCH  21  22
ATOM     22  C   UNL     1       0.090  -5.594   2.249  0.00  0.00    +0.151 C 
BRANCH  22  31
ATOM     23  C   UNL     1      -0.018   1.503   0.010  0.00  0.00    +0.044 C 
ATOM     24  C   UNL     1       0.002  -0.004   0.002  0.00  0.00    -0.048 A 
ATOM     25  C   UNL     1       0.006  -0.687  -1.206  0.00  0.00    +0.005 A 
ATOM     26  C   UNL     1       0.024  -2.052  -1.235  0.00  0.00    +0.030 A 
ATOM     27  C   UNL     1       0.040  -2.774  -0.039  0.00  0.00    +0.089 A 
ATOM     28  C   UNL     1       0.037  -2.083   1.185  0.00  0.00    +0.066 A 
ATOM     29  C   UNL     1       0.023  -0.695   1.195  0.00  0.00    +0.031 A 
ATOM     30  N   UNL     1       0.055  -3.051   2.169  0.00  0.00    -0.341 N 
ATOM     31  C   UNL     1       0.068  -4.261   1.546  0.00  0.00    +0.118 A 
ATOM     32  N   UNL     1       0.059  -4.099   0.255  0.00  0.00    -0.232 NA
ATOM     33  H   UNL     1       0.058  -2.898   3.127  0.00  0.00    +0.167 HD
ENDBRANCH  22  31
ENDBRANCH  21  22
ENDBRANCH   1  21
TORSDOF 7
