REMARK  Name = ZINC36003952
REMARK  11 active torsions:
REMARK  status: ('A' for Active; 'I' for Inactive)
REMARK    1  A    between atoms: C_1  and  C_2
REMARK    2  A    between atoms: C_2  and  C_3
REMARK    3  A    between atoms: C_3  and  N_4
REMARK    4  A    between atoms: N_10  and  C_13
REMARK    5  A    between atoms: C_13  and  C_14
REMARK    6  A    between atoms: C_15  and  C_30
REMARK    7  A    between atoms: C_16  and  C_23
REMARK    8  A    between atoms: N_21  and  C_22
REMARK    9  A    between atoms: C_30  and  O_32
REMARK   10  A    between atoms: O_32  and  C_33
REMARK   11  A    between atoms: C_33  and  C_34
REMARK                            x       y       z     vdW  Elec       q    Type
REMARK                         _______ _______ _______ _____ _____    ______ ____
ROOT
ATOM      1  C   UNL     1      -3.538  -8.864  -1.827  0.00  0.00    +0.041 C 
ATOM      2  C   UNL     1      -4.323  -8.895  -2.925  0.00  0.00    +0.080 C 
ATOM      3  C   UNL     1      -5.587  -9.728  -2.866  0.00  0.00    +0.146 C 
ATOM      4  N   UNL     1      -5.858 -10.441  -1.606  0.00  0.00    -0.288 N 
ATOM      5  C   UNL     1      -4.977 -10.312  -0.594  0.00  0.00    +0.307 C 
ATOM      6  O   UNL     1      -5.191 -10.896   0.450  0.00  0.00    -0.252 OA
ATOM      7  N   UNL     1      -3.871  -9.566  -0.703  0.00  0.00    -0.260 N 
ATOM      8  C   UNL     1      -2.970  -9.491   0.450  0.00  0.00    +0.139 C 
ATOM      9  H   UNL     1      -6.651 -10.990  -1.507  0.00  0.00    +0.151 HD
ENDROOT
BRANCH   3  10
ATOM     10  C   UNL     1      -5.522 -10.750  -3.972  0.00  0.00    +0.013 A 
ATOM     11  C   UNL     1      -5.012 -12.009  -3.721  0.00  0.00    +0.008 A 
ATOM     12  C   UNL     1      -4.952 -12.947  -4.736  0.00  0.00    +0.001 A 
ATOM     13  C   UNL     1      -5.404 -12.625  -6.002  0.00  0.00    +0.003 A 
ATOM     14  C   UNL     1      -5.915 -11.367  -6.255  0.00  0.00    +0.039 A 
ATOM     15  C   UNL     1      -5.980 -10.429  -5.239  0.00  0.00    +0.129 A 
ATOM     16  F   UNL     1      -6.484  -9.199  -5.484  0.00  0.00    -0.205 F 
ENDBRANCH   3  10
BRANCH   2  17
ATOM     17  C   UNL     1      -3.977  -8.174  -4.092  0.00  0.00    +0.339 C 
ATOM     18  O   UNL     1      -4.563  -7.143  -4.366  0.00  0.00    -0.245 OA
BRANCH  17  19
ATOM     19  O   UNL     1      -2.997  -8.628  -4.900  0.00  0.00    -0.462 OA
BRANCH  19  20
ATOM     20  C   UNL     1      -2.700  -7.849  -6.061  0.00  0.00    +0.229 C 
ATOM     21  C   UNL     1      -1.571  -8.517  -6.848  0.00  0.00    +0.048 C 
ENDBRANCH  19  20
ENDBRANCH  17  19
ENDBRANCH   2  17
BRANCH   1  22
ATOM     22  C   UNL     1      -2.272  -8.048  -1.843  0.00  0.00    +0.136 C 
BRANCH  22  29
ATOM     23  N   UNL     1      -0.964  -2.503   0.439  0.00  0.00    -0.299 N 
ATOM     24  C   UNL     1      -2.184  -3.038   0.240  0.00  0.00    +0.302 C 
ATOM     25  O   UNL     1      -3.151  -2.313   0.105  0.00  0.00    -0.253 OA
ATOM     26  N   UNL     1      -2.334  -4.377   0.190  0.00  0.00    -0.283 N 
ATOM     27  C   UNL     1      -1.201  -5.273   0.465  0.00  0.00    +0.124 C 
ATOM     28  C   UNL     1      -1.089  -6.282  -0.683  0.00  0.00    +0.104 C 
ATOM     29  N   UNL     1      -2.382  -6.954  -0.869  0.00  0.00    -0.294 NA
ATOM     30  C   UNL     1      -3.426  -6.000  -1.264  0.00  0.00    +0.104 C 
ATOM     31  C   UNL     1      -3.635  -4.980  -0.134  0.00  0.00    +0.124 C 
ATOM     32  H   UNL     1      -0.205  -3.080   0.619  0.00  0.00    +0.150 HD
BRANCH  23  33
ATOM     33  C   UNL     1      -0.782  -1.051   0.383  0.00  0.00    +0.105 C 
BRANCH  33  35
ATOM     34  C   UNL     1       0.876   0.808   0.582  0.00  0.00    +0.005 C 
ATOM     35  C   UNL     1       0.687  -0.710   0.641  0.00  0.00    +0.015 C 
ENDBRANCH  33  35
ENDBRANCH  23  33
ENDBRANCH  22  29
ENDBRANCH   1  22
TORSDOF 8
