REMARK  Name = ZINC39400598
REMARK  7 active torsions:
REMARK  status: ('A' for Active; 'I' for Inactive)
REMARK    1  A    between atoms: C_4  and  C_7
REMARK    2  A    between atoms: N_12  and  C_14
REMARK    3  A    between atoms: C_14  and  C_15
REMARK    4  A    between atoms: C_15  and  N_16
REMARK    5  A    between atoms: N_16  and  C_17
REMARK    6  A    between atoms: C_17  and  C_18
REMARK    7  A    between atoms: C_22  and  C_24
REMARK                            x       y       z     vdW  Elec       q    Type
REMARK                         _______ _______ _______ _____ _____    ______ ____
ROOT
ATOM      1  N   UNL     1       8.806   1.362  -1.504  0.00  0.00    +0.383 N 
ATOM      2  H   UNL     1       8.625   2.228  -1.018  0.00  0.00    -0.085 HD
ATOM      3  H   UNL     1       9.551   0.865  -1.039  0.00  0.00    -0.085 HD
ENDROOT
BRANCH   1   4
ATOM      4  C   UNL     1       7.591   0.536  -1.502  0.00  0.00    -0.058 C 
BRANCH   4   5
ATOM      5  C   UNL     1       7.181   0.235  -0.059  0.00  0.00    +0.128 C 
BRANCH   5  11
ATOM      6  C   UNL     1       3.699  -0.689  -0.038  0.00  0.00    +0.092 A 
ATOM      7  C   UNL     1       3.718  -2.103  -0.052  0.00  0.00    +0.035 A 
ATOM      8  C   UNL     1       4.927  -2.732  -0.068  0.00  0.00    +0.074 A 
ATOM      9  C   UNL     1       6.090  -1.929  -0.070  0.00  0.00    +0.267 A 
ATOM     10  O   UNL     1       7.195  -2.448  -0.085  0.00  0.00    -0.266 OA
ATOM     11  N   UNL     1       5.970  -0.589  -0.056  0.00  0.00    -0.231 N 
ATOM     12  N   UNL     1       4.823  -0.012  -0.046  0.00  0.00    -0.168 NA
BRANCH   6  16
ATOM     13  C   UNL     1      -0.017   1.379   0.010  0.00  0.00    +0.000 A 
ATOM     14  C   UNL     1       1.169   2.092   0.002  0.00  0.00    +0.001 A 
ATOM     15  C   UNL     1       2.377   1.426  -0.013  0.00  0.00    +0.010 A 
ATOM     16  C   UNL     1       2.402   0.033  -0.021  0.00  0.00    +0.002 A 
ATOM     17  C   UNL     1       1.205  -0.680  -0.013  0.00  0.00    +0.010 A 
ATOM     18  C   UNL     1       0.002  -0.004   0.002  0.00  0.00    +0.001 A 
ENDBRANCH   6  16
ENDBRANCH   5  11
ENDBRANCH   4   5
ENDBRANCH   1   4
BRANCH   1  19
ATOM     19  C   UNL     1       9.199   1.650  -2.889  0.00  0.00    -0.047 C 
BRANCH  19  20
ATOM     20  C   UNL     1      10.445   2.498  -2.892  0.00  0.00    -0.034 C 
ATOM     21  C   UNL     1      11.713   2.096  -3.004  0.00  0.00    +0.134 C 
ATOM     22  N   UNL     1      12.557   3.151  -2.964  0.00  0.00    -0.162 NA
ATOM     23  N   UNL     1      12.003   4.245  -2.835  0.00  0.00    -0.172 NA
ATOM     24  C   UNL     1      10.550   4.008  -2.774  0.00  0.00    +0.219 C 
BRANCH  24  25
ATOM     25  C   UNL     1       9.991   4.480  -1.457  0.00  0.00    +0.136 A 
ATOM     26  C   UNL     1       8.767   4.998  -1.284  0.00  0.00    +0.055 A 
ATOM     27  C   UNL     1       8.654   5.314   0.144  0.00  0.00    +0.020 A 
ATOM     28  C   UNL     1       7.654   5.863   0.945  0.00  0.00    +0.011 A 
ATOM     29  C   UNL     1       7.873   6.030   2.285  0.00  0.00    +0.001 A 
ATOM     30  C   UNL     1       9.084   5.656   2.850  0.00  0.00    +0.004 A 
ATOM     31  C   UNL     1      10.084   5.112   2.074  0.00  0.00    +0.047 A 
ATOM     32  C   UNL     1       9.882   4.933   0.711  0.00  0.00    +0.135 A 
ATOM     33  O   UNL     1      10.645   4.436  -0.283  0.00  0.00    -0.457 OA
ENDBRANCH  24  25
ENDBRANCH  19  20
ENDBRANCH   1  19
TORSDOF 7
