REMARK  Name = ZINC63269910
REMARK  9 active torsions:
REMARK  status: ('A' for Active; 'I' for Inactive)
REMARK    1  A    between atoms: C_1  and  C_2
REMARK    2  A    between atoms: C_13  and  O_15
REMARK    3  A    between atoms: N_21  and  O_22
REMARK    4  A    between atoms: O_22  and  C_23
REMARK    5  A    between atoms: C_23  and  C_24
REMARK    6  A    between atoms: N_26  and  C_27
REMARK    7  A    between atoms: C_27  and  C_28
REMARK    8  A    between atoms: C_28  and  C_29
REMARK    9  A    between atoms: C_41  and  C_42
REMARK                            x       y       z     vdW  Elec       q    Type
REMARK                         _______ _______ _______ _____ _____    ______ ____
ROOT
ATOM      1  C   UNL     1      -0.019   1.526   0.010  0.00  0.00    +0.014 C 
ATOM      2  C   UNL     1       0.002  -0.004   0.002  0.00  0.00    -0.003 C 
ATOM      3  C   UNL     1      -1.416  -0.538   0.073  0.00  0.00    +0.010 C 
ATOM      4  C   UNL     1      -2.078   0.098   1.306  0.00  0.00    +0.005 C 
ATOM      5  C   UNL     1      -1.299  -0.202   2.583  0.00  0.00    +0.002 C 
ATOM      6  C   UNL     1       0.174   0.215   2.464  0.00  0.00    -0.003 C 
ATOM      7  C   UNL     1       0.751  -0.527   1.257  0.00  0.00    +0.001 C 
ATOM      8  C   UNL     1       2.207  -0.192   0.912  0.00  0.00    +0.007 C 
ATOM      9  C   UNL     1       2.304  -0.573  -0.591  0.00  0.00    +0.032 C 
ATOM     10  C   UNL     1       0.863  -0.503  -1.154  0.00  0.00    +0.121 C 
ATOM     11  C   UNL     1       0.916  -0.201   3.738  0.00  0.00    +0.008 C 
ATOM     12  C   UNL     1       0.358   0.587   4.925  0.00  0.00    +0.031 C 
ATOM     13  C   UNL     1      -1.143   0.370   4.992  0.00  0.00    -0.062 C 
ATOM     14  C   UNL     1      -1.666   0.034   6.166  0.00  0.00    +0.026 C 
ATOM     15  C   UNL     1      -3.120  -0.172   6.292  0.00  0.00    +0.080 C 
ATOM     16  N   UNL     1      -3.629  -0.874   7.254  0.00  0.00    -0.089 NA
ATOM     17  C   UNL     1      -3.987   0.485   5.235  0.00  0.00    +0.059 C 
ATOM     18  C   UNL     1      -3.400   0.119   3.873  0.00  0.00    +0.017 C 
ATOM     19  C   UNL     1      -1.938   0.556   3.753  0.00  0.00    -0.007 C 
ATOM     20  C   UNL     1      -1.924   2.048   3.412  0.00  0.00    +0.016 C 
ENDROOT
BRANCH  10  21
ATOM     21  O   UNL     1       0.803   0.414  -2.248  0.00  0.00    -0.391 OA
ATOM     22  H   UNL     1       1.332   0.149  -3.013  0.00  0.00    +0.210 HD
ENDBRANCH  10  21
BRANCH  16  23
ATOM     23  O   UNL     1      -2.784  -1.470   8.221  0.00  0.00    -0.384 OA
BRANCH  23  24
ATOM     24  C   UNL     1      -3.480  -2.215   9.222  0.00  0.00    +0.358 C 
BRANCH  24  25
ATOM     25  C   UNL     1      -2.487  -2.801  10.192  0.00  0.00    +0.253 C 
ATOM     26  O   UNL     1      -1.300  -2.601  10.042  0.00  0.00    -0.272 OA
ATOM     27  N   UNL     1      -2.918  -3.549  11.228  0.00  0.00    -0.312 N 
ATOM     28  H   UNL     1      -3.867  -3.709  11.348  0.00  0.00    +0.149 HD
BRANCH  27  29
ATOM     29  C   UNL     1      -1.953  -4.119  12.171  0.00  0.00    +0.106 C 
BRANCH  29  30
ATOM     30  C   UNL     1      -2.699  -4.916  13.243  0.00  0.00    +0.047 C 
BRANCH  30  31
ATOM     31  C   UNL     1      -1.691  -5.512  14.229  0.00  0.00    +0.104 C 
ATOM     32  C   UNL     1      -2.406  -6.356  15.259  0.00  0.00    +0.007 C 
ATOM     33  C   UNL     1      -2.145  -5.787  16.458  0.00  0.00    -0.004 A 
ATOM     34  C   UNL     1      -2.544  -6.127  17.829  0.00  0.00    +0.010 A 
ATOM     35  C   UNL     1      -2.116  -5.349  18.849  0.00  0.00    +0.001 A 
ATOM     36  C   UNL     1      -1.301  -4.229  18.630  0.00  0.00    +0.002 A 
ATOM     37  C   UNL     1      -0.893  -3.854  17.400  0.00  0.00    +0.026 A 
ATOM     38  C   UNL     1      -1.284  -4.600  16.254  0.00  0.00    +0.043 A 
ATOM     39  N   UNL     1      -1.023  -4.441  14.977  0.00  0.00    -0.378 N 
ATOM     40  H   UNL     1      -0.480  -3.736  14.593  0.00  0.00    +0.160 HD
ENDBRANCH  30  31
ENDBRANCH  29  30
ENDBRANCH  27  29
ENDBRANCH  24  25
ENDBRANCH  23  24
ENDBRANCH  16  23
TORSDOF 7
