REMARK  Name = ZINC63205766
REMARK  12 active torsions:
REMARK  status: ('A' for Active; 'I' for Inactive)
REMARK    1  A    between atoms: C_1  and  C_2
REMARK    2  A    between atoms: C_4  and  C_18
REMARK    3  A    between atoms: C_5  and  C_17
REMARK    4  A    between atoms: N_6  and  C_7
REMARK    5  A    between atoms: C_7  and  C_8
REMARK    6  A    between atoms: C_8  and  C_9
REMARK    7  A    between atoms: C_12  and  O_15
REMARK    8  A    between atoms: O_15  and  C_16
REMARK    9  A    between atoms: C_18  and  C_20
REMARK   10  A    between atoms: C_20  and  N_21
REMARK   11  A    between atoms: C_24  and  C_29
REMARK   12  A    between atoms: C_29  and  C_30
REMARK                            x       y       z     vdW  Elec       q    Type
REMARK                         _______ _______ _______ _____ _____    ______ ____
ROOT
ATOM      1  C   UNL     1       0.035  -3.269  -2.951  0.00  0.00    +0.197 C 
ENDROOT
BRANCH   1   2
ATOM      2  N   UNL     1       0.052  -4.611  -3.539  0.00  0.00    -0.217 N 
ATOM      3  C   UNL     1       1.175  -5.291  -3.842  0.00  0.00    +0.244 C 
ATOM      4  O   UNL     1       2.319  -4.922  -3.687  0.00  0.00    -0.273 OA
ATOM      5  C   UNL     1       0.710  -6.613  -4.419  0.00  0.00    +0.165 C 
ATOM      6  N   UNL     1      -0.759  -6.516  -4.368  0.00  0.00    -0.287 N 
ATOM      7  C   UNL     1      -1.047  -5.314  -3.836  0.00  0.00    +0.310 C 
ATOM      8  O   UNL     1      -2.178  -4.912  -3.648  0.00  0.00    -0.252 OA
ATOM      9  H   UNL     1      -1.395  -7.188  -4.659  0.00  0.00    +0.151 HD
BRANCH   5  10
ATOM     10  C   UNL     1       1.193  -6.771  -5.862  0.00  0.00    +0.065 C 
BRANCH  10  11
ATOM     11  C   UNL     1       0.824  -8.142  -6.368  0.00  0.00    -0.039 C 
ATOM     12  C   UNL     1      -0.273  -8.475  -7.086  0.00  0.00    -0.001 A 
ATOM     13  C   UNL     1      -1.408  -7.692  -7.589  0.00  0.00    +0.010 A 
ATOM     14  C   UNL     1      -2.377  -8.320  -8.293  0.00  0.00    +0.001 A 
ATOM     15  C   UNL     1      -2.326  -9.696  -8.552  0.00  0.00    +0.002 A 
ATOM     16  C   UNL     1      -1.316 -10.482  -8.123  0.00  0.00    +0.026 A 
ATOM     17  C   UNL     1      -0.243  -9.927  -7.373  0.00  0.00    +0.043 A 
ATOM     18  N   UNL     1       0.832 -10.470  -6.854  0.00  0.00    -0.380 N 
ATOM     19  C   UNL     1       1.608  -9.422  -6.182  0.00  0.00    +0.144 C 
ATOM     20  H   UNL     1       1.075 -11.408  -6.908  0.00  0.00    +0.160 HD
ENDBRANCH  10  11
ENDBRANCH   5  10
ENDBRANCH   1   2
BRANCH   1  21
ATOM     21  C   UNL     1       0.043  -3.379  -1.448  0.00  0.00    +0.183 C 
ATOM     22  O   UNL     1       0.060  -4.471  -0.920  0.00  0.00    -0.290 OA
BRANCH  21  26
ATOM     23  C   UNL     1      -0.018   1.503   0.010  0.00  0.00    +0.063 C 
ATOM     24  C   UNL     1       0.002  -0.004   0.002  0.00  0.00    +0.017 A 
ATOM     25  C   UNL     1       0.008  -0.777  -1.097  0.00  0.00    +0.034 A 
ATOM     26  C   UNL     1       0.030  -2.167  -0.625  0.00  0.00    +0.040 A 
ATOM     27  C   UNL     1       0.035  -2.098   0.755  0.00  0.00    +0.026 A 
ATOM     28  N   UNL     1       0.023  -0.801   1.110  0.00  0.00    -0.347 N 
ATOM     29  C   UNL     1       0.056  -3.273   1.700  0.00  0.00    +0.064 C 
BRANCH  28  30
ATOM     30  C   UNL     1       0.029  -0.312   2.491  0.00  0.00    +0.126 C 
BRANCH  30  31
ATOM     31  C   UNL     1      -1.411  -0.163   2.985  0.00  0.00    +0.056 C 
BRANCH  31  32
ATOM     32  C   UNL     1      -1.405   0.340   4.406  0.00  0.00    -0.045 A 
ATOM     33  C   UNL     1      -1.377  -0.559   5.456  0.00  0.00    +0.007 A 
ATOM     34  C   UNL     1      -1.372  -0.100   6.759  0.00  0.00    +0.046 A 
ATOM     35  C   UNL     1      -1.395   1.263   7.013  0.00  0.00    +0.120 A 
ATOM     36  C   UNL     1      -1.423   2.163   5.958  0.00  0.00    +0.046 A 
ATOM     37  C   UNL     1      -1.423   1.700   4.657  0.00  0.00    +0.007 A 
BRANCH  35  38
ATOM     38  O   UNL     1      -1.391   1.717   8.294  0.00  0.00    -0.495 OA
ATOM     39  C   UNL     1      -1.416   3.133   8.481  0.00  0.00    +0.277 C 
ENDBRANCH  35  38
ENDBRANCH  31  32
ENDBRANCH  30  31
ENDBRANCH  28  30
ENDBRANCH  21  26
ENDBRANCH   1  21
TORSDOF 9
