REMARK  Name = ZINC02836484
REMARK  9 active torsions:
REMARK  status: ('A' for Active; 'I' for Inactive)
REMARK    1  A    between atoms: C_1  and  C_2
REMARK    2  A    between atoms: N_4  and  C_5
REMARK    3  A    between atoms: C_8  and  N_11
REMARK    4  A    between atoms: C_12  and  C_14
REMARK    5  A    between atoms: C_14  and  N_15
REMARK    6  A    between atoms: N_15  and  C_16
REMARK    7  A    between atoms: N_15  and  S_24
REMARK    8  A    between atoms: C_16  and  C_17
REMARK    9  A    between atoms: S_24  and  C_27
REMARK                            x       y       z     vdW  Elec       q    Type
REMARK                         _______ _______ _______ _____ _____    ______ ____
ROOT
ATOM      1  N   UNL     1       1.739  10.269  -0.050  0.00  0.00    -0.163 NA
ENDROOT
BRANCH   1   2
ATOM      2  S   UNL     1       2.625  10.666   1.292  0.00  0.00    +0.062 S 
ATOM      3  O   UNL     1       3.571  11.643   0.879  0.00  0.00    -0.153 OA
ATOM      4  O   UNL     1       1.693  10.903   2.338  0.00  0.00    -0.153 OA
BRANCH   2   5
ATOM      5  C   UNL     1       3.546   9.236   1.751  0.00  0.00    +0.106 A 
ATOM      6  C   UNL     1       3.006   8.322   2.637  0.00  0.00    +0.028 A 
ATOM      7  C   UNL     1       3.726   7.197   2.994  0.00  0.00    +0.002 A 
ATOM      8  C   UNL     1       4.990   6.992   2.473  0.00  0.00    +0.000 A 
ATOM      9  C   UNL     1       5.532   7.908   1.591  0.00  0.00    +0.002 A 
ATOM     10  C   UNL     1       4.809   9.030   1.230  0.00  0.00    +0.028 A 
ENDBRANCH   2   5
ENDBRANCH   1   2
BRANCH   1  11
ATOM     11  C   UNL     1       0.345   9.844   0.093  0.00  0.00    +0.205 C 
BRANCH  11  13
ATOM     12  N   UNL     1      -0.909   7.718   0.268  0.00  0.00    -0.284 N 
ATOM     13  C   UNL     1       0.280   8.338   0.139  0.00  0.00    +0.233 C 
ATOM     14  O   UNL     1       1.299   7.685   0.061  0.00  0.00    -0.274 OA
ATOM     15  H   UNL     1      -1.716   8.240   0.406  0.00  0.00    +0.155 HD
BRANCH  12  19
ATOM     16  C   UNL     1      -1.125   3.559   0.071  0.00  0.00    +0.033 A 
ATOM     17  C   UNL     1      -0.185   4.242  -0.689  0.00  0.00    +0.025 A 
ATOM     18  C   UNL     1      -0.116   5.619  -0.627  0.00  0.00    +0.025 A 
ATOM     19  C   UNL     1      -0.982   6.321   0.202  0.00  0.00    +0.034 A 
ATOM     20  C   UNL     1      -1.919   5.638   0.966  0.00  0.00    +0.025 A 
ATOM     21  C   UNL     1      -1.990   4.261   0.901  0.00  0.00    +0.025 A 
BRANCH  16  25
ATOM     22  C   UNL     1      -0.892   0.020  -1.194  0.00  0.00    +0.109 C 
ATOM     23  C   UNL     1      -0.924   1.526  -1.151  0.00  0.00    +0.214 C 
ATOM     24  O   UNL     1      -0.708   2.167  -2.158  0.00  0.00    -0.276 OA
ATOM     25  N   UNL     1      -1.197   2.162   0.006  0.00  0.00    -0.286 N 
ATOM     26  H   UNL     1      -1.444   1.651   0.793  0.00  0.00    +0.155 HD
ENDBRANCH  16  25
ENDBRANCH  12  19
ENDBRANCH  11  13
ENDBRANCH   1  11
BRANCH   1  27
ATOM     27  C   UNL     1       2.350  10.342  -1.379  0.00  0.00    +0.145 C 
BRANCH  27  28
ATOM     28  C   UNL     1       2.031  11.675  -2.006  0.00  0.00    -0.032 A 
ATOM     29  C   UNL     1       0.895  11.820  -2.780  0.00  0.00    +0.006 A 
ATOM     30  C   UNL     1       0.599  13.043  -3.351  0.00  0.00    +0.015 A 
ATOM     31  C   UNL     1       1.446  14.120  -3.157  0.00  0.00    +0.018 A 
ATOM     32  C   UNL     1       2.585  13.972  -2.387  0.00  0.00    +0.015 A 
ATOM     33  C   UNL     1       2.877  12.750  -1.812  0.00  0.00    +0.006 A 
ATOM     34 BR   UNL     1       1.045  15.792  -3.944  0.00  0.00    -0.050 Br
ENDBRANCH  27  28
ENDBRANCH   1  27
TORSDOF 8
