REMARK  Name = ZINC00708627
REMARK  4 active torsions:
REMARK  status: ('A' for Active; 'I' for Inactive)
REMARK    1  A    between atoms: C_3  and  C_9
REMARK    2  A    between atoms: C_6  and  C_7
REMARK    3  A    between atoms: N_14  and  N_15
REMARK    4  A    between atoms: C_16  and  C_18
REMARK                            x       y       z     vdW  Elec       q    Type
REMARK                         _______ _______ _______ _____ _____    ______ ____
ROOT
ATOM      1  C   UNL     1       3.652   2.172  -0.022  0.00  0.00    +0.080 A 
ATOM      2  C   UNL     1       4.850   1.513  -0.043  0.00  0.00    +0.077 A 
ATOM      3  S   UNL     1       5.989   2.891  -0.044  0.00  0.00    -0.059 S 
ATOM      4  C   UNL     1       4.766   4.195  -0.017  0.00  0.00    +0.175 A 
ATOM      5  N   UNL     1       3.642   3.504  -0.015  0.00  0.00    -0.224 NA
ATOM      6  N   UNL     1       4.951   5.567  -0.006  0.00  0.00    -0.242 N 
ATOM      7  H   UNL     1       4.183   6.160   0.009  0.00  0.00    +0.172 HD
ENDROOT
BRANCH   1  10
ATOM      8  C   UNL     1      -0.017   1.394   0.010  0.00  0.00    +0.019 A 
ATOM      9  C   UNL     1       1.161   2.095   0.002  0.00  0.00    +0.011 A 
ATOM     10  C   UNL     1       2.380   1.414  -0.013  0.00  0.00    +0.001 A 
ATOM     11  C   UNL     1       2.400   0.018  -0.022  0.00  0.00    +0.011 A 
ATOM     12  C   UNL     1       1.223  -0.686  -0.014  0.00  0.00    +0.019 A 
ATOM     13  C   UNL     1       0.002  -0.004   0.002  0.00  0.00    +0.052 A 
BRANCH  13  14
ATOM     14  C   UNL     1      -1.228  -0.737   0.010  0.00  0.00    +0.099 C 
ATOM     15  N   UNL     1      -2.204  -1.319   0.017  0.00  0.00    -0.191 NA
ENDBRANCH  13  14
ENDBRANCH   1  10
BRANCH   6  16
ATOM     16  N   UNL     1       6.246   6.100  -0.017  0.00  0.00    -0.231 N 
ATOM     17  C   UNL     1       6.426   7.436  -0.006  0.00  0.00    +0.260 C 
ATOM     18  O   UNL     1       5.463   8.178   0.013  0.00  0.00    -0.269 OA
ATOM     19  H   UNL     1       7.014   5.508  -0.032  0.00  0.00    +0.173 HD
BRANCH  17  20
ATOM     20  C   UNL     1       7.793   7.998  -0.017  0.00  0.00    +0.038 A 
ATOM     21  C   UNL     1       8.900   7.149  -0.045  0.00  0.00    +0.014 A 
ATOM     22  C   UNL     1      10.173   7.679  -0.055  0.00  0.00    +0.016 A 
ATOM     23  C   UNL     1      10.354   9.052  -0.038  0.00  0.00    +0.018 A 
ATOM     24  C   UNL     1       9.259   9.900  -0.011  0.00  0.00    +0.016 A 
ATOM     25  C   UNL     1       7.981   9.382  -0.006  0.00  0.00    +0.014 A 
ATOM     26 BR   UNL     1      12.102   9.771  -0.052  0.00  0.00    -0.050 Br
ENDBRANCH  17  20
ENDBRANCH   6  16
TORSDOF 4
