REMARK  Name = ZINC20646192
REMARK  5 active torsions:
REMARK  status: ('A' for Active; 'I' for Inactive)
REMARK    1  A    between atoms: C_1  and  C_2
REMARK    2  A    between atoms: C_5  and  N_8
REMARK    3  A    between atoms: C_9  and  C_11
REMARK    4  A    between atoms: C_11  and  C_12
REMARK    5  A    between atoms: C_15  and  N_18
REMARK                            x       y       z     vdW  Elec       q    Type
REMARK                         _______ _______ _______ _____ _____    ______ ____
ROOT
ATOM      1  C   UNL     1      -6.370   6.962   0.364  0.00  0.00    -0.039 A 
ATOM      2  C   UNL     1      -5.247   7.762   0.263  0.00  0.00    +0.006 A 
ATOM      3  C   UNL     1      -3.995   7.187   0.159  0.00  0.00    +0.023 A 
ATOM      4  C   UNL     1      -3.866   5.804   0.157  0.00  0.00    +0.032 A 
ATOM      5  C   UNL     1      -4.997   5.003   0.253  0.00  0.00    +0.023 A 
ATOM      6  C   UNL     1      -6.245   5.584   0.362  0.00  0.00    +0.006 A 
ENDROOT
BRANCH   4   7
ATOM      7  N   UNL     1      -2.600   5.220   0.052  0.00  0.00    -0.299 N 
ATOM      8  C   UNL     1      -1.521   5.805   0.666  0.00  0.00    +0.135 A 
ATOM      9  C   UNL     1      -0.164   5.276   0.466  0.00  0.00    +0.038 A 
ATOM     10  C   UNL     1       0.083   4.170  -0.346  0.00  0.00    +0.013 A 
ATOM     11  C   UNL     1       1.376   3.716  -0.499  0.00  0.00    +0.001 A 
ATOM     12  C   UNL     1       2.426   4.352   0.148  0.00  0.00    +0.002 A 
ATOM     13  C   UNL     1       2.196   5.447   0.955  0.00  0.00    +0.026 A 
ATOM     14  C   UNL     1       0.901   5.916   1.126  0.00  0.00    +0.052 A 
ATOM     15  N   UNL     1       0.621   7.013   1.919  0.00  0.00    -0.333 N 
ATOM     16  H   UNL     1       1.436   7.538   2.440  0.00  0.00    +0.168 HD
ATOM     17  C   UNL     1      -0.646   7.443   2.058  0.00  0.00    +0.179 A 
ATOM     18  S   UNL     1      -0.945   8.801   3.057  0.00  0.00    -0.011 S 
ATOM     19  N   UNL     1      -1.678   6.859   1.452  0.00  0.00    -0.207 NA
ATOM     20  H   UNL     1      -2.469   4.291  -0.522  0.00  0.00    +0.154 HD
ENDBRANCH   4   7
BRANCH   1  21
ATOM     21  C   UNL     1      -7.735   7.592   0.477  0.00  0.00    +0.130 C 
BRANCH  21  23
ATOM     22  N   UNL     1      -9.531   8.346  -1.046  0.00  0.00    -0.312 N 
ATOM     23  C   UNL     1      -8.311   7.793  -0.901  0.00  0.00    +0.218 C 
ATOM     24  O   UNL     1      -7.676   7.458  -1.878  0.00  0.00    -0.275 OA
ATOM     25  H   UNL     1     -10.107   8.650  -0.160  0.00  0.00    +0.149 HD
BRANCH  22  30
ATOM     26  C   UNL     1     -12.282  10.307  -5.674  0.00  0.00    +0.007 C 
ATOM     27  C   UNL     1     -11.697  10.103  -4.275  0.00  0.00    -0.014 C 
ATOM     28  C   UNL     1     -12.204   8.779  -3.699  0.00  0.00    +0.005 C 
ATOM     29  C   UNL     1     -11.619   8.575  -2.300  0.00  0.00    +0.022 C 
ATOM     30  C   UNL     1     -10.091   8.542  -2.386  0.00  0.00    +0.073 C 
ATOM     31  C   UNL     1      -9.585   9.866  -2.962  0.00  0.00    +0.022 C 
ATOM     32  C   UNL     1     -10.169  10.070  -4.361  0.00  0.00    +0.005 C 
ENDBRANCH  22  30
ENDBRANCH  21  23
ENDBRANCH   1  21
TORSDOF 4
