REMARK  Name = ZINC17211589
REMARK  8 active torsions:
REMARK  status: ('A' for Active; 'I' for Inactive)
REMARK    1  A    between atoms: C_1  and  C_2
REMARK    2  A    between atoms: C_2  and  C_4
REMARK    3  A    between atoms: C_9  and  N_10
REMARK    4  A    between atoms: C_11  and  C_13
REMARK    5  A    between atoms: C_15  and  C_16
REMARK    6  A    between atoms: C_15  and  C_27
REMARK    7  A    between atoms: C_27  and  C_29
REMARK    8  A    between atoms: C_34  and  C_35
REMARK                            x       y       z     vdW  Elec       q    Type
REMARK                         _______ _______ _______ _____ _____    ______ ____
ROOT
ATOM      1  C   UNL     1      -4.242   2.380   2.404  0.00  0.00    +0.251 C 
ATOM      2  O   UNL     1      -5.363   2.206   1.991  0.00  0.00    -0.282 OA
ATOM      3  C   UNL     1      -3.497   3.643   2.054  0.00  0.00    +0.096 C 
ENDROOT
BRANCH   3   4
ATOM      4  C   UNL     1      -2.712   3.429   0.758  0.00  0.00    +0.245 C 
ATOM      5  C   UNL     1      -1.698   2.328   0.943  0.00  0.00    +0.011 A 
ATOM      6  C   UNL     1      -1.799   0.993   1.257  0.00  0.00    +0.008 A 
ATOM      7  C   UNL     1      -0.656   0.219   1.363  0.00  0.00    +0.000 A 
ATOM      8  C   UNL     1       0.589   0.782   1.144  0.00  0.00    +0.001 A 
ATOM      9  C   UNL     1       0.703   2.119   0.825  0.00  0.00    +0.015 A 
ATOM     10  C   UNL     1      -0.445   2.907   0.721  0.00  0.00    +0.066 A 
ATOM     11  C   UNL     1      -0.650   4.332   0.404  0.00  0.00    +0.340 C 
ATOM     12  O   UNL     1       0.237   5.124   0.158  0.00  0.00    -0.245 OA
ATOM     13  O   UNL     1      -1.960   4.628   0.426  0.00  0.00    -0.448 OA
ENDBRANCH   3   4
BRANCH   1  15
ATOM     14  N   UNL     1      -4.261   0.217   3.573  0.00  0.00    -0.278 N 
ATOM     15  C   UNL     1      -3.595   1.347   3.260  0.00  0.00    +0.289 C 
ATOM     16  O   UNL     1      -2.468   1.521   3.675  0.00  0.00    -0.266 OA
ATOM     17  H   UNL     1      -5.311   0.096   3.269  0.00  0.00    +0.155 HD
BRANCH  14  23
ATOM     18  C   UNL     1      -3.848  -2.141   3.949  0.00  0.00    +0.038 A 
ATOM     19  C   UNL     1      -3.193  -3.148   4.667  0.00  0.00    +0.013 A 
ATOM     20  C   UNL     1      -2.342  -2.814   5.696  0.00  0.00    +0.001 A 
ATOM     21  C   UNL     1      -2.124  -1.484   6.023  0.00  0.00    +0.002 A 
ATOM     22  C   UNL     1      -2.758  -0.478   5.322  0.00  0.00    +0.024 A 
ATOM     23  C   UNL     1      -3.621  -0.793   4.280  0.00  0.00    +0.044 A 
BRANCH  18  25
ATOM     24  C   UNL     1      -5.115  -3.931   2.597  0.00  0.00    +0.091 C 
ATOM     25  C   UNL     1      -4.762  -2.489   2.854  0.00  0.00    +0.162 C 
ATOM     26  O   UNL     1      -5.233  -1.615   2.156  0.00  0.00    -0.292 OA
ENDBRANCH  18  25
ENDBRANCH  14  23
ENDBRANCH   1  15
BRANCH   3  27
ATOM     27  C   UNL     1      -4.479   4.770   1.865  0.00  0.00    +0.197 C 
ATOM     28  O   UNL     1      -5.626   4.529   1.551  0.00  0.00    -0.287 OA
BRANCH  27  29
ATOM     29  C   UNL     1      -4.049   6.160   2.063  0.00  0.00    +0.030 A 
ATOM     30  C   UNL     1      -2.771   6.438   2.558  0.00  0.00    +0.012 A 
ATOM     31  C   UNL     1      -2.371   7.745   2.736  0.00  0.00    +0.001 A 
ATOM     32  C   UNL     1      -3.232   8.789   2.437  0.00  0.00    +0.001 A 
ATOM     33  C   UNL     1      -4.499   8.535   1.952  0.00  0.00    +0.009 A 
ATOM     34  C   UNL     1      -4.922   7.223   1.759  0.00  0.00    -0.007 A 
BRANCH  34  35
ATOM     35  C   UNL     1      -6.281   6.947   1.240  0.00  0.00    -0.017 A 
ATOM     36  C   UNL     1      -6.445   6.226   0.057  0.00  0.00    +0.008 A 
ATOM     37  C   UNL     1      -7.714   5.967  -0.419  0.00  0.00    +0.001 A 
ATOM     38  C   UNL     1      -8.822   6.429   0.268  0.00  0.00    +0.000 A 
ATOM     39  C   UNL     1      -8.665   7.149   1.439  0.00  0.00    +0.001 A 
ATOM     40  C   UNL     1      -7.402   7.410   1.928  0.00  0.00    +0.008 A 
ENDBRANCH  34  35
ENDBRANCH  27  29
ENDBRANCH   3  27
TORSDOF 7
