REMARK  Name = ZINC22924910
REMARK  10 active torsions:
REMARK  status: ('A' for Active; 'I' for Inactive)
REMARK    1  A    between atoms: C_6  and  C_7
REMARK    2  A    between atoms: C_7  and  C_8
REMARK    3  A    between atoms: C_7  and  O_15
REMARK    4  A    between atoms: O_15  and  C_16
REMARK    5  A    between atoms: C_16  and  C_17
REMARK    6  A    between atoms: C_17  and  C_19
REMARK    7  A    between atoms: C_17  and  O_36
REMARK    8  A    between atoms: C_19  and  N_20
REMARK    9  A    between atoms: N_23  and  C_26
REMARK   10  A    between atoms: C_26  and  C_27
REMARK                            x       y       z     vdW  Elec       q    Type
REMARK                         _______ _______ _______ _____ _____    ______ ____
ROOT
ATOM      1  C   UNL     1       8.579  -4.428  -1.564  0.00  0.00    +0.154 C 
ENDROOT
BRANCH   1   2
ATOM      2  O   UNL     1       8.506  -5.436  -0.553  0.00  0.00    -0.388 OA
ATOM      3  H   UNL     1       7.844  -5.299   0.314  0.00  0.00    +0.210 HD
ENDBRANCH   1   2
BRANCH   1   4
ATOM      4  C   UNL     1       9.565  -4.864  -2.649  0.00  0.00    +0.193 C 
BRANCH   4   5
ATOM      5  O   UNL     1       9.063  -6.027  -3.311  0.00  0.00    -0.365 OA
BRANCH   5   6
ATOM      6  C   UNL     1       9.913  -6.518  -4.348  0.00  0.00    +0.178 C 
BRANCH   6  12
ATOM      7  C   UNL     1      10.459  -8.419  -2.814  0.00  0.00    +0.008 A 
ATOM      8  C   UNL     1      11.347  -9.338  -2.288  0.00  0.00    +0.020 A 
ATOM      9  C   UNL     1      12.664  -9.349  -2.713  0.00  0.00    +0.041 A 
ATOM     10  C   UNL     1      13.089  -8.442  -3.668  0.00  0.00    +0.020 A 
ATOM     11  C   UNL     1      12.199  -7.527  -4.197  0.00  0.00    +0.008 A 
ATOM     12  C   UNL     1      10.883  -7.517  -3.772  0.00  0.00    -0.014 A 
ATOM     13 CL   UNL     1      13.781 -10.499  -2.050  0.00  0.00    -0.084 Cl
ENDBRANCH   6  12
BRANCH   6  14
ATOM     14  C   UNL     1       9.077  -7.186  -5.409  0.00  0.00    -0.014 A 
ATOM     15  C   UNL     1       7.943  -7.891  -5.053  0.00  0.00    +0.008 A 
ATOM     16  C   UNL     1       7.172  -8.498  -6.026  0.00  0.00    +0.020 A 
ATOM     17  C   UNL     1       7.542  -8.410  -7.356  0.00  0.00    +0.041 A 
ATOM     18  C   UNL     1       8.681  -7.709  -7.712  0.00  0.00    +0.020 A 
ATOM     19  C   UNL     1       9.447  -7.097  -6.738  0.00  0.00    +0.008 A 
ATOM     20 CL   UNL     1       6.578  -9.178  -8.579  0.00  0.00    -0.084 Cl
ENDBRANCH   6  14
ENDBRANCH   5   6
ENDBRANCH   4   5
ENDBRANCH   1   4
BRANCH   1  21
ATOM     21  C   UNL     1       9.054  -3.114  -0.940  0.00  0.00    +0.117 C 
BRANCH  21  22
ATOM     22  N   UNL     1       8.107  -2.696   0.102  0.00  0.00    -0.303 NA
ATOM     23  C   UNL     1       8.396  -1.330   0.559  0.00  0.00    +0.066 C 
ATOM     24  C   UNL     1       7.441  -0.962   1.696  0.00  0.00    -0.063 C 
ATOM     25  N   UNL     1       6.054  -1.074   1.223  0.00  0.00    +0.384 N 
ATOM     26  C   UNL     1       5.765  -2.440   0.767  0.00  0.00    -0.063 C 
ATOM     27  C   UNL     1       6.720  -2.808  -0.371  0.00  0.00    +0.066 C 
ATOM     28  H   UNL     1       5.932  -0.396   0.365  0.00  0.00    -0.081 HD
BRANCH  25  29
ATOM     29  C   UNL     1       5.107  -0.655   2.265  0.00  0.00    -0.043 C 
BRANCH  29  30
ATOM     30  C   UNL     1       3.725  -0.548   1.674  0.00  0.00    -0.060 A 
ATOM     31  C   UNL     1       2.885  -1.646   1.677  0.00  0.00    +0.005 A 
ATOM     32  C   UNL     1       1.617  -1.553   1.135  0.00  0.00    +0.050 A 
ATOM     33  C   UNL     1       1.183  -0.356   0.589  0.00  0.00    +0.166 A 
ATOM     34  C   UNL     1       2.028   0.751   0.586  0.00  0.00    +0.166 A 
ATOM     35  C   UNL     1       3.298   0.650   1.131  0.00  0.00    +0.051 A 
ATOM     36  O   UNL     1       1.376   1.797  -0.001  0.00  0.00    -0.453 OA
ATOM     37  C   UNL     1      -0.018   1.436   0.010  0.00  0.00    +0.466 C 
ATOM     38  O   UNL     1       0.002  -0.004   0.002  0.00  0.00    -0.453 OA
ENDBRANCH  29  30
ENDBRANCH  25  29
ENDBRANCH  21  22
ENDBRANCH   1  21
TORSDOF 10
