REMARK  Name = ZINC06720032
REMARK  6 active torsions:
REMARK  status: ('A' for Active; 'I' for Inactive)
REMARK    1  A    between atoms: C_1  and  S_2
REMARK    2  A    between atoms: S_2  and  C_3
REMARK    3  A    between atoms: C_6  and  C_9
REMARK    4  A    between atoms: C_12  and  C_23
REMARK    5  A    between atoms: C_18  and  N_22
REMARK    6  A    between atoms: C_19  and  C_20
REMARK                            x       y       z     vdW  Elec       q    Type
REMARK                         _______ _______ _______ _____ _____    ______ ____
ROOT
ATOM      1  C   UNL     1      -5.834  -1.544   0.050  0.00  0.00    +0.102 C 
ATOM      2  C   UNL     1      -6.152  -2.371  -1.169  0.00  0.00    +0.054 A 
ATOM      3  C   UNL     1      -6.257  -1.973  -2.505  0.00  0.00    +0.100 A 
ATOM      4  N   UNL     1      -6.551  -3.040  -3.224  0.00  0.00    -0.171 NA
ATOM      5  N   UNL     1      -6.639  -4.144  -2.362  0.00  0.00    -0.246 N 
ATOM      6  H   UNL     1      -6.842  -5.056  -2.622  0.00  0.00    +0.192 HD
ATOM      7  C   UNL     1      -6.392  -3.713  -1.108  0.00  0.00    +0.223 A 
ATOM      8  O   UNL     1      -6.368  -4.409   0.057  0.00  0.00    -0.423 OA
ATOM      9  C   UNL     1      -6.369  -3.704   1.206  0.00  0.00    +0.200 C 
ATOM     10  C   UNL     1      -6.132  -2.374   1.274  0.00  0.00    +0.098 C 
ENDROOT
BRANCH   1  14
ATOM     11  C   UNL     1      -1.702  -0.454   0.016  0.00  0.00    +0.008 A 
ATOM     12  C   UNL     1      -2.682   0.531   0.025  0.00  0.00    +0.015 A 
ATOM     13  C   UNL     1      -4.016   0.176   0.036  0.00  0.00    +0.005 A 
ATOM     14  C   UNL     1      -4.377  -1.159   0.038  0.00  0.00    -0.034 A 
ATOM     15  C   UNL     1      -3.404  -2.143   0.029  0.00  0.00    +0.005 A 
ATOM     16  C   UNL     1      -2.068  -1.794   0.012  0.00  0.00    +0.015 A 
BRANCH  11  18
ATOM     17  C   UNL     1      -0.022   1.810   0.012  0.00  0.00    +0.090 C 
ATOM     18  S   UNL     1       0.002  -0.004   0.002  0.00  0.00    -0.129 S 
ENDBRANCH  11  18
ENDBRANCH   1  14
BRANCH   3  19
ATOM     19  C   UNL     1      -6.073  -0.595  -3.023  0.00  0.00    +0.003 A 
ATOM     20  C   UNL     1      -6.474   0.499  -2.258  0.00  0.00    +0.010 A 
ATOM     21  C   UNL     1      -6.300   1.779  -2.745  0.00  0.00    +0.001 A 
ATOM     22  C   UNL     1      -5.729   1.977  -3.989  0.00  0.00    +0.000 A 
ATOM     23  C   UNL     1      -5.330   0.895  -4.753  0.00  0.00    +0.001 A 
ATOM     24  C   UNL     1      -5.494  -0.389  -4.273  0.00  0.00    +0.010 A 
ENDBRANCH   3  19
BRANCH   9  25
ATOM     25  N   UNL     1      -6.626  -4.374   2.376  0.00  0.00    -0.328 N 
ATOM     26  H   UNL     1      -6.800  -5.328   2.360  0.00  0.00    +0.145 HD
ATOM     27  H   UNL     1      -6.633  -3.894   3.219  0.00  0.00    +0.145 HD
ENDBRANCH   9  25
BRANCH  10  28
ATOM     28  C   UNL     1      -6.164  -1.730   2.552  0.00  0.00    +0.101 C 
ATOM     29  N   UNL     1      -6.189  -1.219   3.567  0.00  0.00    -0.191 NA
ENDBRANCH  10  28
TORSDOF 5
