REMARK  Name = ZINC43525686
REMARK  9 active torsions:
REMARK  status: ('A' for Active; 'I' for Inactive)
REMARK    1  A    between atoms: C_1  and  N_2
REMARK    2  A    between atoms: C_3  and  C_12
REMARK    3  A    between atoms: C_5  and  C_7
REMARK    4  A    between atoms: C_21  and  C_23
REMARK    5  A    between atoms: C_23  and  N_24
REMARK    6  A    between atoms: N_24  and  C_25
REMARK    7  A    between atoms: C_25  and  N_27
REMARK    8  A    between atoms: N_27  and  C_28
REMARK    9  A    between atoms: C_32  and  C_34
REMARK                            x       y       z     vdW  Elec       q    Type
REMARK                         _______ _______ _______ _____ _____    ______ ____
ROOT
ATOM      1  C   UNL     1      -0.326   0.453  -3.104  0.00  0.00    +0.024 C 
ATOM      2  C   UNL     1       1.165   0.182  -3.318  0.00  0.00    -0.068 C 
ATOM      3  N   UNL     1       1.361  -0.599  -4.542  0.00  0.00    +0.383 N 
ATOM      4  C   UNL     1       0.690  -1.896  -4.439  0.00  0.00    -0.078 C 
ATOM      5  C   UNL     1      -0.817  -1.694  -4.262  0.00  0.00    -0.015 C 
ATOM      6  C   UNL     1      -1.119  -0.187  -4.251  0.00  0.00    -0.007 C 
ATOM      7  C   UNL     1      -0.626   0.413  -5.574  0.00  0.00    -0.010 C 
ATOM      8  C   UNL     1       0.877   0.142  -5.710  0.00  0.00    -0.051 C 
ATOM      9  H   UNL     1       2.349  -0.767  -4.658  0.00  0.00    -0.081 HD
ENDROOT
BRANCH   1  12
ATOM     10  C   UNL     1      -2.942   1.081  -1.571  0.00  0.00    +0.172 C 
ATOM     11  N   UNL     1      -1.909   0.138  -1.134  0.00  0.00    -0.270 N 
ATOM     12  C   UNL     1      -0.764  -0.145  -1.792  0.00  0.00    +0.041 A 
ATOM     13  C   UNL     1      -0.082  -1.058  -1.068  0.00  0.00    +0.056 A 
ATOM     14  C   UNL     1      -0.839  -1.350   0.085  0.00  0.00    +0.128 A 
ATOM     15  N   UNL     1      -1.937  -0.621   0.043  0.00  0.00    -0.168 NA
BRANCH  14  16
ATOM     16  C   UNL     1      -0.465  -2.299   1.155  0.00  0.00    +0.155 A 
ATOM     17  C   UNL     1      -1.199  -2.582   2.263  0.00  0.00    +0.051 A 
ATOM     18  C   UNL     1      -0.468  -3.534   3.003  0.00  0.00    +0.042 A 
ATOM     19  C   UNL     1       0.664  -3.781   2.317  0.00  0.00    +0.196 A 
ATOM     20  O   UNL     1       0.660  -3.038   1.198  0.00  0.00    -0.461 OA
ENDBRANCH  14  16
ENDBRANCH   1  12
BRANCH   8  21
ATOM     21  C   UNL     1       1.133  -0.680  -6.974  0.00  0.00    +0.088 C 
BRANCH  21  22
ATOM     22  N   UNL     1       2.554  -1.029  -7.050  0.00  0.00    -0.328 N 
ATOM     23  H   UNL     1       3.163  -0.737  -6.354  0.00  0.00    +0.148 HD
BRANCH  22  24
ATOM     24  C   UNL     1       3.015  -1.756  -8.087  0.00  0.00    +0.134 C 
ATOM     25  S   UNL     1       1.940  -2.273  -9.316  0.00  0.00    -0.019 S 
BRANCH  24  26
ATOM     26  N   UNL     1       4.322  -2.078  -8.157  0.00  0.00    -0.297 N 
ATOM     27  H   UNL     1       4.916  -1.855  -7.424  0.00  0.00    +0.154 HD
BRANCH  26  28
ATOM     28  C   UNL     1       4.822  -2.732  -9.288  0.00  0.00    +0.034 A 
ATOM     29  C   UNL     1       4.401  -2.348 -10.556  0.00  0.00    +0.023 A 
ATOM     30  C   UNL     1       4.891  -2.991 -11.677  0.00  0.00    +0.003 A 
ATOM     31  C   UNL     1       5.803  -4.019 -11.545  0.00  0.00    +0.019 A 
ATOM     32  C   UNL     1       6.232  -4.412 -10.276  0.00  0.00    +0.054 A 
ATOM     33  C   UNL     1       5.741  -3.759  -9.145  0.00  0.00    +0.042 A 
BRANCH  32  34
ATOM     34  C   UNL     1       7.178  -5.479 -10.136  0.00  0.00    +0.099 C 
ATOM     35  N   UNL     1       7.928  -6.325 -10.024  0.00  0.00    -0.191 NA
ENDBRANCH  32  34
ENDBRANCH  26  28
ENDBRANCH  24  26
ENDBRANCH  22  24
ENDBRANCH  21  22
ENDBRANCH   8  21
TORSDOF 8
