REMARK  Name = ZINC02727438
REMARK  3 active torsions:
REMARK  status: ('A' for Active; 'I' for Inactive)
REMARK    1  A    between atoms: C_6  and  N_7
REMARK    2  A    between atoms: C_11  and  S_15
REMARK    3  A    between atoms: S_15  and  C_16
REMARK                            x       y       z     vdW  Elec       q    Type
REMARK                         _______ _______ _______ _____ _____    ______ ____
ROOT
ATOM      1  N   UNL     1      -1.202  -0.723   0.010  0.00  0.00    -0.209 N 
ATOM      2  C   UNL     1      -2.398  -0.131   0.118  0.00  0.00    +0.228 C 
ATOM      3  O   UNL     1      -2.585   1.062   0.218  0.00  0.00    -0.275 OA
ATOM      4  C   UNL     1      -3.481  -1.188   0.094  0.00  0.00    +0.120 C 
ATOM      5  C   UNL     1      -2.694  -2.508  -0.048  0.00  0.00    +0.149 C 
ATOM      6  C   UNL     1      -1.250  -2.057  -0.095  0.00  0.00    +0.240 C 
ATOM      7  O   UNL     1      -0.290  -2.787  -0.207  0.00  0.00    -0.274 OA
ENDROOT
BRANCH   1  13
ATOM      8  C   UNL     1       0.775   0.044  -1.150  0.00  0.00    +0.025 A 
ATOM      9  C   UNL     1       1.961   0.753  -1.156  0.00  0.00    +0.022 A 
ATOM     10  C   UNL     1       2.378   1.415  -0.014  0.00  0.00    +0.041 A 
ATOM     11  C   UNL     1       1.609   1.368   1.135  0.00  0.00    +0.022 A 
ATOM     12  C   UNL     1       0.423   0.660   1.146  0.00  0.00    +0.025 A 
ATOM     13  C   UNL     1       0.002  -0.004   0.002  0.00  0.00    +0.044 A 
ATOM     14 CL   UNL     1       3.869   2.304  -0.024  0.00  0.00    -0.084 Cl
ENDBRANCH   1  13
BRANCH   5  15
ATOM     15  S   UNL     1      -3.146  -3.358  -1.585  0.00  0.00    -0.079 S 
BRANCH  15  16
ATOM     16  C   UNL     1      -2.273  -4.887  -1.499  0.00  0.00    +0.129 C 
ATOM     17  N   UNL     1      -1.500  -5.212  -0.474  0.00  0.00    -0.366 N 
ATOM     18  C   UNL     1      -0.920  -6.544  -0.709  0.00  0.00    +0.133 C 
ATOM     19  C   UNL     1      -1.500  -6.952  -2.078  0.00  0.00    +0.124 C 
ATOM     20  N   UNL     1      -2.342  -5.805  -2.450  0.00  0.00    -0.324 N 
ATOM     21  H   UNL     1      -2.863  -5.731  -3.265  0.00  0.00    +0.148 HD
ATOM     22  H   UNL     1      -1.340  -4.660   0.307  0.00  0.00    +0.161 HD
ENDBRANCH  15  16
ENDBRANCH   5  15
TORSDOF 3
