REMARK  Name = ZINC62811096
REMARK  4 active torsions:
REMARK  status: ('A' for Active; 'I' for Inactive)
REMARK    1  A    between atoms: N_4  and  C_6
REMARK    2  A    between atoms: C_11  and  N_12
REMARK    3  A    between atoms: C_13  and  C_15
REMARK    4  A    between atoms: C_16  and  N_21
REMARK                            x       y       z     vdW  Elec       q    Type
REMARK                         _______ _______ _______ _____ _____    ______ ____
ROOT
ATOM      1  N   UNL     1       4.032  -0.936  -0.253  0.00  0.00    -0.278 N 
ATOM      2  C   UNL     1       5.311  -1.110   0.134  0.00  0.00    +0.270 C 
ATOM      3  O   UNL     1       5.694  -2.208   0.491  0.00  0.00    -0.268 OA
ATOM      4  H   UNL     1       3.744  -0.078  -0.603  0.00  0.00    +0.155 HD
ENDROOT
BRANCH   1  10
ATOM      5  C   UNL     1       1.778  -1.732   0.129  0.00  0.00    +0.087 A 
ATOM      6  C   UNL     1       0.877  -2.782   0.225  0.00  0.00    +0.031 A 
ATOM      7  C   UNL     1       1.311  -4.082   0.049  0.00  0.00    +0.022 A 
ATOM      8  C   UNL     1       2.643  -4.341  -0.222  0.00  0.00    +0.043 A 
ATOM      9  C   UNL     1       3.548  -3.300  -0.319  0.00  0.00    +0.045 A 
ATOM     10  C   UNL     1       3.119  -1.991  -0.150  0.00  0.00    +0.061 A 
ATOM     11 CL   UNL     1       3.180  -5.978  -0.440  0.00  0.00    -0.083 Cl
BRANCH   5  15
ATOM     12  C   UNL     1       0.060   1.333   0.614  0.00  0.00    +0.041 A 
ATOM     13  C   UNL     1       1.384   1.774   0.523  0.00  0.00    +0.135 A 
ATOM     14  N   UNL     1       2.152   0.730   0.339  0.00  0.00    -0.175 NA
ATOM     15  N   UNL     1       1.340  -0.411   0.308  0.00  0.00    -0.238 N 
ATOM     16  C   UNL     1       0.059  -0.014   0.479  0.00  0.00    +0.114 A 
ENDBRANCH   5  15
ENDBRANCH   1  10
BRANCH   2  17
ATOM     17  C   UNL     1       6.246   0.029   0.123  0.00  0.00    +0.168 A 
ATOM     18  C   UNL     1       7.615   0.000   0.495  0.00  0.00    +0.075 A 
ATOM     19  C   UNL     1       8.063   1.272   0.325  0.00  0.00    +0.128 A 
ATOM     20  N   UNL     1       7.013   2.009  -0.123  0.00  0.00    -0.282 N 
ATOM     21  H   UNL     1       7.047   2.956  -0.330  0.00  0.00    +0.188 HD
ATOM     22  N   UNL     1       5.970   1.268  -0.239  0.00  0.00    -0.167 NA
BRANCH  18  23
ATOM     23  N   UNL     1       8.351  -1.107   0.943  0.00  0.00    -0.355 N 
ATOM     24  H   UNL     1       7.921  -1.973   1.026  0.00  0.00    +0.142 HD
ATOM     25  H   UNL     1       9.288  -1.007   1.170  0.00  0.00    +0.142 HD
ENDBRANCH  18  23
ENDBRANCH   2  17
TORSDOF 4
