REMARK  Name = ZINC02102373
REMARK  15 active torsions:
REMARK  status: ('A' for Active; 'I' for Inactive)
REMARK    1  A    between atoms: C_1  and  C_2
REMARK    2  A    between atoms: C_2  and  C_3
REMARK    3  A    between atoms: C_3  and  C_4
REMARK    4  A    between atoms: C_4  and  N_81
REMARK    5  A    between atoms: C_5  and  C_6
REMARK    6  A    between atoms: C_5  and  N_81
REMARK    7  A    between atoms: C_6  and  C_7
REMARK    8  A    between atoms: C_7  and  C_8
REMARK    9  A    between atoms: C_9  and  C_10
REMARK   10  A    between atoms: C_9  and  N_81
REMARK   11  A    between atoms: C_10  and  C_11
REMARK   12  A    between atoms: C_11  and  N_12
REMARK   13  A    between atoms: C_32  and  C_34
REMARK   14  A    between atoms: C_38  and  O_40
REMARK   15  A    between atoms: O_40  and  C_41
REMARK                            x       y       z     vdW  Elec       q    Type
REMARK                         _______ _______ _______ _____ _____    ______ ____
ROOT
ATOM      1  N   UNL     1       1.867   2.155   1.163  0.00  0.00    -0.291 N 
ATOM      2  C   UNL     1       0.821   3.159   1.266  0.00  0.00    +0.203 C 
ATOM      3  C   UNL     1      -0.536   2.584   1.017  0.00  0.00    +0.234 C 
ATOM      4  O   UNL     1      -1.489   3.330   1.096  0.00  0.00    -0.274 OA
ATOM      5  N   UNL     1      -0.768   1.307   0.708  0.00  0.00    -0.276 N 
ATOM      6  C   UNL     1       0.297   0.328   0.497  0.00  0.00    +0.167 C 
ATOM      7  C   UNL     1       1.645   0.887   0.823  0.00  0.00    +0.237 C 
ATOM      8  O   UNL     1       2.597   0.138   0.774  0.00  0.00    -0.274 OA
ATOM      9  C   UNL     1       0.272  -0.138  -0.965  0.00  0.00    +0.069 C 
ATOM     10  C   UNL     1      -1.153  -0.431  -1.359  0.00  0.00    -0.015 A 
ATOM     11  C   UNL     1      -1.633  -1.200  -2.489  0.00  0.00    +0.003 A 
ATOM     12  C   UNL     1      -0.976  -1.885  -3.517  0.00  0.00    +0.010 A 
ATOM     13  C   UNL     1      -1.767  -2.518  -4.444  0.00  0.00    +0.001 A 
ATOM     14  C   UNL     1      -3.150  -2.488  -4.375  0.00  0.00    +0.002 A 
ATOM     15  C   UNL     1      -3.825  -1.819  -3.369  0.00  0.00    +0.026 A 
ATOM     16  C   UNL     1      -3.049  -1.166  -2.413  0.00  0.00    +0.047 A 
ATOM     17  N   UNL     1      -3.379  -0.429  -1.313  0.00  0.00    -0.356 N 
ATOM     18  H   UNL     1      -4.284  -0.242  -1.018  0.00  0.00    +0.166 HD
ATOM     19  C   UNL     1      -2.241   0.005  -0.687  0.00  0.00    +0.046 A 
ATOM     20  C   UNL     1      -2.166   0.846   0.566  0.00  0.00    +0.154 C 
ENDROOT
BRANCH  20  21
ATOM     21  C   UNL     1      -3.086   2.034   0.444  0.00  0.00    -0.018 A 
ATOM     22  C   UNL     1      -3.986   2.318   1.455  0.00  0.00    +0.006 A 
ATOM     23  C   UNL     1      -4.828   3.409   1.348  0.00  0.00    +0.004 A 
ATOM     24  C   UNL     1      -4.780   4.212   0.224  0.00  0.00    +0.045 A 
ATOM     25  C   UNL     1      -3.883   3.925  -0.794  0.00  0.00    +0.120 A 
ATOM     26  C   UNL     1      -3.035   2.833  -0.681  0.00  0.00    +0.051 A 
BRANCH  25  27
ATOM     27  O   UNL     1      -3.834   4.714  -1.900  0.00  0.00    -0.495 OA
ATOM     28  C   UNL     1      -4.736   5.821  -1.948  0.00  0.00    +0.277 C 
ENDBRANCH  25  27
ENDBRANCH  20  21
BRANCH   1  29
ATOM     29  C   UNL     1       3.245   2.562   1.449  0.00  0.00    +0.106 C 
BRANCH  29  30
ATOM     30  C   UNL     1       3.913   3.043   0.160  0.00  0.00    +0.000 C 
BRANCH  30  31
ATOM     31  C   UNL     1       5.352   3.468   0.459  0.00  0.00    -0.077 C 
BRANCH  31  32
ATOM     32  N   UNL     1       5.990   3.910  -0.799  0.00  0.00    +0.380 N 
ATOM     33  H   UNL     1       5.862   3.182  -1.511  0.00  0.00    -0.082 HD
BRANCH  32  34
ATOM     34  C   UNL     1       5.361   5.161  -1.272  0.00  0.00    -0.079 C 
BRANCH  34  35
ATOM     35  C   UNL     1       5.538   6.275  -0.239  0.00  0.00    -0.019 C 
BRANCH  35  37
ATOM     36  C   UNL     1       5.127   8.691   0.247  0.00  0.00    +0.004 C 
ATOM     37  C   UNL     1       4.950   7.577  -0.786  0.00  0.00    -0.005 C 
ENDBRANCH  35  37
ENDBRANCH  34  35
ENDBRANCH  32  34
BRANCH  32  38
ATOM     38  C   UNL     1       7.437   4.122  -0.584  0.00  0.00    -0.079 C 
BRANCH  38  39
ATOM     39  C   UNL     1       8.099   4.416  -1.932  0.00  0.00    -0.019 C 
BRANCH  39  40
ATOM     40  C   UNL     1       9.618   4.468  -1.753  0.00  0.00    -0.005 C 
ATOM     41  C   UNL     1      10.280   4.762  -3.101  0.00  0.00    +0.004 C 
ENDBRANCH  39  40
ENDBRANCH  38  39
ENDBRANCH  32  38
ENDBRANCH  31  32
ENDBRANCH  30  31
ENDBRANCH  29  30
ENDBRANCH   1  29
TORSDOF 12
