REMARK  Name = ZINC28296108
REMARK  10 active torsions:
REMARK  status: ('A' for Active; 'I' for Inactive)
REMARK    1  A    between atoms: C_1  and  C_2
REMARK    2  A    between atoms: C_2  and  N_3
REMARK    3  A    between atoms: N_3  and  C_4
REMARK    4  A    between atoms: N_3  and  C_6
REMARK    5  A    between atoms: C_4  and  C_5
REMARK    6  A    between atoms: C_6  and  C_8
REMARK    7  A    between atoms: C_6  and  C_24
REMARK    8  A    between atoms: C_8  and  N_9
REMARK    9  A    between atoms: C_10  and  C_12
REMARK   10  A    between atoms: C_14  and  C_17
REMARK                            x       y       z     vdW  Elec       q    Type
REMARK                         _______ _______ _______ _____ _____    ______ ____
ROOT
ATOM      1  N   UNL     1       5.631   3.253   1.470  0.00  0.00    -0.311 N 
ATOM      2  C   UNL     1       6.132   4.126   2.367  0.00  0.00    +0.266 C 
ATOM      3  O   UNL     1       5.520   5.141   2.632  0.00  0.00    -0.268 OA
ATOM      4  H   UNL     1       6.185   2.333   1.229  0.00  0.00    +0.149 HD
ENDROOT
BRANCH   2   5
ATOM      5  C   UNL     1       7.429   3.846   3.030  0.00  0.00    +0.168 A 
ATOM      6  C   UNL     1       8.089   4.662   3.985  0.00  0.00    +0.086 A 
ATOM      7  C   UNL     1       9.228   3.964   4.279  0.00  0.00    +0.168 A 
ATOM      8  O   UNL     1       9.194   2.850   3.527  0.00  0.00    -0.354 OA
ATOM      9  N   UNL     1       8.197   2.800   2.845  0.00  0.00    -0.073 NA
BRANCH   7  10
ATOM     10  C   UNL     1      10.290   4.360   5.228  0.00  0.00    +0.020 A 
ATOM     11  C   UNL     1      10.185   5.558   5.936  0.00  0.00    +0.013 A 
ATOM     12  C   UNL     1      11.176   5.919   6.825  0.00  0.00    +0.016 A 
ATOM     13  C   UNL     1      12.278   5.101   7.008  0.00  0.00    +0.018 A 
ATOM     14  C   UNL     1      12.390   3.914   6.304  0.00  0.00    +0.016 A 
ATOM     15  C   UNL     1      11.403   3.539   5.417  0.00  0.00    +0.013 A 
ATOM     16 BR   UNL     1      13.636   5.607   8.222  0.00  0.00    -0.050 Br
ENDBRANCH   7  10
ENDBRANCH   2   5
BRANCH   1  17
ATOM     17  C   UNL     1       4.350   3.529   0.815  0.00  0.00    +0.094 C 
BRANCH  17  18
ATOM     18  C   UNL     1       4.101   2.487  -0.278  0.00  0.00    -0.019 C 
BRANCH  18  19
ATOM     19  C   UNL     1       3.334   3.121  -1.410  0.00  0.00    -0.041 A 
ATOM     20  C   UNL     1       1.958   3.221  -1.341  0.00  0.00    +0.003 A 
ATOM     21  C   UNL     1       1.254   3.802  -2.380  0.00  0.00    +0.000 A 
ATOM     22  C   UNL     1       1.926   4.278  -3.490  0.00  0.00    +0.001 A 
ATOM     23  C   UNL     1       3.303   4.183  -3.557  0.00  0.00    +0.020 A 
ATOM     24  C   UNL     1       4.008   3.602  -2.518  0.00  0.00    +0.043 A 
ATOM     25 CL   UNL     1       5.738   3.477  -2.605  0.00  0.00    -0.083 Cl
ENDBRANCH  18  19
BRANCH  18  26
ATOM     26  N   UNL     1       3.323   1.372   0.277  0.00  0.00    +0.385 N 
ATOM     27  H   UNL     1       2.272   1.690   0.337  0.00  0.00    -0.081 HD
BRANCH  26  29
ATOM     28  C   UNL     1       2.473   0.407  -1.808  0.00  0.00    -0.017 C 
ATOM     29  C   UNL     1       3.390   0.196  -0.601  0.00  0.00    -0.081 C 
ENDBRANCH  26  29
BRANCH  26  30
ATOM     30  C   UNL     1       3.773   1.041   1.635  0.00  0.00    -0.081 C 
ATOM     31  C   UNL     1       2.558   0.732   2.513  0.00  0.00    -0.017 C 
ENDBRANCH  26  30
ENDBRANCH  18  26
ENDBRANCH  17  18
ENDBRANCH   1  17
TORSDOF 8
