REMARK  Name = ZINC13139045
REMARK  10 active torsions:
REMARK  status: ('A' for Active; 'I' for Inactive)
REMARK    1  A    between atoms: C_1  and  C_2
REMARK    2  A    between atoms: C_2  and  N_3
REMARK    3  A    between atoms: N_3  and  C_4
REMARK    4  A    between atoms: N_3  and  C_6
REMARK    5  A    between atoms: C_4  and  C_5
REMARK    6  A    between atoms: C_9  and  C_12
REMARK    7  A    between atoms: C_20  and  O_33
REMARK    8  A    between atoms: C_23  and  C_24
REMARK    9  A    between atoms: C_23  and  N_69
REMARK   10  A    between atoms: N_26  and  C_27
REMARK                            x       y       z     vdW  Elec       q    Type
REMARK                         _______ _______ _______ _____ _____    ______ ____
ROOT
ATOM      1  C   UNL     1       0.187   1.091   0.519  0.00  0.00    -0.031 C 
ATOM      2  C   UNL     1       1.587   1.637   0.805  0.00  0.00    +0.011 C 
ATOM      3  C   UNL     1       2.573   1.124  -0.245  0.00  0.00    +0.005 C 
ATOM      4  C   UNL     1       3.965   1.684   0.051  0.00  0.00    +0.000 C 
ATOM      5  C   UNL     1       4.415   1.235   1.442  0.00  0.00    +0.003 C 
ATOM      6  C   UNL     1       3.423   1.739   2.492  0.00  0.00    +0.035 C 
ATOM      7  C   UNL     1       2.037   1.168   2.192  0.00  0.00    +0.066 C 
ATOM      8  C   UNL     1       1.031   1.658   3.235  0.00  0.00    +0.016 C 
ATOM      9  C   UNL     1      -0.358   1.118   2.884  0.00  0.00    -0.075 C 
ATOM     10  N   UNL     1      -0.745   1.612   1.544  0.00  0.00    +0.390 N 
ATOM     11  H   UNL     1      -0.701   2.638   1.542  0.00  0.00    -0.080 HD
ENDROOT
BRANCH   1  15
ATOM     12  C   UNL     1      -1.103   2.417  -3.333  0.00  0.00    +0.030 A 
ATOM     13  C   UNL     1      -0.598   1.134  -3.172  0.00  0.00    +0.023 A 
ATOM     14  C   UNL     1      -0.182   0.708  -1.926  0.00  0.00    +0.004 A 
ATOM     15  C   UNL     1      -0.268   1.559  -0.839  0.00  0.00    -0.060 A 
ATOM     16  C   UNL     1      -0.776   2.835  -0.994  0.00  0.00    +0.004 A 
ATOM     17  C   UNL     1      -1.188   3.269  -2.239  0.00  0.00    +0.023 A 
BRANCH  12  18
ATOM     18  N   UNL     1      -1.525   2.851  -4.592  0.00  0.00    -0.330 N 
BRANCH  18  20
ATOM     19  C   UNL     1      -0.915   5.165  -5.096  0.00  0.00    +0.024 C 
ATOM     20  C   UNL     1      -2.058   4.205  -4.760  0.00  0.00    +0.102 C 
ENDBRANCH  18  20
BRANCH  18  21
ATOM     21  C   UNL     1      -1.435   1.951  -5.745  0.00  0.00    +0.102 C 
ATOM     22  C   UNL     1      -2.732   1.150  -5.869  0.00  0.00    +0.024 C 
ENDBRANCH  18  21
ENDBRANCH  12  18
ENDBRANCH   1  15
BRANCH   7  23
ATOM     23  O   UNL     1       2.093  -0.260   2.217  0.00  0.00    -0.388 OA
ATOM     24  H   UNL     1       2.372  -0.627   3.067  0.00  0.00    +0.210 HD
ENDBRANCH   7  23
BRANCH  10  25
ATOM     25  C   UNL     1      -2.125   1.191   1.231  0.00  0.00    +0.020 C 
BRANCH  25  26
ATOM     26  C   UNL     1      -2.248  -0.310   1.284  0.00  0.00    +0.201 C 
ATOM     27  O   UNL     1      -1.259  -0.994   1.447  0.00  0.00    -0.278 OA
ATOM     28  N   UNL     1      -3.455  -0.893   1.149  0.00  0.00    -0.287 N 
ATOM     29  H   UNL     1      -4.235  -0.353   0.944  0.00  0.00    +0.155 HD
BRANCH  28  30
ATOM     30  C   UNL     1      -3.586  -2.278   1.304  0.00  0.00    +0.033 A 
ATOM     31  C   UNL     1      -2.583  -3.126   0.854  0.00  0.00    +0.023 A 
ATOM     32  C   UNL     1      -2.712  -4.492   1.014  0.00  0.00    +0.002 A 
ATOM     33  C   UNL     1      -3.843  -5.015   1.612  0.00  0.00    +0.000 A 
ATOM     34  C   UNL     1      -4.846  -4.174   2.057  0.00  0.00    +0.002 A 
ATOM     35  C   UNL     1      -4.721  -2.807   1.905  0.00  0.00    +0.023 A 
ENDBRANCH  28  30
ENDBRANCH  25  26
ENDBRANCH  10  25
TORSDOF 8
