REMARK  Name = ZINC41124703
REMARK  4 active torsions:
REMARK  status: ('A' for Active; 'I' for Inactive)
REMARK    1  A    between atoms: C_5  and  S_16
REMARK    2  A    between atoms: S_16  and  N_19
REMARK    3  A    between atoms: N_19  and  C_20
REMARK    4  A    between atoms: N_19  and  C_26
REMARK                            x       y       z     vdW  Elec       q    Type
REMARK                         _______ _______ _______ _____ _____    ______ ____
ROOT
ATOM      1  C   UNL     1       0.324   0.068  -0.119  0.00  0.00    +0.001 A 
ATOM      2  C   UNL     1       1.300   1.022  -0.162  0.00  0.00    +0.008 A 
ATOM      3  C   UNL     1       2.651   0.651  -0.056  0.00  0.00    -0.015 A 
ATOM      4  C   UNL     1       3.692   1.595  -0.095  0.00  0.00    +0.037 A 
ATOM      5  C   UNL     1       4.990   1.186   0.012  0.00  0.00    +0.107 A 
ATOM      6  C   UNL     1       5.321  -0.157   0.161  0.00  0.00    +0.042 A 
ATOM      7  C   UNL     1       4.324  -1.119   0.204  0.00  0.00    +0.047 A 
ATOM      8  C   UNL     1       2.974  -0.714   0.095  0.00  0.00    +0.006 A 
ATOM      9  C   UNL     1       1.950  -1.687   0.138  0.00  0.00    +0.046 A 
ATOM     10  C   UNL     1       0.628  -1.280   0.029  0.00  0.00    +0.014 A 
ATOM     11  C   UNL     1       2.326  -3.100   0.295  0.00  0.00    +0.251 C 
ATOM     12  O   UNL     1       1.461  -3.955   0.334  0.00  0.00    -0.270 OA
ATOM     13  N   UNL     1       3.621  -3.453   0.397  0.00  0.00    -0.248 N 
ATOM     14  C   UNL     1       4.620  -2.551   0.358  0.00  0.00    +0.251 C 
ATOM     15  O   UNL     1       5.774  -2.922   0.454  0.00  0.00    -0.270 OA
ATOM     16  H   UNL     1       3.843  -4.391   0.499  0.00  0.00    +0.158 HD
ENDROOT
BRANCH   5  17
ATOM     17  S   UNL     1       6.278   2.387  -0.040  0.00  0.00    +0.061 S 
ATOM     18  O   UNL     1       7.418   1.738  -0.587  0.00  0.00    -0.153 OA
ATOM     19  O   UNL     1       5.717   3.558  -0.619  0.00  0.00    -0.153 OA
BRANCH  17  20
ATOM     20  N   UNL     1       6.656   2.768   1.526  0.00  0.00    -0.170 NA
BRANCH  20  21
ATOM     21  C   UNL     1       7.583   1.922   2.283  0.00  0.00    +0.080 C 
ATOM     22  C   UNL     1       6.843   1.278   3.456  0.00  0.00    +0.020 C 
ATOM     23  C   UNL     1       7.811   0.394   4.246  0.00  0.00    +0.002 C 
ATOM     24  C   UNL     1       8.964   1.248   4.777  0.00  0.00    +0.000 C 
ATOM     25  C   UNL     1       9.704   1.893   3.603  0.00  0.00    +0.002 C 
ATOM     26  C   UNL     1       8.736   2.777   2.814  0.00  0.00    +0.020 C 
ENDBRANCH  20  21
BRANCH  20  27
ATOM     27  C   UNL     1       6.064   3.951   2.156  0.00  0.00    +0.080 C 
ATOM     28  C   UNL     1       4.541   3.890   2.025  0.00  0.00    +0.020 C 
ATOM     29  C   UNL     1       3.922   5.125   2.682  0.00  0.00    +0.002 C 
ATOM     30  C   UNL     1       4.444   6.387   1.991  0.00  0.00    +0.000 C 
ATOM     31  C   UNL     1       5.967   6.447   2.123  0.00  0.00    +0.002 C 
ATOM     32  C   UNL     1       6.586   5.212   1.465  0.00  0.00    +0.020 C 
ENDBRANCH  20  27
ENDBRANCH  17  20
ENDBRANCH   5  17
TORSDOF 4
