REMARK  Name = ZINC64664340
REMARK  4 active torsions:
REMARK  status: ('A' for Active; 'I' for Inactive)
REMARK    1  A    between atoms: C_5  and  C_7
REMARK    2  A    between atoms: C_10  and  C_12
REMARK    3  A    between atoms: C_13  and  N_24
REMARK    4  A    between atoms: N_14  and  C_17
REMARK                            x       y       z     vdW  Elec       q    Type
REMARK                         _______ _______ _______ _____ _____    ______ ____
ROOT
ATOM      1  C   UNL     1       3.618  -5.030  -0.052  0.00  0.00    +0.159 A 
ATOM      2  C   UNL     1       3.583  -6.414  -0.065  0.00  0.00    +0.150 A 
ATOM      3  N   UNL     1       4.883  -6.829  -0.073  0.00  0.00    -0.198 N 
ATOM      4  N   UNL     1       5.674  -5.672  -0.064  0.00  0.00    -0.058 NA
ATOM      5  N   UNL     1       4.904  -4.642  -0.056  0.00  0.00    -0.125 NA
ENDROOT
BRANCH   3   6
ATOM      6  C   UNL     1       5.338  -8.155  -0.086  0.00  0.00    +0.072 A 
ATOM      7  C   UNL     1       4.631  -9.140   0.591  0.00  0.00    +0.028 A 
ATOM      8  C   UNL     1       5.081 -10.446   0.576  0.00  0.00    +0.005 A 
ATOM      9  C   UNL     1       6.234 -10.774  -0.112  0.00  0.00    +0.038 A 
ATOM     10  C   UNL     1       6.942  -9.795  -0.789  0.00  0.00    +0.125 A 
ATOM     11  C   UNL     1       6.492  -8.487  -0.782  0.00  0.00    +0.066 A 
ATOM     12  F   UNL     1       8.069 -10.118  -1.460  0.00  0.00    -0.205 F 
ENDBRANCH   3   6
BRANCH   1  16
ATOM     13  C   UNL     1       1.246  -2.165  -0.022  0.00  0.00    +0.080 A 
ATOM     14  C   UNL     1       0.077  -2.876  -0.020  0.00  0.00    +0.075 A 
ATOM     15  S   UNL     1       0.706  -4.550  -0.033  0.00  0.00    -0.073 S 
ATOM     16  C   UNL     1       2.445  -4.135  -0.040  0.00  0.00    +0.132 A 
ATOM     17  N   UNL     1       2.400  -2.811  -0.037  0.00  0.00    -0.237 NA
BRANCH  13  22
ATOM     18  C   UNL     1      -0.017   1.376   0.010  0.00  0.00    +0.001 A 
ATOM     19  C   UNL     1       1.170   2.087   0.002  0.00  0.00    +0.001 A 
ATOM     20  C   UNL     1       2.382   1.420  -0.013  0.00  0.00    +0.016 A 
ATOM     21  C   UNL     1       2.413   0.039  -0.021  0.00  0.00    +0.027 A 
ATOM     22  C   UNL     1       1.220  -0.682  -0.013  0.00  0.00    +0.015 A 
ATOM     23  C   UNL     1       0.002  -0.004   0.002  0.00  0.00    +0.011 A 
ATOM     24 BR   UNL     1       4.071  -0.871  -0.042  0.00  0.00    -0.050 Br
ENDBRANCH  13  22
ENDBRANCH   1  16
BRANCH   2  25
ATOM     25  N   UNL     1       2.454  -7.217  -0.069  0.00  0.00    -0.341 N 
ATOM     26  H   UNL     1       1.571  -6.814  -0.063  0.00  0.00    +0.144 HD
ATOM     27  H   UNL     1       2.545  -8.183  -0.079  0.00  0.00    +0.144 HD
ENDBRANCH   2  25
TORSDOF 4
