REMARK  Name = ZINC39663780
REMARK  14 active torsions:
REMARK  status: ('A' for Active; 'I' for Inactive)
REMARK    1  A    between atoms: C_1  and  C_2
REMARK    2  A    between atoms: C_2  and  C_3
REMARK    3  A    between atoms: C_3  and  C_4
REMARK    4  A    between atoms: C_3  and  C_6
REMARK    5  A    between atoms: C_4  and  C_5
REMARK    6  A    between atoms: C_10  and  C_19
REMARK    7  A    between atoms: N_21  and  C_22
REMARK    8  A    between atoms: C_22  and  C_23
REMARK    9  A    between atoms: C_23  and  C_25
REMARK   10  A    between atoms: C_23  and  N_33
REMARK   11  A    between atoms: C_28  and  O_31
REMARK   12  A    between atoms: O_31  and  C_32
REMARK   13  A    between atoms: N_33  and  C_34
REMARK   14  A    between atoms: N_33  and  C_35
REMARK                            x       y       z     vdW  Elec       q    Type
REMARK                         _______ _______ _______ _____ _____    ______ ____
ROOT
ATOM      1  C   UNL     1      -1.101  -1.965   0.376  0.00  0.00    +0.219 C 
ATOM      2  O   UNL     1      -1.601  -2.786  -0.364  0.00  0.00    -0.275 OA
ATOM      3  N   UNL     1      -0.470  -2.366   1.498  0.00  0.00    -0.300 N 
ATOM      4  C   UNL     1       0.190  -1.520   2.520  0.00  0.00    +0.121 C 
ATOM      5  C   UNL     1      -0.165  -2.187   3.868  0.00  0.00    +0.100 C 
ATOM      6  C   UNL     1      -0.471  -3.651   3.513  0.00  0.00    -0.004 C 
ATOM      7  C   UNL     1      -0.286  -3.752   1.992  0.00  0.00    +0.115 C 
ATOM      8  C   UNL     1      -1.910  -3.996   3.886  0.00  0.00    -0.010 C 
ATOM      9  C   UNL     1      -2.173  -5.473   3.576  0.00  0.00    -0.082 C 
ATOM     10  N   UNL     1      -1.235  -6.308   4.335  0.00  0.00    +0.379 N 
ATOM     11  C   UNL     1       0.141  -6.036   3.904  0.00  0.00    -0.082 C 
ATOM     12  C   UNL     1       0.502  -4.583   4.227  0.00  0.00    -0.010 C 
ATOM     13  H   UNL     1      -1.324  -6.103   5.319  0.00  0.00    -0.086 HD
ATOM     14  H   UNL     1      -1.449  -7.281   4.177  0.00  0.00    -0.086 HD
ENDROOT
BRANCH   5  15
ATOM     15  C   UNL     1      -1.377  -1.528   4.476  0.00  0.00    +0.218 C 
ATOM     16  O   UNL     1      -2.260  -1.105   3.760  0.00  0.00    -0.275 OA
ATOM     17  N   UNL     1      -1.479  -1.408   5.814  0.00  0.00    -0.316 N 
ATOM     18  H   UNL     1      -0.772  -1.747   6.386  0.00  0.00    +0.149 HD
BRANCH  17  19
ATOM     19  C   UNL     1      -2.656  -0.767   6.405  0.00  0.00    +0.093 C 
BRANCH  19  20
ATOM     20  C   UNL     1      -2.466  -0.647   7.918  0.00  0.00    -0.021 C 
BRANCH  20  21
ATOM     21  C   UNL     1      -1.316   0.281   8.208  0.00  0.00    -0.059 A 
ATOM     22  C   UNL     1      -1.506   1.650   8.163  0.00  0.00    +0.005 A 
ATOM     23  C   UNL     1      -0.452   2.504   8.428  0.00  0.00    +0.046 A 
ATOM     24  C   UNL     1       0.797   1.987   8.739  0.00  0.00    +0.120 A 
ATOM     25  C   UNL     1       0.985   0.613   8.784  0.00  0.00    +0.046 A 
ATOM     26  C   UNL     1      -0.073  -0.236   8.524  0.00  0.00    +0.005 A 
BRANCH  24  27
ATOM     27  O   UNL     1       1.835   2.825   9.000  0.00  0.00    -0.495 OA
ATOM     28  C   UNL     1       3.092   2.222   9.313  0.00  0.00    +0.277 C 
ENDBRANCH  24  27
ENDBRANCH  20  21
BRANCH  20  29
ATOM     29  N   UNL     1      -3.692  -0.112   8.525  0.00  0.00    +0.382 N 
ATOM     30  C   UNL     1      -4.790  -1.070   8.337  0.00  0.00    -0.096 C 
ATOM     31  C   UNL     1      -3.473   0.106   9.961  0.00  0.00    -0.096 C 
ATOM     32  H   UNL     1      -3.931   0.763   8.084  0.00  0.00    -0.082 HD
ENDBRANCH  20  29
ENDBRANCH  19  20
ENDBRANCH  17  19
ENDBRANCH   5  15
BRANCH   1  33
ATOM     33  C   UNL     1      -1.185  -0.498   0.042  0.00  0.00    +0.075 C 
BRANCH  33  35
ATOM     34  C   UNL     1       0.146   1.588  -0.306  0.00  0.00    +0.004 C 
ATOM     35  C   UNL     1       0.227   0.073  -0.104  0.00  0.00    +0.009 C 
ENDBRANCH  33  35
BRANCH  33  36
ATOM     36  C   UNL     1      -1.946  -0.318  -1.273  0.00  0.00    +0.009 C 
ATOM     37  C   UNL     1      -3.406  -0.731  -1.077  0.00  0.00    +0.004 C 
ENDBRANCH  33  36
ENDBRANCH   1  33
TORSDOF 9
