REMARK  Name = ZINC21056736
REMARK  11 active torsions:
REMARK  status: ('A' for Active; 'I' for Inactive)
REMARK    1  A    between atoms: C_1  and  C_2
REMARK    2  A    between atoms: C_2  and  C_3
REMARK    3  A    between atoms: C_2  and  C_4
REMARK    4  A    between atoms: C_4  and  N_5
REMARK    5  A    between atoms: C_6  and  N_28
REMARK    6  A    between atoms: C_7  and  N_14
REMARK    7  A    between atoms: N_14  and  C_15
REMARK    8  A    between atoms: C_15  and  C_16
REMARK    9  A    between atoms: C_16  and  C_17
REMARK   10  A    between atoms: C_16  and  C_18
REMARK   11  A    between atoms: C_19  and  C_21
REMARK                            x       y       z     vdW  Elec       q    Type
REMARK                         _______ _______ _______ _____ _____    ______ ____
ROOT
ATOM      1  N   UNL     1       1.744   0.009   0.651  0.00  0.00    -0.280 N 
ATOM      2  C   UNL     1       1.479  -0.848   1.694  0.00  0.00    +0.127 A 
ATOM      3  C   UNL     1       0.601  -1.895   1.499  0.00  0.00    +0.140 A 
ATOM      4  C   UNL     1       0.003  -2.054   0.234  0.00  0.00    +0.277 A 
ATOM      5  O   UNL     1      -0.776  -2.970   0.034  0.00  0.00    -0.266 OA
ATOM      6  N   UNL     1       0.297  -1.186  -0.754  0.00  0.00    -0.273 N 
ATOM      7  H   UNL     1      -0.163  -1.305  -1.746  0.00  0.00    +0.173 HD
ATOM      8  C   UNL     1       1.151  -0.168  -0.543  0.00  0.00    +0.331 A 
ATOM      9  O   UNL     1       1.395   0.603  -1.451  0.00  0.00    -0.246 OA
ENDROOT
BRANCH   3  10
ATOM     10  N   UNL     1       0.309  -2.791   2.548  0.00  0.00    -0.260 N 
ATOM     11  C   UNL     1      -0.261  -2.338   3.682  0.00  0.00    +0.251 C 
ATOM     12  O   UNL     1      -0.465  -3.101   4.607  0.00  0.00    -0.270 OA
BRANCH  11  13
ATOM     13  C   UNL     1      -0.638  -0.914   3.801  0.00  0.00    +0.037 A 
ATOM     14  C   UNL     1      -0.886  -0.156   2.655  0.00  0.00    +0.014 A 
ATOM     15  C   UNL     1      -1.243   1.170   2.774  0.00  0.00    +0.016 A 
ATOM     16  C   UNL     1      -1.345   1.754   4.026  0.00  0.00    +0.018 A 
ATOM     17  C   UNL     1      -1.096   1.009   5.166  0.00  0.00    +0.016 A 
ATOM     18  C   UNL     1      -0.744  -0.321   5.061  0.00  0.00    +0.014 A 
ATOM     19 BR   UNL     1      -1.828   3.576   4.178  0.00  0.00    -0.050 Br
ENDBRANCH  11  13
BRANCH  10  20
ATOM     20  C   UNL     1       0.625  -4.215   2.405  0.00  0.00    +0.117 C 
BRANCH  20  21
ATOM     21  C   UNL     1       2.091  -4.451   2.777  0.00  0.00    +0.001 C 
ATOM     22  C   UNL     1       2.304  -4.109   4.253  0.00  0.00    +0.009 C 
ATOM     23  C   UNL     1       2.447  -5.920   2.537  0.00  0.00    +0.009 C 
ENDBRANCH  20  21
ENDBRANCH  10  20
ENDBRANCH   3  10
BRANCH   2  24
ATOM     24  N   UNL     1       2.081  -0.664   2.915  0.00  0.00    -0.343 N 
ATOM     25  H   UNL     1       1.865  -1.353   3.745  0.00  0.00    +0.144 HD
ATOM     26  H   UNL     1       2.780   0.172   3.064  0.00  0.00    +0.144 HD
ENDBRANCH   2  24
BRANCH   1  27
ATOM     27  C   UNL     1       2.674   1.125   0.844  0.00  0.00    +0.131 C 
BRANCH  27  29
ATOM     28  C   UNL     1       4.172   0.333  -0.991  0.00  0.00    +0.009 C 
ATOM     29  C   UNL     1       4.093   0.672   0.499  0.00  0.00    +0.003 C 
ATOM     30  C   UNL     1       5.080   1.797   0.819  0.00  0.00    +0.009 C 
ENDBRANCH  27  29
ENDBRANCH   1  27
TORSDOF 7
