REMARK  Name = ZINC06074731
REMARK  11 active torsions:
REMARK  status: ('A' for Active; 'I' for Inactive)
REMARK    1  A    between atoms: C_1  and  C_2
REMARK    2  A    between atoms: C_2  and  C_3
REMARK    3  A    between atoms: C_2  and  C_4
REMARK    4  A    between atoms: C_2  and  N_5
REMARK    5  A    between atoms: C_6  and  C_8
REMARK    6  A    between atoms: C_8  and  C_10
REMARK    7  A    between atoms: C_8  and  N_15
REMARK    8  A    between atoms: N_15  and  C_16
REMARK    9  A    between atoms: C_26  and  C_28
REMARK   10  A    between atoms: C_29  and  N_36
REMARK   11  A    between atoms: C_30  and  C_33
REMARK                            x       y       z     vdW  Elec       q    Type
REMARK                         _______ _______ _______ _____ _____    ______ ____
ROOT
ATOM      1  N   UNL     1       3.756  -0.446  -0.085  0.00  0.00    -0.250 N 
ATOM      2  C   UNL     1       4.961   0.154  -0.149  0.00  0.00    +0.262 C 
ATOM      3  O   UNL     1       5.033   1.365  -0.250  0.00  0.00    -0.269 OA
ENDROOT
BRANCH   1   4
ATOM      4  C   UNL     1       2.589   0.305  -0.268  0.00  0.00    +0.041 A 
ATOM      5  C   UNL     1       1.813   0.117  -1.404  0.00  0.00    +0.027 A 
ATOM      6  C   UNL     1       0.662   0.859  -1.586  0.00  0.00    +0.051 A 
ATOM      7  C   UNL     1       0.278   1.793  -0.635  0.00  0.00    +0.162 A 
ATOM      8  C   UNL     1       1.051   1.982   0.504  0.00  0.00    +0.164 A 
ATOM      9  C   UNL     1       2.207   1.238   0.685  0.00  0.00    +0.073 A 
ATOM     10  O   UNL     1       0.685   2.888   1.452  0.00  0.00    -0.485 OA
ATOM     11  C   UNL     1      -0.273   3.878   1.061  0.00  0.00    +0.270 C 
ATOM     12  C   UNL     1      -1.412   3.174   0.311  0.00  0.00    +0.270 C 
ATOM     13  O   UNL     1      -0.856   2.521  -0.836  0.00  0.00    -0.485 OA
ENDBRANCH   1   4
BRANCH   2  14
ATOM     14  C   UNL     1       6.183  -0.650  -0.098  0.00  0.00    +0.116 A 
ATOM     15  C   UNL     1       7.513  -0.234  -0.015  0.00  0.00    +0.076 A 
ATOM     16  C   UNL     1       8.407  -1.305   0.016  0.00  0.00    +0.155 A 
ATOM     17  N   UNL     1       7.941  -2.533  -0.043  0.00  0.00    -0.203 NA
ATOM     18  S   UNL     1       6.372  -2.421  -0.132  0.00  0.00    +0.019 S 
BRANCH  16  19
ATOM     19  C   UNL     1       9.858  -1.062   0.107  0.00  0.00    +0.262 C 
ATOM     20  O   UNL     1      10.282   0.076   0.160  0.00  0.00    -0.269 OA
ATOM     21  N   UNL     1      10.715  -2.102   0.130  0.00  0.00    -0.324 N 
ATOM     22  H   UNL     1      10.377  -3.010   0.088  0.00  0.00    +0.145 HD
ATOM     23  H   UNL     1      11.670  -1.942   0.190  0.00  0.00    +0.145 HD
ENDBRANCH  16  19
BRANCH  15  24
ATOM     24  N   UNL     1       7.904   1.097   0.034  0.00  0.00    -0.355 N 
ATOM     25  H   UNL     1       7.235   1.800   0.011  0.00  0.00    +0.142 HD
ATOM     26  H   UNL     1       8.845   1.325   0.091  0.00  0.00    +0.142 HD
ENDBRANCH  15  24
ENDBRANCH   2  14
BRANCH   1  27
ATOM     27  C   UNL     1       3.667  -1.885   0.177  0.00  0.00    +0.204 C 
BRANCH  27  28
ATOM     28  C   UNL     1       2.230  -2.326   0.078  0.00  0.00    +0.019 A 
ATOM     29  C   UNL     1       1.701  -3.365  -0.613  0.00  0.00    +0.013 A 
ATOM     30  C   UNL     1       0.338  -3.585  -0.554  0.00  0.00    +0.008 A 
ATOM     31  C   UNL     1      -0.432  -2.749   0.185  0.00  0.00    +0.045 A 
ATOM     32  S   UNL     1       0.780  -1.610   0.835  0.00  0.00    -0.099 S 
ENDBRANCH  27  28
BRANCH  27  34
ATOM     33  N   UNL     1       4.584  -3.424   1.882  0.00  0.00    -0.309 N 
ATOM     34  C   UNL     1       4.189  -2.177   1.560  0.00  0.00    +0.239 C 
ATOM     35  O   UNL     1       4.252  -1.289   2.384  0.00  0.00    -0.273 OA
ATOM     36  H   UNL     1       4.534  -4.134   1.223  0.00  0.00    +0.149 HD
BRANCH  33  38
ATOM     37  C   UNL     1       4.008  -3.386   4.258  0.00  0.00    +0.031 C 
ATOM     38  C   UNL     1       5.091  -3.708   3.227  0.00  0.00    +0.026 C 
ATOM     39  C   UNL     1       5.468  -5.188   3.328  0.00  0.00    +0.031 C 
ATOM     40  C   UNL     1       6.326  -2.847   3.499  0.00  0.00    +0.031 C 
ENDBRANCH  33  38
ENDBRANCH  27  34
ENDBRANCH   1  27
TORSDOF 8
