REMARK  Name = ZINC08941263
REMARK  9 active torsions:
REMARK  status: ('A' for Active; 'I' for Inactive)
REMARK    1  A    between atoms: C_1  and  C_2
REMARK    2  A    between atoms: C_2  and  C_3
REMARK    3  A    between atoms: C_3  and  C_5
REMARK    4  A    between atoms: C_3  and  C_6
REMARK    5  A    between atoms: C_6  and  C_7
REMARK    6  A    between atoms: C_8  and  C_33
REMARK    7  A    between atoms: C_16  and  S_18
REMARK    8  A    between atoms: S_18  and  C_19
REMARK    9  A    between atoms: C_19  and  C_20
REMARK                            x       y       z     vdW  Elec       q    Type
REMARK                         _______ _______ _______ _____ _____    ______ ____
ROOT
ATOM      1  C   UNL     1       6.683  -4.332  -0.086  0.00  0.00    -0.023 A 
ATOM      2  C   UNL     1       7.555  -3.313  -0.089  0.00  0.00    -0.007 A 
ATOM      3  S   UNL     1       6.507  -1.871  -0.071  0.00  0.00    -0.073 S 
ATOM      4  C   UNL     1       4.927  -2.679  -0.059  0.00  0.00    +0.117 A 
ATOM      5  C   UNL     1       5.259  -4.047  -0.070  0.00  0.00    +0.075 A 
ATOM      6  C   UNL     1       4.154  -4.956  -0.064  0.00  0.00    +0.261 A 
ATOM      7  O   UNL     1       4.344  -6.160  -0.072  0.00  0.00    -0.267 OA
ATOM      8  N   UNL     1       2.901  -4.464  -0.044  0.00  0.00    -0.301 N 
ATOM      9  H   UNL     1       2.150  -5.077  -0.036  0.00  0.00    +0.171 HD
ATOM     10  C   UNL     1       2.669  -3.119  -0.040  0.00  0.00    +0.170 A 
ATOM     11  N   UNL     1       3.668  -2.260  -0.045  0.00  0.00    -0.216 NA
ATOM     12  C   UNL     1       9.061  -3.373  -0.104  0.00  0.00    +0.052 C 
ENDROOT
BRANCH   1  13
ATOM     13  C   UNL     1       7.176  -5.756  -0.099  0.00  0.00    +0.040 C 
BRANCH  13  14
ATOM     14  C   UNL     1       7.357  -6.247   1.339  0.00  0.00    -0.010 C 
ATOM     15  C   UNL     1       8.467  -5.441   2.017  0.00  0.00    +0.008 C 
BRANCH  14  17
ATOM     16  C   UNL     1       7.795  -8.250   2.766  0.00  0.00    +0.004 C 
ATOM     17  C   UNL     1       7.736  -7.729   1.329  0.00  0.00    +0.000 C 
ENDBRANCH  14  17
ENDBRANCH  13  14
ENDBRANCH   1  13
BRANCH  10  18
ATOM     18  S   UNL     1       1.011  -2.524  -0.021  0.00  0.00    -0.078 S 
BRANCH  18  19
ATOM     19  C   UNL     1       1.317  -0.740  -0.015  0.00  0.00    +0.173 C 
BRANCH  19  20
ATOM     20  C   UNL     1       0.002  -0.004   0.002  0.00  0.00    +0.231 C 
ATOM     21  O   UNL     1      -1.040  -0.625   0.009  0.00  0.00    -0.274 OA
ATOM     22  N   UNL     1      -0.016   1.344   0.009  0.00  0.00    -0.260 N 
ATOM     23  C   UNL     1       1.233   2.119   0.002  0.00  0.00    +0.209 C 
ATOM     24  C   UNL     1       1.100   3.274   0.962  0.00  0.00    +0.235 C 
ATOM     25  O   UNL     1       2.088   3.712   1.512  0.00  0.00    -0.274 OA
ATOM     26  N   UNL     1      -0.102   3.825   1.215  0.00  0.00    -0.283 N 
ATOM     27  C   UNL     1      -1.263   3.308   0.632  0.00  0.00    +0.055 A 
ATOM     28  C   UNL     1      -1.228   2.051   0.019  0.00  0.00    +0.058 A 
ATOM     29  C   UNL     1      -2.368   1.525  -0.561  0.00  0.00    +0.025 A 
ATOM     30  C   UNL     1      -3.547   2.249  -0.539  0.00  0.00    +0.002 A 
ATOM     31  C   UNL     1      -3.586   3.495   0.059  0.00  0.00    +0.002 A 
ATOM     32  C   UNL     1      -2.447   4.027   0.652  0.00  0.00    +0.025 A 
ATOM     33  H   UNL     1      -0.163   4.590   1.809  0.00  0.00    +0.155 HD
ENDBRANCH  19  20
ENDBRANCH  18  19
ENDBRANCH  10  18
TORSDOF 6
