REMARK  Name = ZINC08343469
REMARK  8 active torsions:
REMARK  status: ('A' for Active; 'I' for Inactive)
REMARK    1  A    between atoms: C_1  and  C_2
REMARK    2  A    between atoms: C_2  and  C_3
REMARK    3  A    between atoms: C_3  and  N_4
REMARK    4  A    between atoms: C_13  and  C_15
REMARK    5  A    between atoms: N_17  and  N_18
REMARK    6  A    between atoms: C_21  and  C_28
REMARK    7  A    between atoms: C_24  and  C_26
REMARK    8  A    between atoms: C_24  and  C_27
REMARK                            x       y       z     vdW  Elec       q    Type
REMARK                         _______ _______ _______ _____ _____    ______ ____
ROOT
ATOM      1  N   UNL     1      -2.372   5.257  -0.085  0.00  0.00    -0.228 N 
ATOM      2  C   UNL     1      -2.475   3.924   0.098  0.00  0.00    +0.275 A 
ATOM      3  O   UNL     1      -3.559   3.371   0.050  0.00  0.00    -0.266 OA
ATOM      4  C   UNL     1      -1.250   3.155   0.356  0.00  0.00    +0.050 A 
ATOM      5  C   UNL     1      -1.249   1.778   0.551  0.00  0.00    +0.014 A 
ATOM      6  C   UNL     1      -0.056   1.131   0.793  0.00  0.00    +0.001 A 
ATOM      7  C   UNL     1       1.139   1.837   0.831  0.00  0.00    +0.001 A 
ATOM      8  C   UNL     1       1.160   3.201   0.635  0.00  0.00    +0.011 A 
ATOM      9  C   UNL     1      -0.033   3.874   0.395  0.00  0.00    +0.020 A 
ATOM     10  C   UNL     1      -0.098   5.328   0.175  0.00  0.00    +0.155 A 
ATOM     11  N   UNL     1      -1.262   5.891  -0.045  0.00  0.00    -0.163 NA
ENDROOT
BRANCH  10  12
ATOM     12  C   UNL     1       1.132   6.143   0.202  0.00  0.00    +0.284 C 
ATOM     13  O   UNL     1       2.208   5.614   0.407  0.00  0.00    -0.267 OA
ATOM     14  N   UNL     1       1.064   7.474  -0.001  0.00  0.00    -0.202 N 
ATOM     15  H   UNL     1       0.206   7.896  -0.165  0.00  0.00    +0.178 HD
BRANCH  14  16
ATOM     16  N   UNL     1       2.231   8.248   0.025  0.00  0.00    -0.189 NA
ATOM     17  C   UNL     1       2.157   9.522  -0.065  0.00  0.00    +0.038 C 
ATOM     18  C   UNL     1       0.816  10.223  -0.057  0.00  0.00    +0.055 C 
ATOM     19  C   UNL     1       0.858  11.334   1.004  0.00  0.00    -0.008 C 
ATOM     20  C   UNL     1       2.048  12.254   0.728  0.00  0.00    +0.010 C 
ATOM     21  C   UNL     1       3.354  11.471   0.874  0.00  0.00    -0.029 C 
ATOM     22  C   UNL     1       3.406  10.366  -0.186  0.00  0.00    +0.059 C 
ATOM     23  C   UNL     1       3.419  10.844   2.268  0.00  0.00    +0.011 C 
ATOM     24  C   UNL     1       4.540  12.418   0.684  0.00  0.00    +0.011 C 
ATOM     25  C   UNL     1      -0.439  12.144   0.943  0.00  0.00    +0.008 C 
ENDBRANCH  14  16
ENDBRANCH  10  12
BRANCH   1  26
ATOM     26  C   UNL     1      -3.597   6.018  -0.342  0.00  0.00    +0.147 C 
BRANCH  26  28
ATOM     27  C   UNL     1      -5.470   7.287   0.718  0.00  0.00    +0.005 C 
ATOM     28  C   UNL     1      -4.191   6.491   0.987  0.00  0.00    +0.020 C 
ENDBRANCH  26  28
ENDBRANCH   1  26
TORSDOF 4
