REMARK  Name = ZINC05395005
REMARK  5 active torsions:
REMARK  status: ('A' for Active; 'I' for Inactive)
REMARK    1  A    between atoms: C_5  and  N_7
REMARK    2  A    between atoms: N_7  and  C_8
REMARK    3  A    between atoms: C_8  and  C_10
REMARK    4  A    between atoms: C_8  and  C_21
REMARK    5  A    between atoms: C_19  and  O_20
REMARK                            x       y       z     vdW  Elec       q    Type
REMARK                         _______ _______ _______ _____ _____    ______ ____
ROOT
ATOM      1  C   UNL     1       2.468   3.909   0.001  0.00  0.00    +0.171 C 
ENDROOT
BRANCH   1   2
ATOM      2  C   UNL     1       1.142   3.198  -0.079  0.00  0.00    +0.024 A 
ATOM      3  C   UNL     1       1.103   1.809  -0.001  0.00  0.00    +0.010 A 
ATOM      4  C   UNL     1      -0.079   1.136  -0.069  0.00  0.00    +0.010 A 
ATOM      5  C   UNL     1      -1.278   1.851  -0.225  0.00  0.00    +0.004 A 
ATOM      6  C   UNL     1      -2.519   1.190  -0.306  0.00  0.00    +0.011 A 
ATOM      7  C   UNL     1      -3.644   1.949  -0.458  0.00  0.00    +0.020 A 
ATOM      8  C   UNL     1      -3.542   3.337  -0.530  0.00  0.00    +0.111 A 
ATOM      9  N   UNL     1      -2.386   3.948  -0.443  0.00  0.00    -0.251 NA
ATOM     10  C   UNL     1      -1.247   3.264  -0.299  0.00  0.00    +0.113 A 
ATOM     11  C   UNL     1      -0.004   3.927  -0.225  0.00  0.00    +0.148 A 
BRANCH  11  12
ATOM     12  O   UNL     1       0.053   5.282  -0.299  0.00  0.00    -0.504 OA
ATOM     13  H   UNL     1       0.149   5.623  -1.198  0.00  0.00    +0.292 HD
ENDBRANCH  11  12
ENDBRANCH   1   2
BRANCH   1  14
ATOM     14  C   UNL     1       2.750   4.289   1.431  0.00  0.00    +0.129 A 
ATOM     15  C   UNL     1       2.566   5.507   1.973  0.00  0.00    +0.047 A 
ATOM     16  C   UNL     1       2.955   5.415   3.329  0.00  0.00    +0.041 A 
ATOM     17  C   UNL     1       3.354   4.147   3.535  0.00  0.00    +0.195 A 
ATOM     18  O   UNL     1       3.222   3.468   2.384  0.00  0.00    -0.466 OA
ENDBRANCH   1  14
BRANCH   1  19
ATOM     19  N   UNL     1       3.527   3.022  -0.487  0.00  0.00    -0.329 N 
ATOM     20  H   UNL     1       3.402   2.061  -0.468  0.00  0.00    +0.147 HD
BRANCH  19  25
ATOM     21  C   UNL     1       6.079   5.468  -1.496  0.00  0.00    +0.002 A 
ATOM     22  C   UNL     1       7.078   4.630  -1.955  0.00  0.00    +0.002 A 
ATOM     23  C   UNL     1       6.902   3.259  -1.929  0.00  0.00    +0.022 A 
ATOM     24  C   UNL     1       5.727   2.722  -1.437  0.00  0.00    +0.062 A 
ATOM     25  C   UNL     1       4.719   3.562  -0.980  0.00  0.00    +0.046 A 
ATOM     26  C   UNL     1       4.900   4.939  -1.008  0.00  0.00    +0.024 A 
ATOM     27 CL   UNL     1       5.509   1.000  -1.397  0.00  0.00    -0.082 Cl
ENDBRANCH  19  25
ENDBRANCH   1  19
TORSDOF 5
