REMARK  Name = ZINC34747894
REMARK  8 active torsions:
REMARK  status: ('A' for Active; 'I' for Inactive)
REMARK    1  A    between atoms: C_1  and  C_2
REMARK    2  A    between atoms: C_5  and  C_9
REMARK    3  A    between atoms: C_6  and  C_8
REMARK    4  A    between atoms: C_9  and  N_10
REMARK    5  A    between atoms: N_28  and  C_29
REMARK    6  A    between atoms: C_29  and  C_30
REMARK    7  A    between atoms: C_32  and  C_37
REMARK    8  A    between atoms: C_35  and  C_36
REMARK                            x       y       z     vdW  Elec       q    Type
REMARK                         _______ _______ _______ _____ _____    ______ ____
ROOT
ATOM      1  N   UNL     1      -2.618  -4.207   1.763  0.00  0.00    +0.384 N 
ATOM      2  C   UNL     1      -3.510  -5.250   2.284  0.00  0.00    -0.059 C 
ATOM      3  C   UNL     1      -3.318  -6.536   1.473  0.00  0.00    +0.089 C 
ATOM      4  N   UNL     1      -3.515  -6.224   0.049  0.00  0.00    -0.304 N 
ATOM      5  C   UNL     1      -2.780  -5.083  -0.519  0.00  0.00    +0.089 C 
ATOM      6  C   UNL     1      -2.998  -3.866   0.386  0.00  0.00    -0.059 C 
ATOM      7  C   UNL     1      -4.362  -6.976  -0.728  0.00  0.00    +0.202 A 
ATOM      8  N   UNL     1      -5.212  -6.372  -1.532  0.00  0.00    -0.208 NA
ATOM      9  C   UNL     1      -6.042  -7.075  -2.295  0.00  0.00    +0.117 A 
ATOM     10  C   UNL     1      -6.056  -8.477  -2.284  0.00  0.00    +0.076 A 
ATOM     11  C   UNL     1      -7.029  -9.121  -3.181  0.00  0.00    -0.023 A 
ATOM     12  C   UNL     1      -7.803  -8.309  -3.920  0.00  0.00    -0.004 A 
ATOM     13  S   UNL     1      -7.298  -6.663  -3.476  0.00  0.00    -0.073 S 
ATOM     14  C   UNL     1      -8.753  -9.076  -4.801  0.00  0.00    +0.043 C 
ATOM     15  C   UNL     1      -8.178 -10.509  -4.835  0.00  0.00    +0.010 C 
ATOM     16  C   UNL     1      -7.408 -10.570  -3.502  0.00  0.00    +0.037 C 
ATOM     17  C   UNL     1      -5.122  -9.107  -1.402  0.00  0.00    +0.264 A 
ATOM     18  O   UNL     1      -5.064 -10.323  -1.327  0.00  0.00    -0.267 OA
ATOM     19  N   UNL     1      -4.305  -8.336  -0.659  0.00  0.00    -0.276 N 
ATOM     20  H   UNL     1      -1.667  -4.544   1.774  0.00  0.00    -0.081 HD
ENDROOT
BRANCH   1  21
ATOM     21  C   UNL     1      -2.722  -3.010   2.608  0.00  0.00    -0.043 C 
BRANCH  21  26
ATOM     22  C   UNL     1      -0.784  -4.227   7.914  0.00  0.00    +0.044 C 
ATOM     23  C   UNL     1      -1.290  -3.910   6.530  0.00  0.00    -0.050 A 
ATOM     24  C   UNL     1      -2.649  -3.891   6.278  0.00  0.00    +0.003 A 
ATOM     25  C   UNL     1      -3.112  -3.599   5.009  0.00  0.00    +0.002 A 
ATOM     26  C   UNL     1      -2.217  -3.326   3.992  0.00  0.00    -0.061 A 
ATOM     27  C   UNL     1      -0.858  -3.345   4.244  0.00  0.00    -0.049 A 
ATOM     28  C   UNL     1      -0.394  -3.632   5.514  0.00  0.00    +0.007 A 
ATOM     29  C   UNL     1       0.118  -3.048   3.135  0.00  0.00    +0.044 C 
ENDBRANCH  21  26
ENDBRANCH   1  21
BRANCH  19  30
ATOM     30  C   UNL     1      -3.342  -8.971   0.243  0.00  0.00    +0.163 C 
BRANCH  30  31
ATOM     31  C   UNL     1      -2.381  -9.811  -0.558  0.00  0.00    -0.024 A 
ATOM     32  C   UNL     1      -2.548 -11.182  -0.622  0.00  0.00    +0.009 A 
ATOM     33  C   UNL     1      -1.667 -11.952  -1.357  0.00  0.00    -0.050 A 
ATOM     34  C   UNL     1      -0.618 -11.352  -2.028  0.00  0.00    +0.003 A 
ATOM     35  C   UNL     1      -0.451  -9.981  -1.965  0.00  0.00    +0.004 A 
ATOM     36  C   UNL     1      -1.335  -9.210  -1.233  0.00  0.00    -0.046 A 
ATOM     37  C   UNL     1      -1.156  -7.715  -1.168  0.00  0.00    +0.044 C 
ATOM     38  C   UNL     1      -1.849 -13.447  -1.426  0.00  0.00    +0.044 C 
ENDBRANCH  30  31
ENDBRANCH  19  30
TORSDOF 4
