REMARK  Name = ZINC40510835
REMARK  5 active torsions:
REMARK  status: ('A' for Active; 'I' for Inactive)
REMARK    1  A    between atoms: C_1  and  C_2
REMARK    2  A    between atoms: C_6  and  N_12
REMARK    3  A    between atoms: C_13  and  C_15
REMARK    4  A    between atoms: C_15  and  C_16
REMARK    5  A    between atoms: C_19  and  N_22
REMARK                            x       y       z     vdW  Elec       q    Type
REMARK                         _______ _______ _______ _____ _____    ______ ____
ROOT
ATOM      1  N   UNL     1       0.074  -5.800  -1.246  0.00  0.00    -0.285 N 
ATOM      2  C   UNL     1       0.194  -6.941  -0.538  0.00  0.00    +0.222 C 
ATOM      3  O   UNL     1       0.199  -6.904   0.674  0.00  0.00    -0.275 OA
ATOM      4  H   UNL     1      -0.007  -5.836  -2.212  0.00  0.00    +0.155 HD
ENDROOT
BRANCH   1  10
ATOM      5  C   UNL     1       1.508  -0.434   3.660  0.00  0.00    +0.063 C 
ATOM      6  C   UNL     1       1.071  -1.357   2.552  0.00  0.00    +0.014 A 
ATOM      7  C   UNL     1       1.465  -2.633   2.411  0.00  0.00    +0.030 A 
ATOM      8  C   UNL     1       0.807  -3.155   1.211  0.00  0.00    +0.002 A 
ATOM      9  C   UNL     1       0.819  -4.390   0.559  0.00  0.00    +0.033 A 
ATOM     10  C   UNL     1       0.066  -4.564  -0.587  0.00  0.00    +0.034 A 
ATOM     11  C   UNL     1      -0.700  -3.513  -1.090  0.00  0.00    +0.025 A 
ATOM     12  C   UNL     1      -0.719  -2.293  -0.454  0.00  0.00    +0.028 A 
ATOM     13  C   UNL     1       0.032  -2.098   0.701  0.00  0.00    +0.047 A 
ATOM     14  N   UNL     1       0.211  -1.021   1.543  0.00  0.00    -0.358 N 
ATOM     15  H   UNL     1      -0.209  -0.153   1.435  0.00  0.00    +0.166 HD
ENDBRANCH   1  10
BRANCH   2  16
ATOM     16  C   UNL     1       0.322  -8.261  -1.252  0.00  0.00    +0.131 C 
BRANCH  16  17
ATOM     17  C   UNL     1       0.441  -9.371  -0.240  0.00  0.00    -0.038 A 
ATOM     18  C   UNL     1       1.686  -9.756   0.220  0.00  0.00    +0.006 A 
ATOM     19  C   UNL     1       1.796 -10.774   1.149  0.00  0.00    +0.033 A 
ATOM     20  C   UNL     1       0.659 -11.406   1.619  0.00  0.00    +0.126 A 
ATOM     21  C   UNL     1      -0.586 -11.021   1.159  0.00  0.00    +0.033 A 
ATOM     22  C   UNL     1      -0.696 -10.000   0.234  0.00  0.00    +0.006 A 
BRANCH  20  23
ATOM     23  N   UNL     1       0.777 -12.497   2.613  0.00  0.00    +0.056 N 
ATOM     24  O   UNL     1       1.866 -12.834   3.014  0.00  0.00    -0.126 OA
ATOM     25  O   UNL     1      -0.217 -13.050   3.023  0.00  0.00    -0.126 OA
ENDBRANCH  20  23
ENDBRANCH  16  17
ENDBRANCH   2  16
TORSDOF 4
