REMARK  Name = ZINC14550260
REMARK  8 active torsions:
REMARK  status: ('A' for Active; 'I' for Inactive)
REMARK    1  A    between atoms: C_1  and  C_2
REMARK    2  A    between atoms: C_4  and  C_36
REMARK    3  A    between atoms: C_6  and  N_8
REMARK    4  A    between atoms: N_8  and  S_9
REMARK    5  A    between atoms: S_9  and  C_12
REMARK    6  A    between atoms: C_25  and  C_28
REMARK    7  A    between atoms: C_32  and  O_34
REMARK    8  A    between atoms: O_34  and  C_35
REMARK                            x       y       z     vdW  Elec       q    Type
REMARK                         _______ _______ _______ _____ _____    ______ ____
ROOT
ATOM      1  C   UNL     1      -0.906   9.003   1.004  0.00  0.00    +0.109 A 
ATOM      2  C   UNL     1      -1.242   9.005  -0.338  0.00  0.00    +0.030 A 
ATOM      3  C   UNL     1      -1.646   7.839  -0.953  0.00  0.00    +0.025 A 
ATOM      4  C   UNL     1      -1.718   6.653  -0.232  0.00  0.00    +0.031 A 
ATOM      5  C   UNL     1      -1.363   6.655   1.121  0.00  0.00    -0.018 A 
ATOM      6  C   UNL     1      -0.969   7.827   1.729  0.00  0.00    +0.034 A 
ATOM      7  C   UNL     1      -1.410   5.364   1.842  0.00  0.00    +0.049 C 
ATOM      8  C   UNL     1      -1.616   5.290   3.311  0.00  0.00    -0.023 C 
ATOM      9  C   UNL     1      -2.263   4.166   3.592  0.00  0.00    -0.030 C 
ATOM     10  C   UNL     1      -2.573   3.404   2.302  0.00  0.00    +0.033 C 
ATOM     11  C   UNL     1      -2.604   4.537   1.272  0.00  0.00    +0.029 C 
ATOM     12  C   UNL     1      -2.212   4.195  -0.154  0.00  0.00    +0.105 C 
ATOM     13  N   UNL     1      -2.147   5.485  -0.874  0.00  0.00    -0.336 N 
ATOM     14  H   UNL     1      -2.406   5.523  -1.808  0.00  0.00    +0.147 HD
ENDROOT
BRANCH  12  15
ATOM     15  C   UNL     1      -0.865   3.519  -0.175  0.00  0.00    -0.024 A 
ATOM     16  C   UNL     1       0.286   4.275  -0.303  0.00  0.00    +0.006 A 
ATOM     17  C   UNL     1       1.523   3.658  -0.323  0.00  0.00    +0.004 A 
ATOM     18  C   UNL     1       1.612   2.284  -0.215  0.00  0.00    +0.045 A 
ATOM     19  C   UNL     1       0.460   1.523  -0.086  0.00  0.00    +0.120 A 
ATOM     20  C   UNL     1      -0.781   2.144  -0.072  0.00  0.00    +0.051 A 
BRANCH  19  21
ATOM     21  O   UNL     1       0.545   0.171   0.019  0.00  0.00    -0.495 OA
ATOM     22  C   UNL     1       1.854  -0.401  -0.009  0.00  0.00    +0.277 C 
ENDBRANCH  19  21
ENDBRANCH  12  15
BRANCH   1  23
ATOM     23  S   UNL     1      -0.400  10.497   1.788  0.00  0.00    +0.072 S 
ATOM     24  O   UNL     1       0.484  10.126   2.838  0.00  0.00    -0.150 OA
ATOM     25  O   UNL     1      -0.018  11.391   0.752  0.00  0.00    -0.150 OA
BRANCH  23  26
ATOM     26  N   UNL     1      -1.740  11.151   2.508  0.00  0.00    -0.216 N 
ATOM     27  H   UNL     1      -1.764  11.273   3.470  0.00  0.00    +0.174 HD
BRANCH  26  33
ATOM     28  C   UNL     1      -3.526  13.428  -1.465  0.00  0.00    +0.044 C 
ATOM     29  C   UNL     1      -3.732  12.632  -0.202  0.00  0.00    -0.048 A 
ATOM     30  C   UNL     1      -5.010  12.274   0.187  0.00  0.00    +0.006 A 
ATOM     31  C   UNL     1      -5.204  11.544   1.345  0.00  0.00    -0.048 A 
ATOM     32  C   UNL     1      -4.122  11.170   2.117  0.00  0.00    +0.028 A 
ATOM     33  C   UNL     1      -2.837  11.528   1.729  0.00  0.00    +0.049 A 
ATOM     34  C   UNL     1      -2.646  12.265   0.568  0.00  0.00    +0.028 A 
ATOM     35  C   UNL     1      -6.599  11.157   1.766  0.00  0.00    +0.044 C 
ENDBRANCH  26  33
ENDBRANCH  23  26
ENDBRANCH   1  23
TORSDOF 5
