REMARK  Name = ZINC00873402
REMARK  13 active torsions:
REMARK  status: ('A' for Active; 'I' for Inactive)
REMARK    1  A    between atoms: C_1  and  C_2
REMARK    2  A    between atoms: C_2  and  O_3
REMARK    3  A    between atoms: O_3  and  C_4
REMARK    4  A    between atoms: C_6  and  C_25
REMARK    5  A    between atoms: C_9  and  O_10
REMARK    6  A    between atoms: O_10  and  C_11
REMARK    7  A    between atoms: C_11  and  C_12
REMARK    8  A    between atoms: N_14  and  C_15
REMARK    9  A    between atoms: C_18  and  C_21
REMARK   10  A    between atoms: C_21  and  O_23
REMARK   11  A    between atoms: O_23  and  C_24
REMARK   12  A    between atoms: C_38  and  N_42
REMARK   13  A    between atoms: C_39  and  C_40
REMARK                            x       y       z     vdW  Elec       q    Type
REMARK                         _______ _______ _______ _____ _____    ______ ____
ROOT
ATOM      1  C   UNL     1       0.781  -1.812  -1.334  0.00  0.00    +0.162 A 
ATOM      2  C   UNL     1       0.254  -2.670  -0.382  0.00  0.00    +0.054 A 
ATOM      3  C   UNL     1       0.372  -4.038  -0.544  0.00  0.00    -0.031 A 
ATOM      4  C   UNL     1       1.016  -4.553  -1.654  0.00  0.00    +0.008 A 
ATOM      5  C   UNL     1       1.544  -3.702  -2.607  0.00  0.00    +0.050 A 
ATOM      6  C   UNL     1       1.424  -2.330  -2.454  0.00  0.00    +0.163 A 
ENDROOT
BRANCH   3   7
ATOM      7  C   UNL     1      -0.201  -4.970   0.493  0.00  0.00    +0.098 C 
ATOM      8  C   UNL     1      -1.241  -5.851  -0.150  0.00  0.00    +0.008 A 
ATOM      9  C   UNL     1      -2.502  -5.318  -0.425  0.00  0.00    +0.009 A 
ATOM     10  C   UNL     1      -3.477  -6.069  -1.004  0.00  0.00    +0.009 A 
ATOM     11  C   UNL     1      -3.219  -7.410  -1.335  0.00  0.00    -0.014 A 
ATOM     12  C   UNL     1      -4.202  -8.218  -1.933  0.00  0.00    +0.008 A 
ATOM     13  C   UNL     1      -3.915  -9.513  -2.237  0.00  0.00    +0.001 A 
ATOM     14  C   UNL     1      -2.659 -10.052  -1.965  0.00  0.00    +0.001 A 
ATOM     15  C   UNL     1      -1.683  -9.299  -1.388  0.00  0.00    +0.012 A 
ATOM     16  C   UNL     1      -1.943  -7.958  -1.060  0.00  0.00    +0.025 A 
ATOM     17  C   UNL     1      -0.953  -7.149  -0.459  0.00  0.00    +0.142 A 
ATOM     18  O   UNL     1       0.267  -7.678  -0.202  0.00  0.00    -0.440 OA
ATOM     19  C   UNL     1       1.074  -7.096   0.701  0.00  0.00    +0.199 C 
ATOM     20  C   UNL     1       0.902  -5.808   1.073  0.00  0.00    +0.098 C 
BRANCH  19  21
ATOM     21  N   UNL     1       2.096  -7.826   1.256  0.00  0.00    -0.328 N 
ATOM     22  H   UNL     1       2.228  -8.751   0.996  0.00  0.00    +0.145 HD
ATOM     23  H   UNL     1       2.686  -7.417   1.909  0.00  0.00    +0.145 HD
ENDBRANCH  19  21
BRANCH  20  24
ATOM     24  C   UNL     1       1.791  -5.234   2.038  0.00  0.00    +0.101 C 
ATOM     25  N   UNL     1       2.496  -4.778   2.803  0.00  0.00    -0.191 NA
ENDBRANCH  20  24
ENDBRANCH   3   7
BRANCH   1  26
ATOM     26  O   UNL     1       0.666  -0.466  -1.176  0.00  0.00    -0.489 OA
BRANCH  26  28
ATOM     27  C   UNL     1      -0.038   1.524   0.000  0.00  0.00    +0.048 C 
ATOM     28  C   UNL     1      -0.006  -0.005  -0.002  0.00  0.00    +0.226 C 
ENDBRANCH  26  28
ENDBRANCH   1  26
BRANCH   6  29
ATOM     29  O   UNL     1       1.938  -1.492  -3.394  0.00  0.00    -0.479 OA
BRANCH  29  30
ATOM     30  C   UNL     1       2.584  -2.095  -4.517  0.00  0.00    +0.325 C 
BRANCH  30  31
ATOM     31  C   UNL     1       3.086  -1.019  -5.444  0.00  0.00    +0.255 C 
ATOM     32  O   UNL     1       2.909   0.149  -5.171  0.00  0.00    -0.272 OA
ATOM     33  N   UNL     1       3.733  -1.355  -6.578  0.00  0.00    -0.283 N 
ATOM     34  H   UNL     1       3.934  -2.285  -6.765  0.00  0.00    +0.155 HD
BRANCH  33  35
ATOM     35  C   UNL     1       4.113  -0.364  -7.483  0.00  0.00    +0.034 A 
ATOM     36  C   UNL     1       4.524   0.880  -7.018  0.00  0.00    +0.024 A 
ATOM     37  C   UNL     1       4.900   1.860  -7.908  0.00  0.00    +0.017 A 
ATOM     38  C   UNL     1       4.869   1.603  -9.282  0.00  0.00    +0.059 A 
ATOM     39  C   UNL     1       4.455   0.351  -9.746  0.00  0.00    +0.017 A 
ATOM     40  C   UNL     1       4.085  -0.625  -8.850  0.00  0.00    +0.024 A 
BRANCH  38  41
ATOM     41  C   UNL     1       5.270   2.651 -10.239  0.00  0.00    +0.339 C 
ATOM     42  O   UNL     1       5.629   3.739  -9.834  0.00  0.00    -0.245 OA
BRANCH  41  43
ATOM     43  O   UNL     1       5.239   2.401 -11.563  0.00  0.00    -0.464 OA
ATOM     44  C   UNL     1       5.641   3.462 -12.433  0.00  0.00    +0.280 C 
ENDBRANCH  41  43
ENDBRANCH  38  41
ENDBRANCH  33  35
ENDBRANCH  30  31
ENDBRANCH  29  30
ENDBRANCH   6  29
TORSDOF 11
