REMARK  Name = ZINC20836762
REMARK  9 active torsions:
REMARK  status: ('A' for Active; 'I' for Inactive)
REMARK    1  A    between atoms: C_4  and  O_26
REMARK    2  A    between atoms: C_5  and  C_7
REMARK    3  A    between atoms: N_8  and  N_9
REMARK    4  A    between atoms: C_12  and  S_15
REMARK    5  A    between atoms: S_15  and  C_16
REMARK    6  A    between atoms: C_16  and  C_17
REMARK    7  A    between atoms: N_19  and  C_20
REMARK    8  A    between atoms: O_26  and  C_27
REMARK    9  A    between atoms: C_27  and  C_28
REMARK                            x       y       z     vdW  Elec       q    Type
REMARK                         _______ _______ _______ _____ _____    ______ ____
ROOT
ATOM      1  N   UNL     1       9.892   1.321   2.148  0.00  0.00    -0.205 N 
ATOM      2  C   UNL     1       8.567   1.451   1.757  0.00  0.00    +0.232 A 
ATOM      3  N   UNL     1       7.548   0.597   2.075  0.00  0.00    -0.186 NA
ATOM      4  C   UNL     1       6.403   1.074   1.501  0.00  0.00    +0.211 A 
ATOM      5  N   UNL     1       6.703   2.173   0.851  0.00  0.00    -0.144 NA
ATOM      6  N   UNL     1       8.073   2.414   1.018  0.00  0.00    -0.245 N 
ATOM      7  H   UNL     1      10.200   0.469   2.772  0.00  0.00    +0.177 HD
ATOM      8  H   UNL     1       8.728   3.219   0.652  0.00  0.00    +0.192 HD
ENDROOT
BRANCH   1  10
ATOM      9  C   UNL     1      12.077   2.153   2.115  0.00  0.00    +0.142 C 
ATOM     10  N   UNL     1      10.837   2.275   1.748  0.00  0.00    -0.187 NA
BRANCH   9  15
ATOM     11  C   UNL     1      15.332   3.971   1.689  0.00  0.00    +0.001 A 
ATOM     12  C   UNL     1      14.944   5.043   0.904  0.00  0.00    +0.004 A 
ATOM     13  C   UNL     1      13.626   5.180   0.510  0.00  0.00    +0.046 A 
ATOM     14  C   UNL     1      12.684   4.240   0.894  0.00  0.00    +0.130 A 
ATOM     15  C   UNL     1      13.072   3.156   1.694  0.00  0.00    +0.036 A 
ATOM     16  C   UNL     1      14.406   3.029   2.086  0.00  0.00    +0.013 A 
BRANCH  14  17
ATOM     17  O   UNL     1      11.390   4.370   0.502  0.00  0.00    -0.487 OA
BRANCH  17  18
ATOM     18  C   UNL     1      11.070   5.500  -0.312  0.00  0.00    +0.264 C 
BRANCH  18  19
ATOM     19  C   UNL     1       9.600   5.478  -0.645  0.00  0.00    -0.010 A 
ATOM     20  C   UNL     1       9.160   4.830  -1.784  0.00  0.00    +0.008 A 
ATOM     21  C   UNL     1       7.812   4.805  -2.088  0.00  0.00    +0.020 A 
ATOM     22  C   UNL     1       6.904   5.438  -1.257  0.00  0.00    +0.041 A 
ATOM     23  C   UNL     1       7.346   6.091  -0.120  0.00  0.00    +0.020 A 
ATOM     24  C   UNL     1       8.694   6.111   0.185  0.00  0.00    +0.008 A 
ATOM     25 CL   UNL     1       5.211   5.412  -1.641  0.00  0.00    -0.084 Cl
ENDBRANCH  18  19
ENDBRANCH  17  18
ENDBRANCH  14  17
ENDBRANCH   9  15
ENDBRANCH   1  10
BRANCH   4  26
ATOM     26  S   UNL     1       4.806   0.337   1.609  0.00  0.00    -0.075 S 
BRANCH  26  27
ATOM     27  C   UNL     1       3.745   1.447   0.644  0.00  0.00    +0.173 C 
BRANCH  27  28
ATOM     28  C   UNL     1       2.331   0.926   0.654  0.00  0.00    +0.224 C 
ATOM     29  O   UNL     1       2.066  -0.095   1.254  0.00  0.00    -0.275 OA
ATOM     30  N   UNL     1       1.362   1.593  -0.002  0.00  0.00    -0.312 N 
ATOM     31  H   UNL     1       1.602   2.518  -0.546  0.00  0.00    +0.149 HD
BRANCH  30  32
ATOM     32  C   UNL     1      -0.013   1.086   0.008  0.00  0.00    +0.073 C 
ATOM     33  C   UNL     1      -0.729   1.579   1.267  0.00  0.00    +0.022 C 
ATOM     34  C   UNL     1      -2.164   1.050   1.278  0.00  0.00    +0.002 C 
ATOM     35  C   UNL     1      -2.904   1.556   0.038  0.00  0.00    +0.000 C 
ATOM     36  C   UNL     1      -2.188   1.063  -1.221  0.00  0.00    +0.002 C 
ATOM     37  C   UNL     1      -0.753   1.593  -1.232  0.00  0.00    +0.022 C 
ENDBRANCH  30  32
ENDBRANCH  27  28
ENDBRANCH  26  27
ENDBRANCH   4  26
TORSDOF 9
