REMARK  Name = ZINC66978815
REMARK  8 active torsions:
REMARK  status: ('A' for Active; 'I' for Inactive)
REMARK    1  A    between atoms: C_1  and  C_2
REMARK    2  A    between atoms: C_2  and  C_3
REMARK    3  A    between atoms: C_2  and  C_4
REMARK    4  A    between atoms: C_2  and  N_13
REMARK    5  A    between atoms: N_6  and  C_7
REMARK    6  A    between atoms: N_16  and  C_17
REMARK    7  A    between atoms: C_17  and  C_18
REMARK    8  A    between atoms: C_18  and  O_28
REMARK                            x       y       z     vdW  Elec       q    Type
REMARK                         _______ _______ _______ _____ _____    ______ ____
ROOT
ATOM      1  N   UNL     1       0.947  -0.498  -1.317  0.00  0.00    -0.286 N 
ATOM      2  C   UNL     1       2.228  -0.125  -1.510  0.00  0.00    +0.301 C 
ATOM      3  O   UNL     1       2.778   0.597  -0.701  0.00  0.00    -0.253 OA
ATOM      4  N   UNL     1       2.897  -0.552  -2.598  0.00  0.00    -0.296 N 
ATOM      5  H   UNL     1       0.507  -1.075  -1.962  0.00  0.00    +0.151 HD
ATOM      6  H   UNL     1       2.458  -1.128  -3.243  0.00  0.00    +0.150 HD
ENDROOT
BRANCH   1   8
ATOM      7  C   UNL     1       0.161   1.494  -0.137  0.00  0.00    +0.041 C 
ATOM      8  C   UNL     1       0.219  -0.035  -0.133  0.00  0.00    +0.107 C 
ATOM      9  C   UNL     1       0.938  -0.515   1.129  0.00  0.00    +0.041 C 
BRANCH   8  10
ATOM     10  C   UNL     1      -1.182  -0.590  -0.156  0.00  0.00    +0.240 C 
ATOM     11  O   UNL     1      -1.729  -0.897   0.882  0.00  0.00    -0.273 OA
ATOM     12  N   UNL     1      -1.827  -0.746  -1.329  0.00  0.00    -0.284 N 
ATOM     13  H   UNL     1      -1.416  -0.438  -2.153  0.00  0.00    +0.155 HD
BRANCH  12  14
ATOM     14  C   UNL     1      -3.088  -1.350  -1.360  0.00  0.00    +0.033 A 
ATOM     15  C   UNL     1      -3.446  -2.159  -2.430  0.00  0.00    +0.023 A 
ATOM     16  C   UNL     1      -4.692  -2.755  -2.457  0.00  0.00    +0.002 A 
ATOM     17  C   UNL     1      -5.582  -2.546  -1.420  0.00  0.00    +0.000 A 
ATOM     18  C   UNL     1      -5.229  -1.741  -0.353  0.00  0.00    +0.002 A 
ATOM     19  C   UNL     1      -3.982  -1.148  -0.317  0.00  0.00    +0.023 A 
ENDBRANCH  12  14
ENDBRANCH   8  10
ENDBRANCH   1   8
BRANCH   4  20
ATOM     20  C   UNL     1       4.289  -0.146  -2.808  0.00  0.00    +0.145 C 
BRANCH  20  21
ATOM     21  C   UNL     1       4.772  -0.659  -4.166  0.00  0.00    +0.107 C 
ATOM     22  C   UNL     1       4.645  -2.181  -4.202  0.00  0.00    +0.041 C 
ATOM     23  C   UNL     1       5.331  -2.693  -5.475  0.00  0.00    +0.008 C 
ATOM     24  C   UNL     1       6.838  -2.500  -5.320  0.00  0.00    +0.035 C 
ATOM     25  C   UNL     1       7.152  -1.085  -4.908  0.00  0.00    -0.041 A 
ATOM     26  C   UNL     1       6.204  -0.241  -4.375  0.00  0.00    -0.011 A 
ATOM     27  C   UNL     1       6.561   1.050  -4.010  0.00  0.00    +0.007 A 
ATOM     28  C   UNL     1       7.855   1.495  -4.180  0.00  0.00    +0.000 A 
ATOM     29  C   UNL     1       8.806   0.649  -4.720  0.00  0.00    +0.000 A 
ATOM     30  C   UNL     1       8.454  -0.635  -5.081  0.00  0.00    +0.004 A 
BRANCH  21  31
ATOM     31  O   UNL     1       3.961  -0.095  -5.198  0.00  0.00    -0.382 OA
ATOM     32  H   UNL     1       3.983   0.871  -5.232  0.00  0.00    +0.211 HD
ENDBRANCH  21  31
ENDBRANCH  20  21
ENDBRANCH   4  20
TORSDOF 6
