REMARK  Name = ZINC09279533
REMARK  12 active torsions:
REMARK  status: ('A' for Active; 'I' for Inactive)
REMARK    1  A    between atoms: C_1  and  O_2
REMARK    2  A    between atoms: O_2  and  C_3
REMARK    3  A    between atoms: C_3  and  C_4
REMARK    4  A    between atoms: C_4  and  N_5
REMARK    5  A    between atoms: N_14  and  C_15
REMARK    6  A    between atoms: C_15  and  C_17
REMARK    7  A    between atoms: C_20  and  S_23
REMARK    8  A    between atoms: S_23  and  N_26
REMARK    9  A    between atoms: N_26  and  C_27
REMARK   10  A    between atoms: N_26  and  C_30
REMARK   11  A    between atoms: C_27  and  C_28
REMARK   12  A    between atoms: C_30  and  C_31
REMARK                            x       y       z     vdW  Elec       q    Type
REMARK                         _______ _______ _______ _____ _____    ______ ____
ROOT
ATOM      1  C   UNL     1      -4.188   1.609  -0.652  0.00  0.00    +0.269 C 
ATOM      2  O   UNL     1      -4.535   2.002  -1.753  0.00  0.00    -0.268 OA
ENDROOT
BRANCH   1  12
ATOM      3  N   UNL     1      -0.628   1.546  -1.239  0.00  0.00    -0.319 N 
ATOM      4  C   UNL     1       0.166   1.857  -2.328  0.00  0.00    +0.058 A 
ATOM      5  C   UNL     1       1.564   1.786  -2.434  0.00  0.00    +0.028 A 
ATOM      6  C   UNL     1       2.199   2.130  -3.604  0.00  0.00    +0.022 A 
ATOM      7  C   UNL     1       1.482   2.551  -4.713  0.00  0.00    +0.042 A 
ATOM      8  C   UNL     1       0.102   2.626  -4.637  0.00  0.00    +0.037 A 
ATOM      9  C   UNL     1      -0.533   2.282  -3.467  0.00  0.00    +0.040 A 
ATOM     10  S   UNL     1      -2.229   2.232  -2.946  0.00  0.00    -0.052 S 
ATOM     11  C   UNL     1      -1.980   1.673  -1.323  0.00  0.00    +0.167 A 
ATOM     12  N   UNL     1      -2.890   1.427  -0.387  0.00  0.00    -0.152 NA
ATOM     13 CL   UNL     1       2.305   2.982  -6.179  0.00  0.00    -0.084 Cl
BRANCH   3  14
ATOM     14  C   UNL     1      -0.013   1.086   0.008  0.00  0.00    +0.152 C 
BRANCH  14  15
ATOM     15  C   UNL     1      -0.783   1.660   1.199  0.00  0.00    +0.181 C 
BRANCH  15  17
ATOM     16  C   UNL     1      -0.746   1.814   3.591  0.00  0.00    +0.194 C 
ATOM     17  O   UNL     1      -0.105   1.323   2.411  0.00  0.00    -0.381 OA
ENDBRANCH  15  17
ENDBRANCH  14  15
ENDBRANCH   3  14
ENDBRANCH   1  12
BRANCH   1  18
ATOM     18  C   UNL     1      -5.203   1.335   0.391  0.00  0.00    +0.039 A 
ATOM     19  C   UNL     1      -4.808   0.881   1.649  0.00  0.00    +0.015 A 
ATOM     20  C   UNL     1      -5.758   0.632   2.619  0.00  0.00    +0.029 A 
ATOM     21  C   UNL     1      -7.100   0.823   2.342  0.00  0.00    +0.106 A 
ATOM     22  C   UNL     1      -7.498   1.268   1.094  0.00  0.00    +0.029 A 
ATOM     23  C   UNL     1      -6.557   1.525   0.117  0.00  0.00    +0.015 A 
BRANCH  21  24
ATOM     24  S   UNL     1      -8.307   0.496   3.583  0.00  0.00    +0.061 S 
ATOM     25  O   UNL     1      -7.645   0.613   4.834  0.00  0.00    -0.153 OA
ATOM     26  O   UNL     1      -9.451   1.272   3.251  0.00  0.00    -0.153 OA
BRANCH  24  27
ATOM     27  N   UNL     1      -8.752  -1.091   3.428  0.00  0.00    -0.169 NA
BRANCH  27  28
ATOM     28  C   UNL     1      -8.028  -2.130   4.166  0.00  0.00    +0.136 C 
BRANCH  28  29
ATOM     29  C   UNL     1      -8.752  -2.427   5.454  0.00  0.00    -0.018 C 
ATOM     30  C   UNL     1      -9.114  -3.654   5.734  0.00  0.00    +0.005 C 
ENDBRANCH  28  29
ENDBRANCH  27  28
BRANCH  27  31
ATOM     31  C   UNL     1      -9.868  -1.457   2.553  0.00  0.00    +0.136 C 
BRANCH  31  32
ATOM     32  C   UNL     1      -9.337  -1.848   1.198  0.00  0.00    -0.018 C 
ATOM     33  C   UNL     1      -9.645  -3.013   0.685  0.00  0.00    +0.005 C 
ENDBRANCH  31  32
ENDBRANCH  27  31
ENDBRANCH  24  27
ENDBRANCH  21  24
ENDBRANCH   1  18
TORSDOF 11
