REMARK  Name = ZINC05051284
REMARK  11 active torsions:
REMARK  status: ('A' for Active; 'I' for Inactive)
REMARK    1  A    between atoms: C_1  and  C_2
REMARK    2  A    between atoms: C_5  and  N_8
REMARK    3  A    between atoms: N_8  and  C_9
REMARK    4  A    between atoms: C_10  and  C_31
REMARK    5  A    between atoms: C_11  and  C_22
REMARK    6  A    between atoms: C_13  and  C_19
REMARK    7  A    between atoms: C_15  and  C_17
REMARK    8  A    between atoms: C_15  and  O_18
REMARK    9  A    between atoms: C_19  and  C_21
REMARK   10  A    between atoms: C_26  and  N_28
REMARK   11  A    between atoms: C_31  and  C_33
REMARK                            x       y       z     vdW  Elec       q    Type
REMARK                         _______ _______ _______ _____ _____    ______ ____
ROOT
ATOM      1  C   UNL     1       2.979  -4.933  -0.993  0.00  0.00    +0.018 C 
ATOM      2  C   UNL     1       2.758  -3.609  -1.044  0.00  0.00    +0.020 C 
ATOM      3  C   UNL     1       2.635  -2.743   0.176  0.00  0.00    +0.067 C 
ATOM      4  C   UNL     1       2.365  -3.608   1.409  0.00  0.00    +0.098 C 
ATOM      5  C   UNL     1       3.398  -4.740   1.449  0.00  0.00    +0.079 C 
ATOM      6  C   UNL     1       3.115  -5.699   0.291  0.00  0.00    +0.086 C 
ATOM      7  C   UNL     1       4.805  -4.158   1.301  0.00  0.00    +0.042 C 
ENDROOT
BRANCH   3   8
ATOM      8  C   UNL     1       1.498  -1.772  -0.012  0.00  0.00    -0.037 A 
ATOM      9  C   UNL     1       0.229  -2.241  -0.294  0.00  0.00    +0.004 A 
ATOM     10  C   UNL     1      -0.814  -1.350  -0.466  0.00  0.00    +0.003 A 
ATOM     11  C   UNL     1      -0.589   0.009  -0.351  0.00  0.00    +0.033 A 
ATOM     12  C   UNL     1       0.682   0.477  -0.075  0.00  0.00    +0.126 A 
ATOM     13  C   UNL     1       1.725  -0.413   0.097  0.00  0.00    +0.037 A 
BRANCH  12  14
ATOM     14  N   UNL     1       0.925   1.933   0.042  0.00  0.00    +0.056 N 
ATOM     15  O   UNL     1       2.043   2.346   0.291  0.00  0.00    -0.126 OA
ATOM     16  O   UNL     1       0.007   2.718  -0.115  0.00  0.00    -0.126 OA
ENDBRANCH  12  14
ENDBRANCH   3   8
BRANCH   4  17
ATOM     17  C   UNL     1       2.490  -2.767   2.654  0.00  0.00    +0.137 C 
ATOM     18  O   UNL     1       3.175  -1.772   2.644  0.00  0.00    -0.297 OA
ATOM     19  C   UNL     1       1.759  -3.166   3.909  0.00  0.00    +0.086 C 
ENDBRANCH   4  17
BRANCH   2  20
ATOM     20  C   UNL     1       2.635  -3.004  -2.303  0.00  0.00    +0.158 C 
ATOM     21  O   UNL     1       1.687  -3.271  -3.015  0.00  0.00    -0.293 OA
ATOM     22  C   UNL     1       3.679  -2.024  -2.773  0.00  0.00    +0.091 C 
ENDBRANCH   2  20
BRANCH   1  23
ATOM     23  N   UNL     1       3.085  -5.616  -2.168  0.00  0.00    -0.317 N 
ATOM     24  H   UNL     1       2.343  -5.626  -2.792  0.00  0.00    +0.152 HD
BRANCH  23  29
ATOM     25  C   UNL     1       7.870  -8.396  -3.409  0.00  0.00    +0.044 C 
ATOM     26  C   UNL     1       6.599  -7.658  -3.079  0.00  0.00    -0.050 A 
ATOM     27  C   UNL     1       5.478  -7.827  -3.870  0.00  0.00    +0.005 A 
ATOM     28  C   UNL     1       4.311  -7.152  -3.571  0.00  0.00    +0.023 A 
ATOM     29  C   UNL     1       4.264  -6.301  -2.474  0.00  0.00    +0.031 A 
ATOM     30  C   UNL     1       5.394  -6.130  -1.683  0.00  0.00    +0.023 A 
ATOM     31  C   UNL     1       6.556  -6.813  -1.985  0.00  0.00    +0.005 A 
ENDBRANCH  23  29
ENDBRANCH   1  23
BRANCH   5  32
ATOM     32  O   UNL     1       3.297  -5.443   2.689  0.00  0.00    -0.388 OA
ATOM     33  H   UNL     1       3.916  -6.181   2.774  0.00  0.00    +0.210 HD
ENDBRANCH   5  32
TORSDOF 7
