REMARK  Name = ZINC40826817
REMARK  10 active torsions:
REMARK  status: ('A' for Active; 'I' for Inactive)
REMARK    1  A    between atoms: C_1  and  C_2
REMARK    2  A    between atoms: C_4  and  C_38
REMARK    3  A    between atoms: C_10  and  C_11
REMARK    4  A    between atoms: C_11  and  C_12
REMARK    5  A    between atoms: N_14  and  N_15
REMARK    6  A    between atoms: C_22  and  C_37
REMARK    7  A    between atoms: C_23  and  C_25
REMARK    8  A    between atoms: C_30  and  C_33
REMARK    9  A    between atoms: C_33  and  O_35
REMARK   10  A    between atoms: O_35  and  C_36
REMARK                            x       y       z     vdW  Elec       q    Type
REMARK                         _______ _______ _______ _____ _____    ______ ____
ROOT
ATOM      1  N   UNL     1       3.228  -7.082  -2.083  0.00  0.00    -0.184 NA
ATOM      2  C   UNL     1       3.482  -8.112  -2.830  0.00  0.00    +0.070 C 
ATOM      3  C   UNL     1       2.384  -8.992  -3.407  0.00  0.00    +0.058 C 
ATOM      4  C   UNL     1       2.819 -10.455  -3.269  0.00  0.00    +0.014 C 
ATOM      5  C   UNL     1       4.063 -10.731  -4.118  0.00  0.00    +0.075 C 
ATOM      6  C   UNL     1       5.133  -9.724  -3.779  0.00  0.00    +0.115 A 
ATOM      7  C   UNL     1       4.861  -8.512  -3.188  0.00  0.00    +0.042 A 
ATOM      8  C   UNL     1       6.078  -7.839  -3.025  0.00  0.00    +0.009 A 
ATOM      9  C   UNL     1       7.042  -8.665  -3.533  0.00  0.00    +0.193 A 
ATOM     10  O   UNL     1       6.447  -9.799  -3.976  0.00  0.00    -0.454 OA
ATOM     11  C   UNL     1       6.284  -6.476  -2.415  0.00  0.00    +0.048 C 
ENDROOT
BRANCH   9  12
ATOM     12  C   UNL     1       8.480  -8.377  -3.578  0.00  0.00    +0.282 C 
ATOM     13  O   UNL     1       8.921  -7.390  -3.020  0.00  0.00    -0.267 OA
ATOM     14  N   UNL     1       9.313  -9.206  -4.239  0.00  0.00    -0.295 N 
ATOM     15  C   UNL     1      10.745  -8.897  -4.349  0.00  0.00    +0.109 C 
ATOM     16  C   UNL     1      11.144  -8.930  -5.827  0.00  0.00    +0.033 C 
ATOM     17  C   UNL     1      10.744 -10.279  -6.430  0.00  0.00    +0.101 C 
ATOM     18  C   UNL     1       9.227 -10.451  -6.335  0.00  0.00    +0.033 C 
ATOM     19  C   UNL     1       8.806 -10.438  -4.858  0.00  0.00    +0.109 C 
BRANCH  17  20
ATOM     20  C   UNL     1      11.166 -10.328  -7.875  0.00  0.00    +0.310 C 
ATOM     21  O   UNL     1      11.729  -9.382  -8.373  0.00  0.00    -0.251 OA
BRANCH  20  22
ATOM     22  O   UNL     1      10.917 -11.423  -8.610  0.00  0.00    -0.468 OA
ATOM     23  C   UNL     1      11.345 -11.401  -9.974  0.00  0.00    +0.280 C 
ENDBRANCH  20  22
ENDBRANCH  17  20
ENDBRANCH   9  12
BRANCH   1  26
ATOM     24  C   UNL     1       1.638  -5.680  -0.999  0.00  0.00    +0.237 C 
ATOM     25  O   UNL     1       2.548  -5.005  -0.567  0.00  0.00    -0.274 OA
ATOM     26  N   UNL     1       1.902  -6.749  -1.776  0.00  0.00    -0.206 N 
ATOM     27  H   UNL     1       1.174  -7.289  -2.122  0.00  0.00    +0.177 HD
BRANCH  24  28
ATOM     28  C   UNL     1       0.212  -5.322  -0.669  0.00  0.00    +0.136 C 
BRANCH  28  38
ATOM     29  C   UNL     1       0.936  -2.854   5.722  0.00  0.00    +0.044 C 
ATOM     30  C   UNL     1       0.753  -3.266   4.283  0.00  0.00    -0.047 A 
ATOM     31  C   UNL     1       0.875  -4.603   3.931  0.00  0.00    +0.007 A 
ATOM     32  C   UNL     1       0.712  -4.994   2.631  0.00  0.00    -0.039 A 
ATOM     33  C   UNL     1       0.423  -4.042   1.654  0.00  0.00    +0.027 A 
ATOM     34  C   UNL     1       0.299  -2.687   2.005  0.00  0.00    +0.136 A 
ATOM     35  C   UNL     1       0.462  -2.312   3.332  0.00  0.00    +0.050 A 
ATOM     36  O   UNL     1       0.021  -2.005   0.875  0.00  0.00    -0.463 OA
ATOM     37  C   UNL     1      -0.042  -2.834  -0.182  0.00  0.00    +0.200 A 
ATOM     38  C   UNL     1       0.191  -4.095   0.206  0.00  0.00    +0.007 A 
ATOM     39  C   UNL     1       0.846  -6.447   2.256  0.00  0.00    +0.044 C 
ENDBRANCH  28  38
ENDBRANCH  24  28
ENDBRANCH   1  26
TORSDOF 6
