REMARK  Name = ZINC00405063
REMARK  5 active torsions:
REMARK  status: ('A' for Active; 'I' for Inactive)
REMARK    1  A    between atoms: C_1  and  C_2
REMARK    2  A    between atoms: C_6  and  C_9
REMARK    3  A    between atoms: C_9  and  C_10
REMARK    4  A    between atoms: C_9  and  C_11
REMARK    5  A    between atoms: C_9  and  C_12
REMARK                            x       y       z     vdW  Elec       q    Type
REMARK                         _______ _______ _______ _____ _____    ______ ____
ROOT
ATOM      1  C   UNL     1      -2.052   4.529   3.553  0.00  0.00    +0.069 C 
ATOM      2  C   UNL     1      -1.602   3.316   2.780  0.00  0.00    +0.081 A 
ATOM      3  C   UNL     1      -1.786   2.028   3.130  0.00  0.00    +0.160 A 
ATOM      4  N   UNL     1      -1.240   1.255   2.180  0.00  0.00    -0.122 N 
ATOM      5  O   UNL     1      -1.227  -0.161   2.184  0.00  0.00    -0.163 OA
ATOM      6  C   UNL     1      -0.724   2.012   1.250  0.00  0.00    +0.176 A 
ATOM      7  N   UNL     1      -0.924   3.312   1.591  0.00  0.00    -0.119 N 
ATOM      8  O   UNL     1      -0.512   4.449   0.854  0.00  0.00    -0.162 OA
ENDROOT
BRANCH   6   9
ATOM      9  C   UNL     1      -0.019   1.526   0.010  0.00  0.00    +0.025 C 
ATOM     10  C   UNL     1       0.002  -0.004   0.002  0.00  0.00    +0.019 C 
ATOM     11  C   UNL     1       1.417   2.055  -0.000  0.00  0.00    +0.019 C 
ATOM     12  C   UNL     1      -0.759   2.033  -1.229  0.00  0.00    +0.019 C 
ENDBRANCH   6   9
TORSDOF 1
