REMARK  Name = ZINC14535324
REMARK  9 active torsions:
REMARK  status: ('A' for Active; 'I' for Inactive)
REMARK    1  A    between atoms: C_1  and  C_2
REMARK    2  A    between atoms: C_5  and  C_7
REMARK    3  A    between atoms: C_7  and  N_8
REMARK    4  A    between atoms: C_9  and  C_11
REMARK    5  A    between atoms: N_14  and  C_16
REMARK    6  A    between atoms: C_19  and  N_22
REMARK    7  A    between atoms: N_22  and  C_23
REMARK    8  A    between atoms: N_26  and  C_29
REMARK    9  A    between atoms: C_29  and  C_30
REMARK                            x       y       z     vdW  Elec       q    Type
REMARK                         _______ _______ _______ _____ _____    ______ ____
ROOT
ATOM      1  C   UNL     1       3.111  -5.030  -3.058  0.00  0.00    +0.150 A 
ATOM      2  C   UNL     1       3.943  -6.080  -3.482  0.00  0.00    +0.007 A 
ATOM      3  C   UNL     1       3.922  -6.047  -4.838  0.00  0.00    +0.043 A 
ATOM      4  N   UNL     1       3.117  -5.034  -5.198  0.00  0.00    -0.270 N 
ATOM      5  N   UNL     1       2.646  -4.451  -4.151  0.00  0.00    -0.166 NA
ATOM      6  C   UNL     1       2.816  -4.652  -6.580  0.00  0.00    +0.172 C 
ATOM      7  C   UNL     1       4.689  -7.005  -5.713  0.00  0.00    +0.057 C 
ATOM      8  C   UNL     1       5.763  -7.688  -4.857  0.00  0.00    +0.025 C 
ATOM      9  C   UNL     1       5.128  -8.237  -3.576  0.00  0.00    +0.059 C 
ATOM     10  C   UNL     1       4.723  -7.071  -2.664  0.00  0.00    +0.058 C 
ENDROOT
BRANCH   1  12
ATOM     11  N   UNL     1       1.983  -3.620  -1.407  0.00  0.00    -0.303 N 
ATOM     12  C   UNL     1       2.810  -4.653  -1.662  0.00  0.00    +0.265 C 
ATOM     13  O   UNL     1       3.308  -5.274  -0.743  0.00  0.00    -0.268 OA
ATOM     14  H   UNL     1       1.586  -3.124  -2.140  0.00  0.00    +0.150 HD
BRANCH  11  15
ATOM     15  C   UNL     1       1.684  -3.245  -0.023  0.00  0.00    +0.179 C 
BRANCH  15  20
ATOM     16  C   UNL     1      -0.018   1.503   0.010  0.00  0.00    +0.086 C 
ATOM     17  C   UNL     1       0.002  -0.004   0.002  0.00  0.00    +0.102 A 
ATOM     18  C   UNL     1      -1.078  -0.805   0.003  0.00  0.00    +0.045 A 
ATOM     19  C   UNL     1      -0.601  -2.136  -0.007  0.00  0.00    +0.046 A 
ATOM     20  C   UNL     1       0.742  -2.069  -0.013  0.00  0.00    +0.122 A 
ATOM     21  O   UNL     1       1.102  -0.775  -0.013  0.00  0.00    -0.463 OA
ENDBRANCH  15  20
ENDBRANCH  11  15
ENDBRANCH   1  12
BRANCH   9  22
ATOM     22  N   UNL     1       6.096  -9.092  -2.878  0.00  0.00    -0.310 NA
ATOM     23  H   UNL     1       7.026  -8.705  -2.932  0.00  0.00    +0.122 HD
BRANCH  22  24
ATOM     24  C   UNL     1       6.066 -10.463  -3.406  0.00  0.00    +0.050 C 
ATOM     25  C   UNL     1       4.966 -11.260  -2.699  0.00  0.00    -0.000 C 
ATOM     26  C   UNL     1       4.991 -12.707  -3.196  0.00  0.00    -0.077 C 
ATOM     27  N   UNL     1       6.298 -13.306  -2.901  0.00  0.00    +0.382 N 
ATOM     28  C   UNL     1       7.351 -12.591  -3.634  0.00  0.00    -0.077 C 
ATOM     29  C   UNL     1       7.416 -11.139  -3.153  0.00  0.00    -0.000 C 
ATOM     30  H   UNL     1       6.479 -13.246  -1.911  0.00  0.00    -0.081 HD
BRANCH  27  31
ATOM     31  C   UNL     1       6.292 -14.717  -3.310  0.00  0.00    -0.043 C 
BRANCH  31  32
ATOM     32  C   UNL     1       7.588 -15.365  -2.897  0.00  0.00    -0.064 A 
ATOM     33  C   UNL     1       8.670 -15.356  -3.757  0.00  0.00    +0.002 A 
ATOM     34  C   UNL     1       9.859 -15.951  -3.379  0.00  0.00    +0.000 A 
ATOM     35  C   UNL     1       9.966 -16.555  -2.140  0.00  0.00    +0.000 A 
ATOM     36  C   UNL     1       8.884 -16.564  -1.280  0.00  0.00    +0.000 A 
ATOM     37  C   UNL     1       7.696 -15.965  -1.657  0.00  0.00    +0.002 A 
ENDBRANCH  31  32
ENDBRANCH  27  31
ENDBRANCH  22  24
ENDBRANCH   9  22
TORSDOF 7
