REMARK  Name = ZINC39467286
REMARK  6 active torsions:
REMARK  status: ('A' for Active; 'I' for Inactive)
REMARK    1  A    between atoms: C_1  and  S_2
REMARK    2  A    between atoms: S_2  and  C_3
REMARK    3  A    between atoms: P_12  and  C_30
REMARK    4  A    between atoms: C_20  and  S_21
REMARK    5  A    between atoms: S_21  and  C_24
REMARK    6  A    between atoms: C_35  and  O_36
REMARK                            x       y       z     vdW  Elec       q    Type
REMARK                         _______ _______ _______ _____ _____    ______ ____
ROOT
ATOM      1  C   UNL     1      -1.702  -0.454   0.016  0.00  0.00    +0.029 C 
ATOM      2  C   UNL     1      -2.648   0.493   0.024  0.00  0.00    -0.006 C 
ATOM      3  C   UNL     1      -4.101   0.098   0.025  0.00  0.00    +0.023 C 
ATOM      4  C   UNL     1      -4.951   1.211  -0.571  0.00  0.00    +0.031 C 
ATOM      5  C   UNL     1      -6.245   0.660  -1.183  0.00  0.00    +0.100 C 
ATOM      6  C   UNL     1      -7.275   1.793  -1.071  0.00  0.00    +0.189 C 
ATOM      7  O   UNL     1      -8.534   1.386  -1.629  0.00  0.00    -0.311 OA
ATOM      8  P   UNL     1      -9.161  -0.022  -1.108  0.00  0.00    +0.318 P 
ATOM      9  O   UNL     1     -10.151  -0.537  -2.081  0.00  0.00    -0.266 OA
ATOM     10  N   UNL     1      -7.874  -1.046  -1.004  0.00  0.00    -0.175 NA
ATOM     11  N   UNL     1      -6.690  -0.548  -0.495  0.00  0.00    -0.229 NA
ATOM     12  C   UNL     1      -5.736  -1.665  -0.609  0.00  0.00    +0.111 C 
ATOM     13  C   UNL     1      -4.294  -1.165  -0.811  0.00  0.00    +0.036 C 
ATOM     14  C   UNL     1      -3.315  -2.222  -0.376  0.00  0.00    +0.007 C 
ATOM     15  C   UNL     1      -2.095  -1.877   0.012  0.00  0.00    +0.103 C 
ATOM     16  H   UNL     1      -7.953  -1.971  -1.284  0.00  0.00    +0.151 HD
ENDROOT
BRANCH   8  17
ATOM     17  C   UNL     1      -9.933   0.195   0.520  0.00  0.00    +0.094 A 
ATOM     18  C   UNL     1      -9.186   0.016   1.668  0.00  0.00    +0.018 A 
ATOM     19  C   UNL     1      -9.774   0.180   2.909  0.00  0.00    +0.001 A 
ATOM     20  C   UNL     1     -11.109   0.525   3.003  0.00  0.00    +0.004 A 
ATOM     21  C   UNL     1     -11.860   0.706   1.858  0.00  0.00    +0.046 A 
ATOM     22  C   UNL     1     -11.271   0.546   0.612  0.00  0.00    +0.131 A 
BRANCH  22  23
ATOM     23  O   UNL     1     -12.006   0.729  -0.517  0.00  0.00    -0.506 OA
ATOM     24  H   UNL     1     -12.443  -0.072  -0.836  0.00  0.00    +0.292 HD
ENDBRANCH  22  23
ENDBRANCH   8  17
BRANCH  15  25
ATOM     25  S   UNL     1      -0.950  -3.113   0.527  0.00  0.00    +0.026 S 
ATOM     26  O   UNL     1      -0.408  -2.675   1.765  0.00  0.00    -0.164 OA
ATOM     27  O   UNL     1      -1.611  -4.363   0.385  0.00  0.00    -0.164 OA
BRANCH  25  28
ATOM     28  C   UNL     1       0.376  -3.110  -0.633  0.00  0.00    +0.094 A 
ATOM     29  C   UNL     1       0.316  -3.917  -1.754  0.00  0.00    +0.027 A 
ATOM     30  C   UNL     1       1.357  -3.914  -2.664  0.00  0.00    +0.002 A 
ATOM     31  C   UNL     1       2.458  -3.105  -2.452  0.00  0.00    +0.000 A 
ATOM     32  C   UNL     1       2.518  -2.298  -1.331  0.00  0.00    +0.002 A 
ATOM     33  C   UNL     1       1.475  -2.297  -0.424  0.00  0.00    +0.027 A 
ENDBRANCH  25  28
ENDBRANCH  15  25
BRANCH   1  35
ATOM     34  C   UNL     1      -0.022   1.810   0.012  0.00  0.00    +0.090 C 
ATOM     35  S   UNL     1       0.002  -0.004   0.002  0.00  0.00    -0.127 S 
ENDBRANCH   1  35
TORSDOF 5
