REMARK  Name = ZINC35455339
REMARK  11 active torsions:
REMARK  status: ('A' for Active; 'I' for Inactive)
REMARK    1  A    between atoms: C_1  and  C_2
REMARK    2  A    between atoms: C_2  and  N_3
REMARK    3  A    between atoms: C_4  and  N_12
REMARK    4  A    between atoms: N_8  and  C_11
REMARK    5  A    between atoms: C_16  and  C_19
REMARK    6  A    between atoms: N_21  and  C_22
REMARK    7  A    between atoms: C_22  and  C_23
REMARK    8  A    between atoms: C_23  and  C_24
REMARK    9  A    between atoms: C_24  and  N_25
REMARK   10  A    between atoms: C_28  and  C_31
REMARK   11  A    between atoms: C_31  and  C_32
REMARK                            x       y       z     vdW  Elec       q    Type
REMARK                         _______ _______ _______ _____ _____    ______ ____
ROOT
ATOM      1  C   UNL     1      -2.907  -0.300   5.982  0.00  0.00    +0.218 C 
ATOM      2  O   UNL     1      -3.207  -1.465   6.133  0.00  0.00    -0.275 OA
ATOM      3  N   UNL     1      -3.095   0.580   6.985  0.00  0.00    -0.315 N 
ATOM      4  H   UNL     1      -2.855   1.512   6.865  0.00  0.00    +0.149 HD
ENDROOT
BRANCH   1   9
ATOM      5  N   UNL     1      -1.523  -0.582   2.491  0.00  0.00    -0.316 N 
ATOM      6  C   UNL     1      -0.217   0.080   2.617  0.00  0.00    +0.106 C 
ATOM      7  C   UNL     1      -0.351   1.256   3.590  0.00  0.00    +0.020 C 
ATOM      8  C   UNL     1      -0.931   0.753   4.914  0.00  0.00    +0.016 C 
ATOM      9  C   UNL     1      -2.323   0.165   4.672  0.00  0.00    +0.092 C 
ATOM     10  C   UNL     1      -2.214  -1.018   3.712  0.00  0.00    +0.119 C 
BRANCH   5  12
ATOM     11  N   UNL     1      -1.884  -1.963   0.586  0.00  0.00    -0.282 N 
ATOM     12  C   UNL     1      -2.089  -0.783   1.258  0.00  0.00    +0.110 A 
ATOM     13  C   UNL     1      -2.862   0.190   0.687  0.00  0.00    +0.112 A 
ATOM     14  C   UNL     1      -3.429  -0.044  -0.576  0.00  0.00    +0.258 A 
ATOM     15  O   UNL     1      -4.121   0.809  -1.104  0.00  0.00    -0.267 OA
ATOM     16  N   UNL     1      -3.202  -1.216  -1.200  0.00  0.00    -0.264 N 
ATOM     17  C   UNL     1      -2.434  -2.160  -0.626  0.00  0.00    +0.333 A 
ATOM     18  O   UNL     1      -2.239  -3.209  -1.209  0.00  0.00    -0.246 OA
ATOM     19  C   UNL     1      -3.793  -1.463  -2.518  0.00  0.00    +0.157 C 
BRANCH  11  21
ATOM     20  C   UNL     1       0.376  -2.893   0.668  0.00  0.00    +0.027 C 
ATOM     21  C   UNL     1      -1.057  -3.011   1.190  0.00  0.00    +0.125 C 
ENDBRANCH  11  21
ENDBRANCH   5  12
ENDBRANCH   1   9
BRANCH   3  22
ATOM     22  C   UNL     1      -3.663   0.129   8.258  0.00  0.00    +0.102 C 
BRANCH  22  23
ATOM     23  C   UNL     1      -3.770   1.315   9.218  0.00  0.00    +0.000 C 
BRANCH  23  24
ATOM     24  C   UNL     1      -4.363   0.844  10.547  0.00  0.00    -0.077 C 
BRANCH  24  25
ATOM     25  N   UNL     1      -4.467   1.983  11.469  0.00  0.00    +0.380 N 
ATOM     26  C   UNL     1      -5.423   2.959  10.932  0.00  0.00    -0.079 C 
ATOM     27  C   UNL     1      -5.474   4.185  11.847  0.00  0.00    -0.015 C 
ATOM     28  C   UNL     1      -5.916   3.751  13.248  0.00  0.00    -0.010 C 
ATOM     29  C   UNL     1      -4.954   2.679  13.767  0.00  0.00    -0.015 C 
ATOM     30  C   UNL     1      -4.922   1.509  12.781  0.00  0.00    -0.079 C 
ATOM     31  H   UNL     1      -3.562   2.420  11.566  0.00  0.00    -0.082 HD
BRANCH  28  32
ATOM     32  C   UNL     1      -5.893   4.958  14.188  0.00  0.00    +0.038 C 
BRANCH  32  33
ATOM     33  C   UNL     1      -6.445   4.559  15.532  0.00  0.00    -0.047 A 
ATOM     34  C   UNL     1      -7.799   4.672  15.785  0.00  0.00    +0.003 A 
ATOM     35  C   UNL     1      -8.305   4.306  17.018  0.00  0.00    +0.000 A 
ATOM     36  C   UNL     1      -7.457   3.825  17.998  0.00  0.00    +0.000 A 
ATOM     37  C   UNL     1      -6.102   3.710  17.745  0.00  0.00    +0.000 A 
ATOM     38  C   UNL     1      -5.597   4.073  16.510  0.00  0.00    +0.003 A 
ENDBRANCH  32  33
ENDBRANCH  28  32
ENDBRANCH  24  25
ENDBRANCH  23  24
ENDBRANCH  22  23
ENDBRANCH   3  22
TORSDOF 9
