REMARK  Name = ZINC54727764
REMARK  11 active torsions:
REMARK  status: ('A' for Active; 'I' for Inactive)
REMARK    1  A    between atoms: C_1  and  C_2
REMARK    2  A    between atoms: C_4  and  C_29
REMARK    3  A    between atoms: N_6  and  C_8
REMARK    4  A    between atoms: C_8  and  C_9
REMARK    5  A    between atoms: C_8  and  C_10
REMARK    6  A    between atoms: C_8  and  C_11
REMARK    7  A    between atoms: C_11  and  N_12
REMARK    8  A    between atoms: N_15  and  C_16
REMARK    9  A    between atoms: C_16  and  C_17
REMARK   10  A    between atoms: C_22  and  C_23
REMARK   11  A    between atoms: C_23  and  N_24
REMARK                            x       y       z     vdW  Elec       q    Type
REMARK                         _______ _______ _______ _____ _____    ______ ____
ROOT
ATOM      1  N   UNL     1      -0.750  -2.466   3.616  0.00  0.00    -0.301 N 
ATOM      2  C   UNL     1      -1.628  -2.151   4.588  0.00  0.00    +0.300 C 
ATOM      3  O   UNL     1      -1.281  -1.449   5.518  0.00  0.00    -0.253 OA
ATOM      4  N   UNL     1      -2.893  -2.615   4.529  0.00  0.00    -0.295 N 
ATOM      5  H   UNL     1      -1.027  -3.026   2.874  0.00  0.00    +0.150 HD
ATOM      6  H   UNL     1      -3.170  -3.175   3.788  0.00  0.00    +0.151 HD
ENDROOT
BRANCH   1   7
ATOM      7  C   UNL     1       0.625  -1.963   3.679  0.00  0.00    +0.093 C 
BRANCH   7   8
ATOM      8  C   UNL     1       1.408  -2.463   2.464  0.00  0.00    -0.055 C 
ATOM      9  C   UNL     1       1.425  -3.993   2.463  0.00  0.00    -0.008 C 
ATOM     10  C   UNL     1       2.843  -1.937   2.530  0.00  0.00    -0.008 C 
BRANCH   8  16
ATOM     11  C   UNL     1      -0.019   1.526   0.010  0.00  0.00    +0.005 C 
ATOM     12  C   UNL     1       0.002  -0.004   0.002  0.00  0.00    -0.031 C 
ATOM     13  C   UNL     1       0.724  -0.499  -1.255  0.00  0.00    +0.003 C 
ATOM     14  C   UNL     1       0.808  -2.027  -1.215  0.00  0.00    -0.031 C 
ATOM     15  C   UNL     1       1.518  -2.460   0.070  0.00  0.00    -0.075 C 
ATOM     16  N   UNL     1       0.765  -1.980   1.235  0.00  0.00    +0.384 N 
ATOM     17  C   UNL     1       0.742  -0.512   1.241  0.00  0.00    -0.075 C 
ATOM     18  C   UNL     1       1.595  -2.527  -2.428  0.00  0.00    +0.005 C 
ATOM     19  H   UNL     1      -0.180  -2.330   1.191  0.00  0.00    -0.081 HD
ENDBRANCH   8  16
ENDBRANCH   7   8
ENDBRANCH   1   7
BRANCH   4  20
ATOM     20  C   UNL     1      -3.848  -2.272   5.586  0.00  0.00    +0.141 C 
BRANCH  20  21
ATOM     21  C   UNL     1      -5.180  -2.910   5.286  0.00  0.00    -0.025 A 
ATOM     22  C   UNL     1      -6.191  -2.162   4.713  0.00  0.00    +0.005 A 
ATOM     23  C   UNL     1      -7.412  -2.747   4.437  0.00  0.00    +0.000 A 
ATOM     24  C   UNL     1      -7.623  -4.081   4.734  0.00  0.00    +0.000 A 
ATOM     25  C   UNL     1      -6.611  -4.829   5.306  0.00  0.00    +0.006 A 
ATOM     26  C   UNL     1      -5.388  -4.245   5.578  0.00  0.00    -0.021 A 
BRANCH  26  27
ATOM     27  C   UNL     1      -4.283  -5.062   6.197  0.00  0.00    +0.180 C 
BRANCH  27  28
ATOM     28  N   UNL     1      -4.301  -4.886   7.651  0.00  0.00    -0.248 N 
ATOM     29  C   UNL     1      -4.373  -5.856   8.579  0.00  0.00    +0.219 A 
ATOM     30  N   UNL     1      -4.364  -5.290   9.759  0.00  0.00    -0.223 NA
ATOM     31  C   UNL     1      -4.287  -3.967   9.625  0.00  0.00    +0.245 A 
ATOM     32  N   UNL     1      -4.242  -3.671   8.352  0.00  0.00    -0.158 NA
ENDBRANCH  27  28
ENDBRANCH  26  27
ENDBRANCH  20  21
ENDBRANCH   4  20
TORSDOF 7
