REMARK  Name = ZINC09456266
REMARK  5 active torsions:
REMARK  status: ('A' for Active; 'I' for Inactive)
REMARK    1  A    between atoms: C_1  and  C_2
REMARK    2  A    between atoms: C_2  and  C_4
REMARK    3  A    between atoms: C_2  and  S_14
REMARK    4  A    between atoms: N_6  and  C_7
REMARK    5  A    between atoms: S_14  and  C_15
REMARK                            x       y       z     vdW  Elec       q    Type
REMARK                         _______ _______ _______ _____ _____    ______ ____
ROOT
ATOM      1  C   UNL     1      -0.124  -0.500  -1.447  0.00  0.00    +0.029 C 
ATOM      2  C   UNL     1       0.002  -0.004  -0.005  0.00  0.00    +0.137 C 
ENDROOT
BRANCH   2   3
ATOM      3  C   UNL     1      -0.018   1.503   0.012  0.00  0.00    +0.230 C 
ATOM      4  O   UNL     1       1.024   2.123   0.013  0.00  0.00    -0.274 OA
ATOM      5  N   UNL     1      -1.195   2.161   0.019  0.00  0.00    -0.285 N 
ATOM      6  H   UNL     1      -2.027   1.668  -0.053  0.00  0.00    +0.155 HD
BRANCH   5   7
ATOM      7  C   UNL     1      -1.215   3.556   0.133  0.00  0.00    +0.034 A 
ATOM      8  C   UNL     1      -2.239   4.182   0.833  0.00  0.00    +0.026 A 
ATOM      9  C   UNL     1      -2.254   5.558   0.948  0.00  0.00    +0.040 A 
ATOM     10  C   UNL     1      -1.256   6.315   0.357  0.00  0.00    +0.124 A 
ATOM     11  C   UNL     1      -0.238   5.693  -0.346  0.00  0.00    +0.040 A 
ATOM     12  C   UNL     1      -0.216   4.317  -0.459  0.00  0.00    +0.026 A 
ATOM     13  F   UNL     1      -1.276   7.661   0.467  0.00  0.00    -0.205 F 
ENDBRANCH   5   7
ENDBRANCH   2   3
BRANCH   2  14
ATOM     14  S   UNL     1       1.560  -0.595   0.702  0.00  0.00    -0.075 S 
BRANCH  14  15
ATOM     15  C   UNL     1       1.259  -2.330   0.699  0.00  0.00    +0.171 A 
ATOM     16  N   UNL     1       2.220  -3.181   1.164  0.00  0.00    -0.301 N 
ATOM     17  H   UNL     1       3.058  -2.819   1.491  0.00  0.00    +0.171 HD
ATOM     18  C   UNL     1       2.024  -4.512   1.183  0.00  0.00    +0.260 A 
ATOM     19  O   UNL     1       2.890  -5.258   1.605  0.00  0.00    -0.267 OA
ATOM     20  C   UNL     1       0.787  -5.041   0.694  0.00  0.00    +0.072 A 
ATOM     21  C   UNL     1       0.349  -6.424   0.607  0.00  0.00    +0.023 A 
ATOM     22  C   UNL     1      -0.866  -6.696   0.109  0.00  0.00    +0.048 A 
ATOM     23  S   UNL     1      -1.521  -5.085  -0.286  0.00  0.00    -0.077 S 
ATOM     24  C   UNL     1      -0.143  -4.093   0.229  0.00  0.00    +0.116 A 
ATOM     25  N   UNL     1       0.111  -2.791   0.244  0.00  0.00    -0.216 NA
ENDBRANCH  14  15
ENDBRANCH   2  14
TORSDOF 4
