REMARK  Name = ZINC12411300
REMARK  10 active torsions:
REMARK  status: ('A' for Active; 'I' for Inactive)
REMARK    1  A    between atoms: C_1  and  C_2
REMARK    2  A    between atoms: C_2  and  O_3
REMARK    3  A    between atoms: O_3  and  C_4
REMARK    4  A    between atoms: C_5  and  C_12
REMARK    5  A    between atoms: C_9  and  O_10
REMARK    6  A    between atoms: O_10  and  C_11
REMARK    7  A    between atoms: C_17  and  C_27
REMARK    8  A    between atoms: C_19  and  C_23
REMARK    9  A    between atoms: C_23  and  O_25
REMARK   10  A    between atoms: O_25  and  C_26
REMARK                            x       y       z     vdW  Elec       q    Type
REMARK                         _______ _______ _______ _____ _____    ______ ____
ROOT
ATOM      1  C   UNL     1       0.925  -2.482   1.570  0.00  0.00    +0.140 C 
ATOM      2  C   UNL     1       0.543  -1.115   1.052  0.00  0.00    +0.037 C 
ATOM      3  C   UNL     1      -0.619  -0.792   0.461  0.00  0.00    +0.017 C 
ATOM      4  C   UNL     1      -0.881   0.634   0.008  0.00  0.00    +0.055 C 
ATOM      5  C   UNL     1       0.427   1.289  -0.432  0.00  0.00    +0.013 C 
ATOM      6  C   UNL     1       1.380   1.281   0.769  0.00  0.00    +0.171 C 
ATOM      7  C   UNL     1       1.545  -0.134   1.238  0.00  0.00    +0.177 C 
ATOM      8  O   UNL     1       2.578  -0.449   1.797  0.00  0.00    -0.291 OA
ATOM      9  C   UNL     1       1.041   0.496  -1.587  0.00  0.00    +0.009 C 
ATOM     10  N   UNL     1      -1.634  -1.660   0.219  0.00  0.00    -0.316 N 
ATOM     11  C   UNL     1      -2.140  -2.566   1.144  0.00  0.00    +0.052 A 
ATOM     12  C   UNL     1      -3.452  -2.519   1.582  0.00  0.00    +0.025 A 
ATOM     13  C   UNL     1      -3.924  -3.516   2.420  0.00  0.00    +0.002 A 
ATOM     14  C   UNL     1      -3.091  -4.546   2.816  0.00  0.00    +0.002 A 
ATOM     15  C   UNL     1      -1.772  -4.583   2.395  0.00  0.00    +0.025 A 
ATOM     16  C   UNL     1      -1.293  -3.578   1.569  0.00  0.00    +0.049 A 
ATOM     17  N   UNL     1       0.038  -3.548   1.156  0.00  0.00    -0.331 N 
ATOM     18  H   UNL     1      -2.037  -1.646  -0.664  0.00  0.00    +0.152 HD
ATOM     19  H   UNL     1       0.375  -4.253   0.582  0.00  0.00    +0.147 HD
ENDROOT
BRANCH   1  21
ATOM     20  C   UNL     1       1.587  -3.431   3.792  0.00  0.00    +0.167 A 
ATOM     21  C   UNL     1       0.945  -2.434   3.076  0.00  0.00    +0.023 A 
ATOM     22  C   UNL     1       0.328  -1.392   3.743  0.00  0.00    +0.009 A 
ATOM     23  C   UNL     1       0.341  -1.347   5.125  0.00  0.00    +0.004 A 
ATOM     24  C   UNL     1       0.979  -2.339   5.845  0.00  0.00    +0.049 A 
ATOM     25  C   UNL     1       1.604  -3.384   5.183  0.00  0.00    +0.162 A 
BRANCH  25  26
ATOM     26  O   UNL     1       2.233  -4.360   5.891  0.00  0.00    -0.491 OA
ATOM     27  C   UNL     1       2.210  -4.247   7.315  0.00  0.00    +0.277 C 
ENDBRANCH  25  26
BRANCH  20  28
ATOM     28  O   UNL     1       2.199  -4.454   3.138  0.00  0.00    -0.488 OA
BRANCH  28  30
ATOM     29  C   UNL     1       4.062  -5.475   1.987  0.00  0.00    +0.048 C 
ATOM     30  C   UNL     1       3.583  -4.287   2.822  0.00  0.00    +0.226 C 
ENDBRANCH  28  30
ENDBRANCH  20  28
ENDBRANCH   1  21
BRANCH   6  31
ATOM     31  C   UNL     1       2.718   1.837   0.357  0.00  0.00    +0.318 C 
ATOM     32  O   UNL     1       2.841   2.386  -0.713  0.00  0.00    -0.250 OA
BRANCH  31  33
ATOM     33  O   UNL     1       3.774   1.723   1.178  0.00  0.00    -0.467 OA
ATOM     34  C   UNL     1       5.000   2.387   0.771  0.00  0.00    +0.280 C 
ENDBRANCH  31  33
ENDBRANCH   6  31
TORSDOF 6
