REMARK  Name = ZINC39272811
REMARK  2 active torsions:
REMARK  status: ('A' for Active; 'I' for Inactive)
REMARK    1  A    between atoms: C_4  and  C_7
REMARK    2  A    between atoms: C_13  and  C_16
REMARK                            x       y       z     vdW  Elec       q    Type
REMARK                         _______ _______ _______ _____ _____    ______ ____
ROOT
ATOM      1  C   UNL     1       3.695  -0.685  -0.038  0.00  0.00    +0.182 A 
ATOM      2  N   UNL     1       4.865  -0.164  -0.316  0.00  0.00    -0.127 NA
ATOM      3  N   UNL     1       5.776  -1.070  -0.249  0.00  0.00    -0.120 NA
ATOM      4  C   UNL     1       5.235  -2.211   0.055  0.00  0.00    +0.211 A 
ATOM      5  N   UNL     1       3.888  -2.034   0.243  0.00  0.00    -0.220 N 
ATOM      6  N   UNL     1       3.126  -3.093   0.639  0.00  0.00    -0.262 N 
ATOM      7  C   UNL     1       3.713  -4.429   0.355  0.00  0.00    +0.199 C 
ATOM      8  S   UNL     1       5.494  -3.950   0.342  0.00  0.00    -0.055 S 
ATOM      9  H   UNL     1       2.869  -3.010   1.612  0.00  0.00    +0.168 HD
ENDROOT
BRANCH   7  10
ATOM     10  C   UNL     1       3.276  -4.953  -0.989  0.00  0.00    +0.050 A 
ATOM     11  H   UNL     1       2.987  -3.206  -2.086  0.00  0.00    +0.166 HD
ATOM     12  C   UNL     1       3.131  -6.251  -1.300  0.00  0.00    +0.034 A 
ATOM     13  C   UNL     1       2.694  -6.309  -2.697  0.00  0.00    +0.000 A 
ATOM     14  C   UNL     1       2.383  -7.351  -3.573  0.00  0.00    +0.010 A 
ATOM     15  C   UNL     1       1.994  -7.067  -4.853  0.00  0.00    +0.001 A 
ATOM     16  C   UNL     1       1.907  -5.753  -5.288  0.00  0.00    +0.002 A 
ATOM     17  C   UNL     1       2.210  -4.710  -4.440  0.00  0.00    +0.026 A 
ATOM     18  C   UNL     1       2.607  -4.975  -3.134  0.00  0.00    +0.047 A 
ATOM     19  N   UNL     1       2.962  -4.176  -2.070  0.00  0.00    -0.356 N 
ENDBRANCH   7  10
BRANCH   1  23
ATOM     20  C   UNL     1      -0.017   1.379   0.010  0.00  0.00    +0.000 A 
ATOM     21  C   UNL     1       1.168   2.094   0.002  0.00  0.00    +0.001 A 
ATOM     22  C   UNL     1       2.377   1.429  -0.013  0.00  0.00    +0.011 A 
ATOM     23  C   UNL     1       2.403   0.034  -0.021  0.00  0.00    +0.021 A 
ATOM     24  C   UNL     1       1.204  -0.681  -0.013  0.00  0.00    +0.011 A 
ATOM     25  C   UNL     1       0.002  -0.004   0.002  0.00  0.00    +0.001 A 
ENDBRANCH   1  23
TORSDOF 2
