REMARK  Name = ZINC27228824
REMARK  11 active torsions:
REMARK  status: ('A' for Active; 'I' for Inactive)
REMARK    1  A    between atoms: C_1  and  N_2
REMARK    2  A    between atoms: N_2  and  C_3
REMARK    3  A    between atoms: N_2  and  C_21
REMARK    4  A    between atoms: C_3  and  C_4
REMARK    5  A    between atoms: C_4  and  C_6
REMARK    6  A    between atoms: C_4  and  O_20
REMARK    7  A    between atoms: C_6  and  N_7
REMARK    8  A    between atoms: C_21  and  C_22
REMARK    9  A    between atoms: C_22  and  C_24
REMARK   10  A    between atoms: C_22  and  O_38
REMARK   11  A    between atoms: C_24  and  N_25
REMARK                            x       y       z     vdW  Elec       q    Type
REMARK                         _______ _______ _______ _____ _____    ______ ____
ROOT
ATOM      1  C   UNL     1       3.575   5.325   3.397  0.00  0.00    -0.096 C 
ATOM      2  N   UNL     1       2.325   5.812   2.797  0.00  0.00    +0.381 N 
ATOM      3  H   UNL     1       1.494   5.489   3.440  0.00  0.00    -0.082 HD
ENDROOT
BRANCH   2   4
ATOM      4  C   UNL     1       2.119   5.229   1.465  0.00  0.00    -0.046 C 
BRANCH   4   5
ATOM      5  C   UNL     1       0.661   5.427   1.042  0.00  0.00    +0.118 C 
BRANCH   5   6
ATOM      6  O   UNL     1      -0.197   4.752   1.964  0.00  0.00    -0.392 OA
ATOM      7  H   UNL     1      -1.288   4.782   1.823  0.00  0.00    +0.210 HD
ENDBRANCH   5   6
BRANCH   5   8
ATOM      8  C   UNL     1       0.455   4.853  -0.360  0.00  0.00    +0.151 C 
BRANCH   8   9
ATOM      9  N   UNL     1      -0.907   5.147  -0.813  0.00  0.00    -0.337 N 
ATOM     10  C   UNL     1      -1.281   6.282  -1.510  0.00  0.00    +0.050 A 
ATOM     11  C   UNL     1      -0.563   7.389  -1.952  0.00  0.00    +0.026 A 
ATOM     12  C   UNL     1      -1.204   8.396  -2.641  0.00  0.00    +0.002 A 
ATOM     13  C   UNL     1      -2.565   8.323  -2.893  0.00  0.00    +0.001 A 
ATOM     14  C   UNL     1      -3.294   7.237  -2.460  0.00  0.00    +0.010 A 
ATOM     15  C   UNL     1      -2.658   6.210  -1.766  0.00  0.00    +0.008 A 
ATOM     16  C   UNL     1      -3.128   4.942  -1.178  0.00  0.00    +0.008 A 
ATOM     17  C   UNL     1      -2.004   4.329  -0.604  0.00  0.00    +0.050 A 
ATOM     18  C   UNL     1      -2.149   3.100   0.033  0.00  0.00    +0.026 A 
ATOM     19  C   UNL     1      -3.386   2.498   0.096  0.00  0.00    +0.002 A 
ATOM     20  C   UNL     1      -4.496   3.104  -0.472  0.00  0.00    +0.001 A 
ATOM     21  C   UNL     1      -4.372   4.321  -1.108  0.00  0.00    +0.010 A 
ENDBRANCH   8   9
ENDBRANCH   5   8
ENDBRANCH   4   5
ENDBRANCH   2   4
BRANCH   2  22
ATOM     22  C   UNL     1       2.307   7.280   2.739  0.00  0.00    -0.046 C 
BRANCH  22  23
ATOM     23  C   UNL     1       2.274   7.846   4.160  0.00  0.00    +0.118 C 
BRANCH  23  24
ATOM     24  O   UNL     1       1.101   7.381   4.831  0.00  0.00    -0.392 OA
ATOM     25  H   UNL     1       0.904   7.686   5.870  0.00  0.00    +0.210 HD
ENDBRANCH  23  24
BRANCH  23  26
ATOM     26  C   UNL     1       2.254   9.375   4.099  0.00  0.00    +0.151 C 
BRANCH  26  27
ATOM     27  N   UNL     1       2.343   9.919   5.457  0.00  0.00    -0.337 N 
ATOM     28  C   UNL     1       1.258  10.207   6.266  0.00  0.00    +0.050 A 
ATOM     29  C   UNL     1      -0.114  10.085   6.071  0.00  0.00    +0.026 A 
ATOM     30  C   UNL     1      -0.988  10.456   7.071  0.00  0.00    +0.002 A 
ATOM     31  C   UNL     1      -0.513  10.951   8.275  0.00  0.00    +0.001 A 
ATOM     32  C   UNL     1       0.843  11.070   8.490  0.00  0.00    +0.010 A 
ATOM     33  C   UNL     1       1.738  10.704   7.487  0.00  0.00    +0.008 A 
ATOM     34  C   UNL     1       3.208  10.719   7.384  0.00  0.00    +0.008 A 
ATOM     35  C   UNL     1       3.524  10.224   6.110  0.00  0.00    +0.050 A 
ATOM     36  C   UNL     1       4.858  10.123   5.730  0.00  0.00    +0.026 A 
ATOM     37  C   UNL     1       5.855  10.508   6.601  0.00  0.00    +0.002 A 
ATOM     38  C   UNL     1       5.541  10.998   7.860  0.00  0.00    +0.001 A 
ATOM     39  C   UNL     1       4.225  11.105   8.255  0.00  0.00    +0.010 A 
ENDBRANCH  26  27
ENDBRANCH  23  26
ENDBRANCH  22  23
ENDBRANCH   2  22
TORSDOF 10
