REMARK  Name = ZINC05972224
REMARK  7 active torsions:
REMARK  status: ('A' for Active; 'I' for Inactive)
REMARK    1  A    between atoms: C_3  and  N_27
REMARK    2  A    between atoms: C_4  and  C_10
REMARK    3  A    between atoms: C_6  and  N_7
REMARK    4  A    between atoms: C_10  and  O_12
REMARK    5  A    between atoms: O_12  and  C_13
REMARK    6  A    between atoms: C_13  and  C_14
REMARK    7  A    between atoms: N_16  and  C_17
REMARK                            x       y       z     vdW  Elec       q    Type
REMARK                         _______ _______ _______ _____ _____    ______ ____
ROOT
ATOM      1  C   UNL     1      -8.431   0.701   2.565  0.00  0.00    +0.342 C 
ATOM      2  O   UNL     1      -8.974  -0.008   1.741  0.00  0.00    -0.245 OA
ENDROOT
BRANCH   1   6
ATOM      3  C   UNL     1     -10.672   2.295   5.803  0.00  0.00    +0.034 A 
ATOM      4  C   UNL     1     -11.319   1.583   4.814  0.00  0.00    +0.026 A 
ATOM      5  C   UNL     1     -10.598   1.062   3.747  0.00  0.00    +0.044 A 
ATOM      6  C   UNL     1      -9.208   1.253   3.688  0.00  0.00    +0.082 A 
ATOM      7  C   UNL     1      -8.568   1.976   4.699  0.00  0.00    +0.049 A 
ATOM      8  C   UNL     1      -9.301   2.490   5.746  0.00  0.00    +0.127 A 
BRANCH   5   9
ATOM      9  N   UNL     1     -11.248   0.350   2.747  0.00  0.00    -0.329 N 
ATOM     10  C   UNL     1     -12.059  -0.754   3.321  0.00  0.00    +0.105 C 
ATOM     11  C   UNL     1     -13.076  -1.069   2.195  0.00  0.00    +0.020 C 
ATOM     12  C   UNL     1     -13.397   0.329   1.618  0.00  0.00    +0.020 C 
ATOM     13  C   UNL     1     -12.201   1.213   2.016  0.00  0.00    +0.105 C 
ENDBRANCH   5   9
BRANCH   8  14
ATOM     14  N   UNL     1      -8.620   3.255   6.815  0.00  0.00    +0.056 N 
ATOM     15  O   UNL     1      -7.416   3.428   6.767  0.00  0.00    -0.126 OA
ATOM     16  O   UNL     1      -9.265   3.711   7.742  0.00  0.00    -0.126 OA
ENDBRANCH   8  14
ENDBRANCH   1   6
BRANCH   1  17
ATOM     17  O   UNL     1      -7.117   0.981   2.453  0.00  0.00    -0.452 OA
BRANCH  17  18
ATOM     18  C   UNL     1      -6.415   0.403   1.321  0.00  0.00    +0.328 C 
BRANCH  18  19
ATOM     19  C   UNL     1      -4.968   0.823   1.360  0.00  0.00    +0.251 C 
ATOM     20  O   UNL     1      -4.569   1.539   2.254  0.00  0.00    -0.272 OA
ATOM     21  N   UNL     1      -4.118   0.403   0.403  0.00  0.00    -0.307 N 
ATOM     22  H   UNL     1      -4.437  -0.170  -0.312  0.00  0.00    +0.149 HD
BRANCH  21  23
ATOM     23  C   UNL     1      -2.712   0.811   0.441  0.00  0.00    +0.035 C 
ATOM     24  C   UNL     1      -1.971   0.202  -0.751  0.00  0.00    +0.029 C 
ATOM     25  C   UNL     1      -0.502   0.628  -0.712  0.00  0.00    -0.008 C 
ATOM     26  C   UNL     1       0.136   0.138   0.590  0.00  0.00    +0.007 C 
ATOM     27  C   UNL     1      -0.605   0.748   1.782  0.00  0.00    -0.008 C 
ATOM     28  C   UNL     1      -2.073   0.321   1.742  0.00  0.00    +0.029 C 
ATOM     29  C   UNL     1      -0.514   2.273   1.713  0.00  0.00    +0.007 C 
ATOM     30  C   UNL     1      -1.153   2.763   0.411  0.00  0.00    -0.008 C 
ATOM     31  C   UNL     1      -0.412   2.154  -0.781  0.00  0.00    +0.007 C 
ATOM     32  C   UNL     1      -2.622   2.337   0.371  0.00  0.00    +0.029 C 
ENDBRANCH  21  23
ENDBRANCH  18  19
ENDBRANCH  17  18
ENDBRANCH   1  17
TORSDOF 7
