REMARK  Name = ZINC03189099
REMARK  7 active torsions:
REMARK  status: ('A' for Active; 'I' for Inactive)
REMARK    1  A    between atoms: C_1  and  C_2
REMARK    2  A    between atoms: C_2  and  O_3
REMARK    3  A    between atoms: O_3  and  C_4
REMARK    4  A    between atoms: C_4  and  C_6
REMARK    5  A    between atoms: C_7  and  C_22
REMARK    6  A    between atoms: C_12  and  C_14
REMARK    7  A    between atoms: C_19  and  O_20
REMARK                            x       y       z     vdW  Elec       q    Type
REMARK                         _______ _______ _______ _____ _____    ______ ____
ROOT
ATOM      1  C   UNL     1       2.384   0.459  -0.414  0.00  0.00    +0.083 C 
ATOM      2  C   UNL     1       2.037   1.697   0.045  0.00  0.00    +0.054 C 
ATOM      3  N   UNL     1       0.749   1.962   0.445  0.00  0.00    -0.268 N 
ATOM      4  C   UNL     1      -0.236   1.055   0.417  0.00  0.00    +0.305 C 
ATOM      5  O   UNL     1      -1.346   1.384   0.786  0.00  0.00    -0.252 OA
ATOM      6  N   UNL     1      -0.042  -0.207  -0.011  0.00  0.00    -0.288 N 
ATOM      7  C   UNL     1       1.302  -0.601  -0.464  0.00  0.00    +0.147 C 
ATOM      8  H   UNL     1       0.542   2.854   0.765  0.00  0.00    +0.156 HD
ATOM      9  H   UNL     1      -0.773  -0.844  -0.021  0.00  0.00    +0.151 HD
ENDROOT
BRANCH   7  10
ATOM     10  C   UNL     1       1.190  -1.082  -1.888  0.00  0.00    +0.020 A 
ATOM     11  C   UNL     1       0.200  -0.580  -2.711  0.00  0.00    +0.024 A 
ATOM     12  C   UNL     1       0.096  -1.021  -4.018  0.00  0.00    +0.018 A 
ATOM     13  C   UNL     1       0.982  -1.966  -4.504  0.00  0.00    +0.019 A 
ATOM     14  C   UNL     1       1.974  -2.470  -3.685  0.00  0.00    +0.047 A 
ATOM     15  C   UNL     1       2.083  -2.025  -2.375  0.00  0.00    +0.122 A 
ATOM     16 BR   UNL     1      -1.260  -0.332  -5.142  0.00  0.00    -0.050 Br
BRANCH  15  17
ATOM     17  O   UNL     1       3.061  -2.516  -1.569  0.00  0.00    -0.506 OA
ATOM     18  H   UNL     1       2.803  -3.305  -1.074  0.00  0.00    +0.292 HD
ENDBRANCH  15  17
ENDBRANCH   7  10
BRANCH   2  19
ATOM     19  C   UNL     1       3.056   2.763   0.112  0.00  0.00    -0.003 A 
ATOM     20  C   UNL     1       2.791   4.022  -0.431  0.00  0.00    +0.010 A 
ATOM     21  C   UNL     1       3.746   5.015  -0.361  0.00  0.00    +0.001 A 
ATOM     22  C   UNL     1       4.968   4.763   0.236  0.00  0.00    +0.000 A 
ATOM     23  C   UNL     1       5.240   3.516   0.772  0.00  0.00    +0.001 A 
ATOM     24  C   UNL     1       4.292   2.515   0.713  0.00  0.00    +0.010 A 
ENDBRANCH   2  19
BRANCH   1  25
ATOM     25  C   UNL     1       3.701   0.176  -0.827  0.00  0.00    +0.339 C 
ATOM     26  O   UNL     1       4.446  -0.454  -0.099  0.00  0.00    -0.245 OA
BRANCH  25  27
ATOM     27  O   UNL     1       4.138   0.605  -2.031  0.00  0.00    -0.462 OA
BRANCH  27  29
ATOM     28  C   UNL     1       5.796   0.848  -3.772  0.00  0.00    +0.048 C 
ATOM     29  C   UNL     1       5.484   0.283  -2.385  0.00  0.00    +0.229 C 
ENDBRANCH  27  29
ENDBRANCH  25  27
ENDBRANCH   1  25
TORSDOF 6
