REMARK  Name = ZINC47751369
REMARK  6 active torsions:
REMARK  status: ('A' for Active; 'I' for Inactive)
REMARK    1  A    between atoms: C_9  and  C_10
REMARK    2  A    between atoms: C_10  and  C_11
REMARK    3  A    between atoms: C_11  and  N_12
REMARK    4  A    between atoms: N_15  and  C_16
REMARK    5  A    between atoms: C_16  and  C_17
REMARK    6  A    between atoms: C_17  and  N_23
REMARK                            x       y       z     vdW  Elec       q    Type
REMARK                         _______ _______ _______ _____ _____    ______ ____
ROOT
ATOM      1  N   UNL     1       7.337   2.541   5.830  0.00  0.00    -0.299 N 
ATOM      2  C   UNL     1       7.799   1.511   5.094  0.00  0.00    +0.300 C 
ATOM      3  O   UNL     1       7.066   0.579   4.825  0.00  0.00    -0.253 OA
ATOM      4  N   UNL     1       9.074   1.514   4.656  0.00  0.00    -0.301 N 
ATOM      5  H   UNL     1       7.922   3.284   6.044  0.00  0.00    +0.150 HD
ATOM      6  H   UNL     1       9.659   2.257   4.871  0.00  0.00    +0.150 HD
ENDROOT
BRANCH   1   7
ATOM      7  C   UNL     1       5.952   2.538   6.305  0.00  0.00    +0.113 C 
BRANCH   7   8
ATOM      8  C   UNL     1       5.686   3.812   7.110  0.00  0.00    +0.095 C 
BRANCH   8  17
ATOM      9  C   UNL     1       2.323   2.466  10.938  0.00  0.00    +0.005 A 
ATOM     10  C   UNL     1       3.712   2.254  10.889  0.00  0.00    +0.018 A 
ATOM     11  C   UNL     1       4.428   2.666   9.822  0.00  0.00    +0.094 A 
ATOM     12  N   UNL     1       3.815   3.294   8.777  0.00  0.00    -0.286 N 
ATOM     13  C   UNL     1       2.460   3.515   8.796  0.00  0.00    +0.161 A 
ATOM     14  C   UNL     1       1.699   3.090   9.903  0.00  0.00    +0.048 A 
ATOM     15  N   UNL     1       2.157   4.133   7.667  0.00  0.00    -0.129 NA
ATOM     16  N   UNL     1       3.225   4.301   6.969  0.00  0.00    -0.134 NA
ATOM     17  C   UNL     1       4.260   3.809   7.599  0.00  0.00    +0.139 A 
ENDBRANCH   8  17
ENDBRANCH   7   8
ENDBRANCH   1   7
BRANCH   4  18
ATOM     18  C   UNL     1       9.576   0.394   3.856  0.00  0.00    +0.094 C 
BRANCH  18  19
ATOM     19  C   UNL     1      10.998   0.703   3.382  0.00  0.00    -0.050 C 
ATOM     20  C   UNL     1      11.933   0.779   4.591  0.00  0.00    -0.010 C 
ATOM     21  C   UNL     1      11.921  -0.560   5.330  0.00  0.00    -0.001 C 
ATOM     22  C   UNL     1      12.397  -1.667   4.388  0.00  0.00    -0.000 C 
ATOM     23  C   UNL     1      11.462  -1.744   3.179  0.00  0.00    -0.001 C 
ATOM     24  C   UNL     1      11.473  -0.404   2.439  0.00  0.00    -0.010 C 
BRANCH  19  25
ATOM     25  N   UNL     1      11.009   1.989   2.673  0.00  0.00    +0.384 N 
ATOM     26  C   UNL     1      12.367   2.268   2.189  0.00  0.00    -0.078 C 
ATOM     27  C   UNL     1      12.402   3.643   1.520  0.00  0.00    -0.019 C 
ATOM     28  C   UNL     1      11.425   3.655   0.340  0.00  0.00    -0.004 C 
ATOM     29  C   UNL     1      10.026   3.291   0.844  0.00  0.00    -0.019 C 
ATOM     30  C   UNL     1      10.079   1.928   1.539  0.00  0.00    -0.078 C 
ATOM     31  H   UNL     1      10.722   2.722   3.303  0.00  0.00    -0.081 HD
ENDBRANCH  19  25
ENDBRANCH  18  19
ENDBRANCH   4  18
TORSDOF 6
