REMARK  Name = ZINC06149924
REMARK  4 active torsions:
REMARK  status: ('A' for Active; 'I' for Inactive)
REMARK    1  A    between atoms: C_9  and  O_27
REMARK    2  A    between atoms: C_10  and  C_11
REMARK    3  A    between atoms: N_12  and  N_13
REMARK    4  A    between atoms: C_16  and  C_19
REMARK                            x       y       z     vdW  Elec       q    Type
REMARK                         _______ _______ _______ _____ _____    ______ ____
ROOT
ATOM      1  N   UNL     1      -0.147   8.043   0.145  0.00  0.00    -0.215 N 
ATOM      2  C   UNL     1      -0.141   9.427   0.153  0.00  0.00    +0.178 A 
ATOM      3  N   UNL     1       0.886  10.259   0.149  0.00  0.00    -0.224 NA
ATOM      4  C   UNL     1       0.707  11.571   0.158  0.00  0.00    +0.082 A 
ATOM      5  C   UNL     1      -0.564  12.075   0.172  0.00  0.00    +0.077 A 
ATOM      6  S   UNL     1      -1.520  10.564   0.164  0.00  0.00    -0.059 S 
ATOM      7  H   UNL     1       0.690   7.554   0.135  0.00  0.00    +0.176 HD
ENDROOT
BRANCH   4   8
ATOM      8  C   UNL     1       1.875  12.486   0.152  0.00  0.00    +0.019 A 
ATOM      9  C   UNL     1       1.682  13.866   0.155  0.00  0.00    +0.013 A 
ATOM     10  C   UNL     1       2.772  14.713   0.155  0.00  0.00    +0.021 A 
ATOM     11  C   UNL     1       4.055  14.194   0.141  0.00  0.00    +0.042 A 
ATOM     12  C   UNL     1       4.253  12.824   0.133  0.00  0.00    +0.040 A 
ATOM     13  C   UNL     1       3.169  11.967   0.138  0.00  0.00    +0.052 A 
ATOM     14 CL   UNL     1       3.418  10.249   0.126  0.00  0.00    -0.083 Cl
ATOM     15 CL   UNL     1       5.421  15.265   0.134  0.00  0.00    -0.083 Cl
ENDBRANCH   4   8
BRANCH   1  17
ATOM     16  C   UNL     1      -1.371   6.051   0.250  0.00  0.00    +0.142 C 
ATOM     17  N   UNL     1      -1.364   7.348   0.152  0.00  0.00    -0.188 NA
BRANCH  16  27
ATOM     18  C   UNL     1       1.192   2.236  -2.088  0.00  0.00    +0.001 A 
ATOM     19  C   UNL     1      -0.001   2.905  -2.352  0.00  0.00    +0.001 A 
ATOM     20  C   UNL     1      -0.443   3.899  -1.531  0.00  0.00    +0.009 A 
ATOM     21  C   UNL     1       0.317   4.262  -0.412  0.00  0.00    -0.006 A 
ATOM     22  C   UNL     1       1.533   3.587  -0.143  0.00  0.00    -0.017 A 
ATOM     23  C   UNL     1       1.955   2.563  -1.008  0.00  0.00    +0.008 A 
ATOM     24  C   UNL     1       2.294   3.953   0.981  0.00  0.00    +0.012 A 
ATOM     25  C   UNL     1       1.876   4.945   1.811  0.00  0.00    +0.046 A 
ATOM     26  C   UNL     1       0.688   5.637   1.588  0.00  0.00    +0.126 A 
ATOM     27  C   UNL     1      -0.116   5.325   0.492  0.00  0.00    +0.044 A 
BRANCH  26  28
ATOM     28  O   UNL     1       0.309   6.621   2.445  0.00  0.00    -0.506 OA
ATOM     29  H   UNL     1      -0.172   6.303   3.221  0.00  0.00    +0.292 HD
ENDBRANCH  26  28
ENDBRANCH  16  27
ENDBRANCH   1  17
TORSDOF 4
