REMARK  Name = ZINC18017139
REMARK  12 active torsions:
REMARK  status: ('A' for Active; 'I' for Inactive)
REMARK    1  A    between atoms: C_1  and  C_2
REMARK    2  A    between atoms: C_2  and  C_3
REMARK    3  A    between atoms: C_6  and  C_9
REMARK    4  A    between atoms: C_9  and  C_11
REMARK    5  A    between atoms: C_9  and  N_31
REMARK    6  A    between atoms: C_11  and  N_12
REMARK    7  A    between atoms: C_13  and  C_15
REMARK    8  A    between atoms: C_18  and  S_21
REMARK    9  A    between atoms: S_21  and  N_24
REMARK   10  A    between atoms: N_24  and  C_25
REMARK   11  A    between atoms: N_31  and  C_32
REMARK   12  A    between atoms: N_31  and  C_33
REMARK                            x       y       z     vdW  Elec       q    Type
REMARK                         _______ _______ _______ _____ _____    ______ ____
ROOT
ATOM      1  N   UNL     1       7.111  -5.923  -3.316  0.00  0.00    -0.313 N 
ATOM      2  C   UNL     1       7.343  -7.036  -4.040  0.00  0.00    +0.244 C 
ATOM      3  O   UNL     1       7.593  -8.084  -3.478  0.00  0.00    -0.270 OA
ATOM      4  H   UNL     1       6.911  -5.086  -3.764  0.00  0.00    +0.149 HD
ENDROOT
BRANCH   2   5
ATOM      5  C   UNL     1       7.291  -6.982  -5.516  0.00  0.00    +0.037 A 
ATOM      6  C   UNL     1       7.009  -5.778  -6.164  0.00  0.00    +0.015 A 
ATOM      7  C   UNL     1       6.963  -5.734  -7.542  0.00  0.00    +0.029 A 
ATOM      8  C   UNL     1       7.196  -6.880  -8.282  0.00  0.00    +0.109 A 
ATOM      9  C   UNL     1       7.475  -8.077  -7.646  0.00  0.00    +0.029 A 
ATOM     10  C   UNL     1       7.530  -8.133  -6.269  0.00  0.00    +0.015 A 
BRANCH   8  11
ATOM     11  S   UNL     1       7.135  -6.816 -10.042  0.00  0.00    +0.072 S 
ATOM     12  O   UNL     1       6.944  -8.151 -10.491  0.00  0.00    -0.150 OA
ATOM     13  O   UNL     1       6.241  -5.764 -10.379  0.00  0.00    -0.150 OA
BRANCH  11  14
ATOM     14  N   UNL     1       8.634  -6.349 -10.567  0.00  0.00    -0.216 N 
ATOM     15  H   UNL     1       9.171  -6.954 -11.103  0.00  0.00    +0.174 HD
BRANCH  14  16
ATOM     16  C   UNL     1       9.127  -5.084 -10.238  0.00  0.00    +0.048 A 
ATOM     17  C   UNL     1       8.640  -3.957 -10.888  0.00  0.00    +0.024 A 
ATOM     18  C   UNL     1       9.129  -2.708 -10.560  0.00  0.00    +0.002 A 
ATOM     19  C   UNL     1      10.103  -2.578  -9.587  0.00  0.00    +0.000 A 
ATOM     20  C   UNL     1      10.589  -3.698  -8.938  0.00  0.00    +0.002 A 
ATOM     21  C   UNL     1      10.101  -4.950  -9.256  0.00  0.00    +0.024 A 
ENDBRANCH  14  16
ENDBRANCH  11  14
ENDBRANCH   8  11
ENDBRANCH   2   5
BRANCH   1  22
ATOM     22  C   UNL     1       7.162  -5.976  -1.853  0.00  0.00    +0.094 C 
BRANCH  22  23
ATOM     23  C   UNL     1       6.738  -4.623  -1.278  0.00  0.00    -0.021 C 
BRANCH  23  27
ATOM     24  C   UNL     1       2.659  -3.862  -2.294  0.00  0.00    -0.048 A 
ATOM     25  C   UNL     1       3.675  -3.272  -3.023  0.00  0.00    +0.004 A 
ATOM     26  C   UNL     1       4.995  -3.518  -2.694  0.00  0.00    +0.002 A 
ATOM     27  C   UNL     1       5.299  -4.354  -1.636  0.00  0.00    -0.059 A 
ATOM     28  C   UNL     1       4.283  -4.944  -0.907  0.00  0.00    +0.002 A 
ATOM     29  C   UNL     1       2.963  -4.694  -1.233  0.00  0.00    +0.004 A 
BRANCH  24  31
ATOM     30  C   UNL     1       0.722  -2.370  -1.882  0.00  0.00    +0.009 C 
ATOM     31  C   UNL     1       1.220  -3.594  -2.653  0.00  0.00    +0.032 C 
ENDBRANCH  24  31
ENDBRANCH  23  27
BRANCH  23  32
ATOM     32  N   UNL     1       6.883  -4.645   0.184  0.00  0.00    +0.382 N 
ATOM     33  C   UNL     1       8.298  -4.830   0.533  0.00  0.00    -0.096 C 
ATOM     34  C   UNL     1       6.403  -3.374   0.742  0.00  0.00    -0.096 C 
ATOM     35  H   UNL     1       6.340  -5.406   0.564  0.00  0.00    -0.082 HD
ENDBRANCH  23  32
ENDBRANCH  22  23
ENDBRANCH   1  22
TORSDOF 9
