REMARK  Name = ZINC38779419
REMARK  8 active torsions:
REMARK  status: ('A' for Active; 'I' for Inactive)
REMARK    1  A    between atoms: C_1  and  C_2
REMARK    2  A    between atoms: C_2  and  C_3
REMARK    3  A    between atoms: N_10  and  N_11
REMARK    4  A    between atoms: N_11  and  C_12
REMARK    5  A    between atoms: C_22  and  C_25
REMARK    6  A    between atoms: C_28  and  O_33
REMARK    7  A    between atoms: C_29  and  O_31
REMARK    8  A    between atoms: O_31  and  C_32
REMARK                            x       y       z     vdW  Elec       q    Type
REMARK                         _______ _______ _______ _____ _____    ______ ____
ROOT
ATOM      1  C   UNL     1      -1.412  -0.526   0.013  0.00  0.00    -0.047 A 
ATOM      2  C   UNL     1      -2.050  -0.766   1.217  0.00  0.00    +0.007 A 
ATOM      3  C   UNL     1      -3.346  -1.247   1.243  0.00  0.00    +0.046 A 
ATOM      4  C   UNL     1      -4.020  -1.492   0.057  0.00  0.00    +0.130 A 
ATOM      5  C   UNL     1      -3.374  -1.245  -1.161  0.00  0.00    +0.040 A 
ATOM      6  C   UNL     1      -2.070  -0.758  -1.179  0.00  0.00    +0.017 A 
ATOM      7  C   UNL     1      -4.103  -1.498  -2.424  0.00  0.00    +0.073 C 
ATOM      8  N   UNL     1      -3.655  -1.080  -3.568  0.00  0.00    -0.188 NA
ATOM      9  C   UNL     1      -5.404  -2.275  -2.311  0.00  0.00    +0.107 C 
ATOM     10  C   UNL     1      -6.125  -1.768  -1.054  0.00  0.00    +0.210 C 
ATOM     11  O   UNL     1      -5.289  -1.970   0.085  0.00  0.00    -0.483 OA
ENDROOT
BRANCH  10  12
ATOM     12  C   UNL     1      -7.414  -2.527  -0.873  0.00  0.00    -0.003 A 
ATOM     13  C   UNL     1      -7.412  -3.743  -0.214  0.00  0.00    +0.011 A 
ATOM     14  C   UNL     1      -8.592  -4.443  -0.046  0.00  0.00    +0.049 A 
ATOM     15  C   UNL     1      -9.780  -3.927  -0.537  0.00  0.00    +0.158 A 
ATOM     16  C   UNL     1      -9.782  -2.703  -1.200  0.00  0.00    +0.162 A 
ATOM     17  C   UNL     1      -8.597  -2.004  -1.361  0.00  0.00    +0.056 A 
BRANCH  16  18
ATOM     18  O   UNL     1     -10.946  -2.193  -1.684  0.00  0.00    -0.491 OA
ATOM     19  C   UNL     1     -10.873  -0.932  -2.353  0.00  0.00    +0.277 C 
ENDBRANCH  16  18
BRANCH  15  20
ATOM     20  O   UNL     1     -10.941  -4.615  -0.373  0.00  0.00    -0.503 OA
ATOM     21  H   UNL     1     -11.415  -4.399   0.442  0.00  0.00    +0.292 HD
ENDBRANCH  15  20
ENDBRANCH  10  12
BRANCH   1  23
ATOM     22  C   UNL     1      -0.019   1.526   0.010  0.00  0.00    +0.009 C 
ATOM     23  C   UNL     1       0.002  -0.004   0.002  0.00  0.00    +0.032 C 
ENDBRANCH   1  23
BRANCH   8  24
ATOM     24  N   UNL     1      -4.375  -1.341  -4.741  0.00  0.00    -0.229 N 
ATOM     25  H   UNL     1      -5.209  -1.834  -4.698  0.00  0.00    +0.172 HD
BRANCH  24  26
ATOM     26  C   UNL     1      -3.869  -0.869  -6.032  0.00  0.00    +0.283 C 
ATOM     27  N   UNL     1      -4.443   0.445  -6.348  0.00  0.00    -0.347 N 
ATOM     28  C   UNL     1      -5.115   0.321  -7.456  0.00  0.00    +0.061 A 
ATOM     29  C   UNL     1      -5.898   1.268  -8.261  0.00  0.00    +0.027 A 
ATOM     30  C   UNL     1      -6.499   0.844  -9.390  0.00  0.00    +0.002 A 
ATOM     31  C   UNL     1      -6.412  -0.485  -9.842  0.00  0.00    +0.002 A 
ATOM     32  C   UNL     1      -5.721  -1.434  -9.179  0.00  0.00    +0.027 A 
ATOM     33  C   UNL     1      -5.023  -1.086  -7.934  0.00  0.00    +0.061 A 
ATOM     34  N   UNL     1      -4.296  -1.777  -7.103  0.00  0.00    -0.347 N 
ATOM     35  H   UNL     1      -4.340   1.257  -5.827  0.00  0.00    +0.163 HD
ATOM     36  H   UNL     1      -4.078  -2.719  -7.179  0.00  0.00    +0.163 HD
ENDBRANCH  24  26
ENDBRANCH   8  24
TORSDOF 6
