REMARK  Name = ZINC09109942
REMARK  1 active torsions:
REMARK  status: ('A' for Active; 'I' for Inactive)
REMARK    1  A    between atoms: C_10  and  N_11
REMARK                            x       y       z     vdW  Elec       q    Type
REMARK                         _______ _______ _______ _____ _____    ______ ____
ROOT
ATOM      1  N   UNL     1      -1.896   5.884   2.847  0.00  0.00    -0.209 N 
ATOM      2  C   UNL     1      -2.548   6.513   1.810  0.00  0.00    +0.228 C 
ATOM      3  O   UNL     1      -3.520   7.236   1.868  0.00  0.00    -0.275 OA
ATOM      4  C   UNL     1      -1.805   6.113   0.639  0.00  0.00    +0.074 C 
ATOM      5  C   UNL     1      -1.713   6.344  -0.808  0.00  0.00    -0.054 C 
ATOM      6  C   UNL     1      -1.865   7.837  -1.187  0.00  0.00    -0.016 C 
ATOM      7  C   UNL     1      -0.441   8.406  -0.985  0.00  0.00    -0.020 C 
ATOM      8  C   UNL     1       0.462   7.229  -1.403  0.00  0.00    -0.076 C 
ATOM      9  C   UNL     1       0.278   5.302   0.029  0.00  0.00    +0.053 C 
ATOM     10  C   UNL     1      -0.330   6.069   1.183  0.00  0.00    +0.089 C 
ATOM     11  C   UNL     1      -0.659   5.421   2.491  0.00  0.00    +0.229 C 
ATOM     12  O   UNL     1       0.032   4.641   3.110  0.00  0.00    -0.275 OA
ATOM     13  C   UNL     1      -0.058   3.842   0.025  0.00  0.00    -0.026 A 
ATOM     14  C   UNL     1      -1.238   3.132   0.032  0.00  0.00    +0.004 A 
ATOM     15  C   UNL     1      -1.221   1.749   0.017  0.00  0.00    +0.002 A 
ATOM     16  C   UNL     1      -0.013   1.076   0.008  0.00  0.00    +0.022 A 
ATOM     17  C   UNL     1       1.174   1.780   0.000  0.00  0.00    +0.062 A 
ATOM     18  C   UNL     1       1.164   3.174   0.008  0.00  0.00    +0.054 A 
ATOM     19  N   UNL     1       2.218   4.092   0.001  0.00  0.00    -0.285 N 
ATOM     20  C   UNL     1       1.780   5.366   0.012  0.00  0.00    +0.212 C 
ATOM     21  O   UNL     1       2.463   6.368   0.009  0.00  0.00    -0.277 OA
ATOM     22 CL   UNL     1       2.686   0.927  -0.020  0.00  0.00    -0.082 Cl
ATOM     23  H   UNL     1       3.155   3.841  -0.009  0.00  0.00    +0.155 HD
ATOM     24  N   UNL     1      -0.299   5.990  -1.132  0.00  0.00    +0.395 N 
ATOM     25  H   UNL     1      -0.269   5.376  -1.955  0.00  0.00    -0.079 HD
ENDROOT
BRANCH   1  35
ATOM     26  C   UNL     1      -4.729   2.375   5.117  0.00  0.00    +0.001 A 
ATOM     27  C   UNL     1      -4.197   2.505   3.836  0.00  0.00    +0.001 A 
ATOM     28  C   UNL     1      -3.450   3.590   3.495  0.00  0.00    +0.010 A 
ATOM     29  C   UNL     1      -3.209   4.595   4.445  0.00  0.00    +0.004 A 
ATOM     30  C   UNL     1      -3.750   4.464   5.748  0.00  0.00    -0.016 A 
ATOM     31  C   UNL     1      -4.517   3.329   6.064  0.00  0.00    +0.008 A 
ATOM     32  C   UNL     1      -3.510   5.469   6.700  0.00  0.00    +0.008 A 
ATOM     33  C   UNL     1      -2.764   6.558   6.367  0.00  0.00    +0.002 A 
ATOM     34  C   UNL     1      -2.223   6.694   5.092  0.00  0.00    +0.024 A 
ATOM     35  C   UNL     1      -2.439   5.734   4.128  0.00  0.00    +0.052 A 
ENDBRANCH   1  35
TORSDOF 1
