REMARK  Name = ZINC39980198
REMARK  5 active torsions:
REMARK  status: ('A' for Active; 'I' for Inactive)
REMARK    1  A    between atoms: C_1  and  C_2
REMARK    2  A    between atoms: C_2  and  C_3
REMARK    3  A    between atoms: C_3  and  C_4
REMARK    4  A    between atoms: C_5  and  C_11
REMARK    5  A    between atoms: C_6  and  O_10
REMARK                            x       y       z     vdW  Elec       q    Type
REMARK                         _______ _______ _______ _____ _____    ______ ____
ROOT
ATOM      1  C   UNL     1       0.739  -2.004  -1.265  0.00  0.00    +0.071 C 
ATOM      2  C   UNL     1      -0.154  -2.771  -1.895  0.00  0.00    +0.050 C 
ATOM      3  C   UNL     1       0.306  -4.187  -1.598  0.00  0.00    +0.287 C 
ATOM      4  N   UNL     1       1.502  -3.979  -0.765  0.00  0.00    -0.151 NA
ATOM      5  N   UNL     1       1.667  -2.763  -0.640  0.00  0.00    -0.156 NA
ENDROOT
BRANCH   2   6
ATOM      6  C   UNL     1      -1.342  -2.333  -2.712  0.00  0.00    +0.240 C 
ATOM      7  C   UNL     1      -2.619  -2.785  -2.049  0.00  0.00    +0.011 A 
ATOM      8  C   UNL     1      -3.194  -2.529  -0.826  0.00  0.00    +0.008 A 
ATOM      9  C   UNL     1      -4.407  -3.110  -0.498  0.00  0.00    +0.000 A 
ATOM     10  C   UNL     1      -5.045  -3.947  -1.397  0.00  0.00    +0.001 A 
ATOM     11  C   UNL     1      -4.477  -4.211  -2.626  0.00  0.00    +0.015 A 
ATOM     12  C   UNL     1      -3.254  -3.630  -2.963  0.00  0.00    +0.066 A 
ATOM     13  C   UNL     1      -2.404  -3.707  -4.165  0.00  0.00    +0.340 C 
ATOM     14  O   UNL     1      -2.660  -4.358  -5.159  0.00  0.00    -0.245 OA
ATOM     15  O   UNL     1      -1.305  -2.951  -4.001  0.00  0.00    -0.448 OA
ENDBRANCH   2   6
BRANCH   3  16
ATOM     16  O   UNL     1      -0.698  -4.903  -0.876  0.00  0.00    -0.366 OA
ATOM     17  H   UNL     1      -0.454  -5.814  -0.661  0.00  0.00    +0.212 HD
ENDBRANCH   3  16
BRANCH   1  18
ATOM     18  C   UNL     1       0.718  -0.497  -1.257  0.00  0.00    +0.057 C 
BRANCH  18  20
ATOM     19  C   UNL     1      -0.019   1.526   0.010  0.00  0.00    +0.004 C 
ATOM     20  C   UNL     1       0.002  -0.004   0.002  0.00  0.00    +0.003 C 
ENDBRANCH  18  20
ENDBRANCH   1  18
TORSDOF 4
