REMARK  Name = ZINC67582642
REMARK  11 active torsions:
REMARK  status: ('A' for Active; 'I' for Inactive)
REMARK    1  A    between atoms: C_1  and  C_2
REMARK    2  A    between atoms: N_5  and  C_8
REMARK    3  A    between atoms: C_8  and  C_9
REMARK    4  A    between atoms: C_9  and  C_11
REMARK    5  A    between atoms: C_9  and  O_26
REMARK    6  A    between atoms: C_11  and  N_12
REMARK    7  A    between atoms: N_15  and  C_16
REMARK    8  A    between atoms: C_16  and  C_17
REMARK    9  A    between atoms: C_17  and  C_18
REMARK   10  A    between atoms: C_17  and  C_19
REMARK   11  A    between atoms: C_17  and  N_20
REMARK                            x       y       z     vdW  Elec       q    Type
REMARK                         _______ _______ _______ _____ _____    ______ ____
ROOT
ATOM      1  N   UNL     1       0.774  -6.178   4.134  0.00  0.00    -0.297 N 
ATOM      2  C   UNL     1       0.837  -7.504   4.364  0.00  0.00    +0.300 C 
ATOM      3  O   UNL     1       0.398  -8.285   3.542  0.00  0.00    -0.253 OA
ATOM      4  N   UNL     1       1.388  -7.965   5.504  0.00  0.00    -0.301 N 
ATOM      5  H   UNL     1       1.124  -5.555   4.790  0.00  0.00    +0.150 HD
ATOM      6  H   UNL     1       1.738  -7.342   6.160  0.00  0.00    +0.150 HD
ENDROOT
BRANCH   1   7
ATOM      7  C   UNL     1       0.176  -5.676   2.894  0.00  0.00    +0.135 C 
BRANCH   7   8
ATOM      8  C   UNL     1       0.229  -4.147   2.884  0.00  0.00    +0.115 C 
BRANCH   8   9
ATOM      9  O   UNL     1       1.592  -3.719   2.846  0.00  0.00    -0.392 OA
ATOM     10  H   UNL     1       2.080  -4.027   2.070  0.00  0.00    +0.210 HD
ENDBRANCH   8   9
BRANCH   8  11
ATOM     11  C   UNL     1      -0.506  -3.620   1.650  0.00  0.00    -0.046 C 
BRANCH  11  16
ATOM     12  C   UNL     1      -1.507   1.993   1.528  0.00  0.00    +0.007 C 
ATOM     13  C   UNL     1      -1.683   0.473   1.520  0.00  0.00    -0.018 C 
ATOM     14  C   UNL     1      -1.138  -0.112   2.826  0.00  0.00    -0.016 C 
ATOM     15  C   UNL     1      -1.245  -1.638   2.778  0.00  0.00    -0.078 C 
ATOM     16  N   UNL     1      -0.464  -2.151   1.646  0.00  0.00    +0.381 N 
ATOM     17  C   UNL     1      -1.026  -1.651   0.386  0.00  0.00    -0.078 C 
ATOM     18  C   UNL     1      -0.911  -0.126   0.341  0.00  0.00    -0.016 C 
ATOM     19  H   UNL     1       0.493  -1.844   1.732  0.00  0.00    -0.082 HD
ENDBRANCH  11  16
ENDBRANCH   8  11
ENDBRANCH   7   8
ENDBRANCH   1   7
BRANCH   4  20
ATOM     20  C   UNL     1       1.457  -9.407   5.754  0.00  0.00    +0.093 C 
BRANCH  20  21
ATOM     21  C   UNL     1       2.014  -9.656   7.157  0.00  0.00    -0.055 C 
ATOM     22  C   UNL     1       1.032  -9.116   8.198  0.00  0.00    -0.008 C 
ATOM     23  C   UNL     1       2.208 -11.159   7.369  0.00  0.00    -0.008 C 
BRANCH  21  24
ATOM     24  N   UNL     1       3.305  -8.970   7.300  0.00  0.00    +0.384 N 
ATOM     25  C   UNL     1       4.232  -9.457   6.271  0.00  0.00    -0.078 C 
ATOM     26  C   UNL     1       5.552  -8.688   6.364  0.00  0.00    -0.019 C 
ATOM     27  C   UNL     1       6.166  -8.904   7.751  0.00  0.00    -0.004 C 
ATOM     28  C   UNL     1       5.160  -8.461   8.818  0.00  0.00    -0.019 C 
ATOM     29  C   UNL     1       3.855  -9.238   8.634  0.00  0.00    -0.078 C 
ATOM     30  H   UNL     1       3.171  -7.976   7.186  0.00  0.00    -0.081 HD
ENDBRANCH  21  24
ENDBRANCH  20  21
ENDBRANCH   4  20
TORSDOF 8
