REMARK  Name = ZINC06844148
REMARK  5 active torsions:
REMARK  status: ('A' for Active; 'I' for Inactive)
REMARK    1  A    between atoms: C_1  and  C_2
REMARK    2  A    between atoms: C_2  and  C_3
REMARK    3  A    between atoms: C_9  and  C_21
REMARK    4  A    between atoms: C_12  and  C_14
REMARK    5  A    between atoms: C_24  and  N_27
REMARK                            x       y       z     vdW  Elec       q    Type
REMARK                         _______ _______ _______ _____ _____    ______ ____
ROOT
ATOM      1  C   UNL     1      -1.373  -0.551  -0.084  0.00  0.00    -0.047 A 
ATOM      2  C   UNL     1      -1.964  -0.798   1.159  0.00  0.00    +0.006 A 
ATOM      3  C   UNL     1      -3.238  -1.264   1.269  0.00  0.00    +0.029 A 
ATOM      4  C   UNL     1      -3.984  -1.506   0.100  0.00  0.00    +0.075 A 
ATOM      5  C   UNL     1      -3.357  -1.244  -1.212  0.00  0.00    +0.028 A 
ATOM      6  C   UNL     1      -2.044  -0.760  -1.253  0.00  0.00    +0.015 A 
ATOM      7  C   UNL     1      -3.935  -1.421  -2.489  0.00  0.00    +0.098 C 
ATOM      8  N   UNL     1      -5.181  -1.867  -2.742  0.00  0.00    -0.180 NA
ATOM      9  N   UNL     1      -6.100  -2.223  -1.919  0.00  0.00    -0.220 N 
ATOM     10  C   UNL     1      -6.140  -2.274  -0.566  0.00  0.00    +0.146 C 
ATOM     11  N   UNL     1      -5.213  -1.959   0.336  0.00  0.00    -0.230 NA
ATOM     12  H   UNL     1      -6.921  -2.510  -2.347  0.00  0.00    +0.176 HD
ENDROOT
BRANCH  10  13
ATOM     13  C   UNL     1      -7.415  -2.752  -0.003  0.00  0.00    +0.016 A 
ATOM     14  C   UNL     1      -8.414  -3.247  -0.847  0.00  0.00    +0.014 A 
ATOM     15  C   UNL     1      -9.604  -3.693  -0.314  0.00  0.00    +0.039 A 
ATOM     16  C   UNL     1      -9.811  -3.652   1.057  0.00  0.00    +0.123 A 
ATOM     17  C   UNL     1      -8.824  -3.162   1.900  0.00  0.00    +0.039 A 
ATOM     18  C   UNL     1      -7.628  -2.718   1.379  0.00  0.00    +0.014 A 
ATOM     19  F   UNL     1     -10.980  -4.090   1.574  0.00  0.00    -0.205 F 
ENDBRANCH  10  13
BRANCH   7  20
ATOM     20  C   UNL     1      -3.097  -1.085  -3.654  0.00  0.00    +0.003 A 
ATOM     21  C   UNL     1      -2.217  -2.035  -4.185  0.00  0.00    +0.012 A 
ATOM     22  C   UNL     1      -1.437  -1.713  -5.274  0.00  0.00    +0.033 A 
ATOM     23  C   UNL     1      -1.522  -0.453  -5.844  0.00  0.00    +0.126 A 
ATOM     24  C   UNL     1      -2.391   0.492  -5.324  0.00  0.00    +0.033 A 
ATOM     25  C   UNL     1      -3.182   0.185  -4.239  0.00  0.00    +0.012 A 
BRANCH  23  26
ATOM     26  N   UNL     1      -0.680  -0.116  -7.013  0.00  0.00    +0.056 N 
ATOM     27  O   UNL     1       0.147  -1.012  -7.510  0.00  0.00    -0.126 OA
ATOM     28  O   UNL     1      -0.759   1.081  -7.558  0.00  0.00    -0.126 OA
ENDBRANCH  23  26
ENDBRANCH   7  20
BRANCH   1  30
ATOM     29  C   UNL     1       0.028   1.494  -0.109  0.00  0.00    +0.009 C 
ATOM     30  C   UNL     1       0.042  -0.035  -0.133  0.00  0.00    +0.032 C 
ENDBRANCH   1  30
TORSDOF 4
