REMARK  Name = ZINC12375414
REMARK  5 active torsions:
REMARK  status: ('A' for Active; 'I' for Inactive)
REMARK    1  A    between atoms: C_4  and  C_20
REMARK    2  A    between atoms: C_5  and  C_7
REMARK    3  A    between atoms: C_9  and  C_18
REMARK    4  A    between atoms: C_10  and  N_17
REMARK    5  A    between atoms: C_13  and  C_14
REMARK                            x       y       z     vdW  Elec       q    Type
REMARK                         _______ _______ _______ _____ _____    ______ ____
ROOT
ATOM      1  C   UNL     1      -0.070   5.347   0.032  0.00  0.00    +0.106 C 
ATOM      2  C   UNL     1      -0.783   5.838  -1.196  0.00  0.00    +0.077 C 
ATOM      3  C   UNL     1      -2.050   6.322  -1.138  0.00  0.00    +0.100 C 
ATOM      4  N   UNL     1      -2.723   6.385   0.060  0.00  0.00    -0.296 N 
ATOM      5  C   UNL     1      -2.030   6.309   1.246  0.00  0.00    +0.092 C 
ATOM      6  C   UNL     1      -0.760   5.824   1.278  0.00  0.00    +0.070 C 
ATOM      7  S   UNL     1      -2.796   6.844   2.740  0.00  0.00    -0.034 SA
ATOM      8  H   UNL     1      -3.817   6.497   0.070  0.00  0.00    +0.154 HD
ENDROOT
BRANCH   1  13
ATOM      9  C   UNL     1      -1.219   1.751   0.017  0.00  0.00    +0.000 A 
ATOM     10  C   UNL     1      -0.013   1.076   0.008  0.00  0.00    +0.001 A 
ATOM     11  C   UNL     1       1.175   1.783   0.000  0.00  0.00    +0.012 A 
ATOM     12  C   UNL     1       1.156   3.166   0.008  0.00  0.00    +0.059 A 
ATOM     13  C   UNL     1      -0.050   3.840   0.023  0.00  0.00    -0.022 A 
ATOM     14  C   UNL     1      -1.238   3.133   0.030  0.00  0.00    +0.005 A 
BRANCH  12  15
ATOM     15  C   UNL     1       2.451   3.937  -0.001  0.00  0.00    +0.418 C 
ATOM     16  F   UNL     1       3.526   3.042  -0.015  0.00  0.00    -0.166 F 
ATOM     17  F   UNL     1       2.503   4.748  -1.139  0.00  0.00    -0.166 F 
ATOM     18  F   UNL     1       2.525   4.736   1.145  0.00  0.00    -0.166 F 
ENDBRANCH  12  15
ENDBRANCH   1  13
BRANCH   3  19
ATOM     19  N   UNL     1      -2.666   6.753  -2.288  0.00  0.00    -0.346 N 
ATOM     20  H   UNL     1      -3.693   7.146  -2.247  0.00  0.00    +0.143 HD
ATOM     21  H   UNL     1      -2.134   6.705  -3.249  0.00  0.00    +0.143 HD
ENDBRANCH   3  19
BRANCH   6  22
ATOM     22  C   UNL     1      -0.064   5.766   2.528  0.00  0.00    +0.098 C 
ATOM     23  N   UNL     1       0.488   5.721   3.520  0.00  0.00    -0.191 NA
ENDBRANCH   6  22
BRANCH   2  24
ATOM     24  C   UNL     1      -0.110   5.796  -2.459  0.00  0.00    +0.099 C 
ATOM     25  N   UNL     1       0.424   5.762  -3.461  0.00  0.00    -0.191 NA
ENDBRANCH   2  24
TORSDOF 5
