REMARK  Name = ZINC03303531
REMARK  8 active torsions:
REMARK  status: ('A' for Active; 'I' for Inactive)
REMARK    1  A    between atoms: C_1  and  C_2
REMARK    2  A    between atoms: C_5  and  C_8
REMARK    3  A    between atoms: C_8  and  C_10
REMARK    4  A    between atoms: C_14  and  N_15
REMARK    5  A    between atoms: C_16  and  C_18
REMARK    6  A    between atoms: C_18  and  O_19
REMARK    7  A    between atoms: O_19  and  C_20
REMARK    8  A    between atoms: C_20  and  C_22
REMARK                            x       y       z     vdW  Elec       q    Type
REMARK                         _______ _______ _______ _____ _____    ______ ____
ROOT
ATOM      1  C   UNL     1       0.088  -4.893   1.295  0.00  0.00    +0.054 A 
ATOM      2  C   UNL     1       0.166  -6.337   1.433  0.00  0.00    -0.024 A 
ATOM      3  C   UNL     1       0.160  -6.771   2.712  0.00  0.00    -0.005 A 
ATOM      4  S   UNL     1       0.054  -5.299   3.687  0.00  0.00    -0.077 S 
ATOM      5  C   UNL     1       0.024  -4.147   2.465  0.00  0.00    +0.083 A 
ATOM      6  C   UNL     1       0.227  -8.192   3.179  0.00  0.00    +0.043 C 
ATOM      7  C   UNL     1      -0.075  -9.108   1.984  0.00  0.00    +0.005 C 
ATOM      8  C   UNL     1       0.766  -8.655   0.787  0.00  0.00    +0.005 C 
ATOM      9  C   UNL     1       0.250  -7.311   0.268  0.00  0.00    +0.037 C 
ENDROOT
BRANCH   5  10
ATOM     10  N   UNL     1      -0.051  -2.770   2.595  0.00  0.00    -0.277 N 
ATOM     11  C   UNL     1       0.006  -2.204   3.817  0.00  0.00    +0.255 C 
ATOM     12  O   UNL     1       0.123  -2.901   4.803  0.00  0.00    -0.272 OA
ATOM     13  H   UNL     1      -0.144  -2.213   1.806  0.00  0.00    +0.155 HD
BRANCH  11  14
ATOM     14  C   UNL     1      -0.075  -0.706   3.958  0.00  0.00    +0.328 C 
BRANCH  14  15
ATOM     15  O   UNL     1       0.007  -0.353   5.340  0.00  0.00    -0.451 OA
BRANCH  15  16
ATOM     16  C   UNL     1      -0.050   0.960   5.640  0.00  0.00    +0.355 C 
ATOM     17  O   UNL     1      -0.167   1.782   4.753  0.00  0.00    -0.243 OA
BRANCH  16  18
ATOM     18  C   UNL     1       0.028   1.399   7.046  0.00  0.00    +0.126 C 
ATOM     19  C   UNL     1      -0.035   2.696   7.336  0.00  0.00    +0.014 C 
ATOM     20  C   UNL     1       0.034   3.200   8.747  0.00  0.00    +0.126 C 
ATOM     21  C   UNL     1       0.565   2.150   9.678  0.00  0.00    +0.233 C 
ATOM     22  O   UNL     1       0.972   2.481  10.771  0.00  0.00    -0.274 OA
ATOM     23  N   UNL     1       0.602   0.852   9.331  0.00  0.00    -0.236 N 
ATOM     24  N   UNL     1       0.163   0.448   8.062  0.00  0.00    -0.259 N 
ATOM     25  H   UNL     1       0.930   0.193   9.962  0.00  0.00    +0.173 HD
ATOM     26  H   UNL     1      -0.044  -0.484   7.889  0.00  0.00    +0.170 HD
ENDBRANCH  16  18
ENDBRANCH  15  16
ENDBRANCH  14  15
ENDBRANCH  11  14
ENDBRANCH   5  10
BRANCH   1  27
ATOM     27  C   UNL     1       0.083  -4.251  -0.021  0.00  0.00    +0.196 C 
ATOM     28  O   UNL     1       1.135  -4.008  -0.584  0.00  0.00    -0.287 OA
BRANCH  27  33
ATOM     29  C   UNL     1      -4.910  -2.875  -2.533  0.00  0.00    +0.044 C 
ATOM     30  C   UNL     1      -3.602  -3.235  -1.875  0.00  0.00    -0.050 A 
ATOM     31  C   UNL     1      -2.408  -2.861  -2.465  0.00  0.00    +0.004 A 
ATOM     32  C   UNL     1      -1.208  -3.187  -1.868  0.00  0.00    +0.012 A 
ATOM     33  C   UNL     1      -1.200  -3.897  -0.666  0.00  0.00    +0.022 A 
ATOM     34  C   UNL     1      -2.409  -4.271  -0.076  0.00  0.00    +0.012 A 
ATOM     35  C   UNL     1      -3.602  -3.934  -0.681  0.00  0.00    +0.004 A 
ENDBRANCH  27  33
ENDBRANCH   1  27
TORSDOF 7
