REMARK  Name = ZINC09471198
REMARK  4 active torsions:
REMARK  status: ('A' for Active; 'I' for Inactive)
REMARK    1  A    between atoms: C_4  and  C_7
REMARK    2  A    between atoms: C_7  and  N_8
REMARK    3  A    between atoms: C_10  and  C_18
REMARK    4  A    between atoms: C_11  and  C_13
REMARK                            x       y       z     vdW  Elec       q    Type
REMARK                         _______ _______ _______ _____ _____    ______ ____
ROOT
ATOM      1  N   UNL     1      -3.081  -1.902   0.385  0.00  0.00    -0.266 N 
ATOM      2  C   UNL     1      -2.444  -2.677  -0.519  0.00  0.00    +0.116 A 
ATOM      3  C   UNL     1      -1.221  -2.147  -0.735  0.00  0.00    +0.036 A 
ATOM      4  C   UNL     1      -1.097  -1.001   0.077  0.00  0.00    +0.106 A 
ATOM      5  N   UNL     1      -2.222  -0.857   0.747  0.00  0.00    -0.170 NA
ENDROOT
BRANCH   3   6
ATOM      6  C   UNL     1      -0.174  -2.686  -1.676  0.00  0.00    +0.193 C 
ATOM      7  N   UNL     1       0.750  -3.551  -0.931  0.00  0.00    -0.322 N 
ATOM      8  C   UNL     1       0.325  -4.826  -0.575  0.00  0.00    +0.041 A 
ATOM      9  C   UNL     1       0.791  -5.463   0.561  0.00  0.00    +0.024 A 
ATOM     10  C   UNL     1       0.333  -6.730   0.871  0.00  0.00    +0.002 A 
ATOM     11  C   UNL     1      -0.589  -7.365   0.054  0.00  0.00    +0.001 A 
ATOM     12  C   UNL     1      -1.063  -6.744  -1.083  0.00  0.00    +0.015 A 
ATOM     13  C   UNL     1      -0.608  -5.468  -1.408  0.00  0.00    +0.058 A 
ATOM     14  C   UNL     1      -1.075  -4.762  -2.615  0.00  0.00    +0.247 C 
ATOM     15  O   UNL     1      -1.677  -5.363  -3.485  0.00  0.00    -0.270 OA
ATOM     16  N   UNL     1      -0.826  -3.446  -2.742  0.00  0.00    -0.289 N 
ATOM     17  H   UNL     1       1.637  -3.239  -0.692  0.00  0.00    +0.148 HD
ATOM     18  H   UNL     1      -1.086  -2.993  -3.559  0.00  0.00    +0.151 HD
ENDBRANCH   3   6
BRANCH   4  19
ATOM     19  C   UNL     1       0.085  -0.115   0.158  0.00  0.00    +0.040 A 
ATOM     20  C   UNL     1       0.134   1.250   0.247  0.00  0.00    +0.018 A 
ATOM     21  C   UNL     1       1.366   1.865   0.311  0.00  0.00    +0.008 A 
ATOM     22  C   UNL     1       2.489   1.103   0.282  0.00  0.00    +0.046 A 
ATOM     23  S   UNL     1       1.817  -0.547   0.162  0.00  0.00    -0.095 S 
ENDBRANCH   4  19
BRANCH   1  24
ATOM     24  C   UNL     1      -4.436  -2.117   0.898  0.00  0.00    +0.178 C 
BRANCH  24  28
ATOM     25  C   UNL     1      -4.333  -2.291   5.165  0.00  0.00    +0.000 A 
ATOM     26  C   UNL     1      -4.519  -1.079   4.527  0.00  0.00    +0.000 A 
ATOM     27  C   UNL     1      -4.551  -1.022   3.146  0.00  0.00    +0.005 A 
ATOM     28  C   UNL     1      -4.400  -2.179   2.403  0.00  0.00    -0.026 A 
ATOM     29  C   UNL     1      -4.221  -3.392   3.042  0.00  0.00    +0.005 A 
ATOM     30  C   UNL     1      -4.182  -3.447   4.422  0.00  0.00    +0.000 A 
ENDBRANCH  24  28
ENDBRANCH   1  24
TORSDOF 4
