REMARK  Name = ZINC04087559
REMARK  6 active torsions:
REMARK  status: ('A' for Active; 'I' for Inactive)
REMARK    1  A    between atoms: C_1  and  C_2
REMARK    2  A    between atoms: C_5  and  N_9
REMARK    3  A    between atoms: C_6  and  C_8
REMARK    4  A    between atoms: C_10  and  N_17
REMARK    5  A    between atoms: C_18  and  C_20
REMARK    6  A    between atoms: C_21  and  C_22
REMARK                            x       y       z     vdW  Elec       q    Type
REMARK                         _______ _______ _______ _____ _____    ______ ____
ROOT
ATOM      1  N   UNL     1       1.226  -3.776   0.224  0.00  0.00    -0.218 N 
ATOM      2  C   UNL     1       1.016  -4.675  -0.770  0.00  0.00    +0.133 A 
ATOM      3  C   UNL     1       1.113  -5.933  -0.220  0.00  0.00    +0.026 A 
ATOM      4  C   UNL     1       1.387  -5.786   1.129  0.00  0.00    +0.079 A 
ATOM      5  N   UNL     1       1.462  -4.490   1.400  0.00  0.00    -0.168 NA
ATOM      6  C   UNL     1       1.538  -7.069   1.944  0.00  0.00    +0.127 C 
ATOM      7  S   UNL     1       0.804  -8.321   0.813  0.00  0.00    -0.150 S 
ATOM      8  C   UNL     1       0.992  -7.362  -0.745  0.00  0.00    +0.110 C 
ENDROOT
BRANCH   1  13
ATOM      9  C   UNL     1       1.178   1.874  -0.309  0.00  0.00    +0.044 C 
ATOM     10  C   UNL     1       1.191   0.374  -0.168  0.00  0.00    -0.050 A 
ATOM     11  C   UNL     1       1.914  -0.398  -1.059  0.00  0.00    +0.005 A 
ATOM     12  C   UNL     1       1.927  -1.772  -0.932  0.00  0.00    +0.028 A 
ATOM     13  C   UNL     1       1.215  -2.381   0.093  0.00  0.00    +0.070 A 
ATOM     14  C   UNL     1       0.490  -1.604   0.987  0.00  0.00    -0.025 A 
ATOM     15  C   UNL     1       0.485  -0.229   0.857  0.00  0.00    +0.008 A 
ATOM     16  C   UNL     1      -0.285  -2.260   2.100  0.00  0.00    +0.046 C 
ENDBRANCH   1  13
BRANCH   2  17
ATOM     17  N   UNL     1       0.750  -4.378  -2.105  0.00  0.00    -0.267 N 
ATOM     18  C   UNL     1       1.099  -5.250  -3.071  0.00  0.00    +0.242 C 
ATOM     19  O   UNL     1       1.585  -6.326  -2.774  0.00  0.00    -0.270 OA
ATOM     20  H   UNL     1       0.312  -3.545  -2.338  0.00  0.00    +0.157 HD
BRANCH  18  21
ATOM     21  C   UNL     1       0.896  -4.903  -4.477  0.00  0.00    +0.068 C 
ATOM     22  C   UNL     1       1.116  -5.825  -5.439  0.00  0.00    +0.013 C 
BRANCH  22  23
ATOM     23  C   UNL     1       1.323  -7.233  -5.073  0.00  0.00    -0.021 A 
ATOM     24  C   UNL     1       0.483  -7.845  -4.135  0.00  0.00    +0.012 A 
ATOM     25  C   UNL     1       0.678  -9.165  -3.795  0.00  0.00    +0.050 A 
ATOM     26  C   UNL     1       1.707  -9.894  -4.379  0.00  0.00    +0.166 A 
ATOM     27  C   UNL     1       2.548  -9.290  -5.315  0.00  0.00    +0.167 A 
ATOM     28  C   UNL     1       2.355  -7.968  -5.665  0.00  0.00    +0.057 A 
ATOM     29  O   UNL     1       3.466 -10.210  -5.732  0.00  0.00    -0.453 OA
ATOM     30  C   UNL     1       3.436 -11.258  -4.745  0.00  0.00    +0.466 C 
ATOM     31  O   UNL     1       2.100 -11.189  -4.213  0.00  0.00    -0.453 OA
ENDBRANCH  22  23
ENDBRANCH  18  21
ENDBRANCH   2  17
TORSDOF 4
