REMARK  Name = ZINC20641305
REMARK  3 active torsions:
REMARK  status: ('A' for Active; 'I' for Inactive)
REMARK    1  A    between atoms: C_1  and  C_2
REMARK    2  A    between atoms: C_3  and  C_20
REMARK    3  A    between atoms: N_22  and  C_23
REMARK                            x       y       z     vdW  Elec       q    Type
REMARK                         _______ _______ _______ _____ _____    ______ ____
ROOT
ATOM      1  C   UNL     1       4.210   4.259   0.169  0.00  0.00    +0.079 C 
ATOM      2  C   UNL     1       3.183   3.205  -0.250  0.00  0.00    +0.188 C 
ATOM      3  C   UNL     1       3.417   1.917   0.552  0.00  0.00    +0.162 C 
ATOM      4  C   UNL     1       2.448   0.863  -0.006  0.00  0.00    +0.123 C 
ATOM      5  C   UNL     1       1.049   1.434   0.039  0.00  0.00    +0.018 A 
ATOM      6  C   UNL     1      -0.028   0.567   0.083  0.00  0.00    +0.029 A 
ATOM      7  C   UNL     1      -1.319   1.062   0.110  0.00  0.00    +0.043 A 
ATOM      8  C   UNL     1      -1.534   2.429   0.101  0.00  0.00    +0.043 A 
ATOM      9  C   UNL     1      -0.462   3.297   0.057  0.00  0.00    +0.084 A 
ATOM     10  C   UNL     1       0.840   2.801   0.029  0.00  0.00    +0.147 A 
ATOM     11  O   UNL     1       1.871   3.686   0.031  0.00  0.00    -0.466 OA
ATOM     12 CL   UNL     1      -0.736   5.011   0.037  0.00  0.00    -0.080 Cl
ATOM     13 CL   UNL     1      -2.667  -0.030   0.163  0.00  0.00    -0.083 Cl
ATOM     14  N   UNL     1       2.783   0.631  -1.421  0.00  0.00    -0.319 N 
ATOM     15  C   UNL     1       3.182   1.690  -2.177  0.00  0.00    +0.134 C 
ATOM     16  S   UNL     1       3.489   1.431  -3.841  0.00  0.00    -0.019 S 
ATOM     17  N   UNL     1       3.341   2.924  -1.674  0.00  0.00    -0.289 N 
ATOM     18  H   UNL     1       2.709  -0.381  -1.845  0.00  0.00    +0.148 HD
ATOM     19  H   UNL     1       3.597   3.735  -2.370  0.00  0.00    +0.151 HD
ENDROOT
BRANCH   3  20
ATOM     20  C   UNL     1       3.130   2.160   2.011  0.00  0.00    +0.228 C 
ATOM     21  O   UNL     1       2.817   3.268   2.392  0.00  0.00    -0.275 OA
ATOM     22  N   UNL     1       3.221   1.146   2.894  0.00  0.00    -0.285 N 
ATOM     23  H   UNL     1       3.421   0.124   2.539  0.00  0.00    +0.155 HD
BRANCH  22  24
ATOM     24  C   UNL     1       3.063   1.392   4.263  0.00  0.00    +0.033 A 
ATOM     25  C   UNL     1       3.492   2.596   4.807  0.00  0.00    +0.025 A 
ATOM     26  C   UNL     1       3.329   2.839   6.157  0.00  0.00    +0.022 A 
ATOM     27  C   UNL     1       2.751   1.879   6.969  0.00  0.00    +0.041 A 
ATOM     28  C   UNL     1       2.328   0.677   6.430  0.00  0.00    +0.022 A 
ATOM     29  C   UNL     1       2.482   0.431   5.080  0.00  0.00    +0.025 A 
ATOM     30 CL   UNL     1       2.555   2.185   8.666  0.00  0.00    -0.084 Cl
ENDBRANCH  22  24
ENDBRANCH   3  20
TORSDOF 2
