REMARK  Name = ZINC13073189
REMARK  8 active torsions:
REMARK  status: ('A' for Active; 'I' for Inactive)
REMARK    1  A    between atoms: C_1  and  N_57
REMARK    2  A    between atoms: C_2  and  N_57
REMARK    3  A    between atoms: C_3  and  C_5
REMARK    4  A    between atoms: C_3  and  C_27
REMARK    5  A    between atoms: C_3  and  N_57
REMARK    6  A    between atoms: C_5  and  N_6
REMARK    7  A    between atoms: N_17  and  S_18
REMARK    8  A    between atoms: S_18  and  C_21
REMARK                            x       y       z     vdW  Elec       q    Type
REMARK                         _______ _______ _______ _____ _____    ______ ____
ROOT
ATOM      1  N   UNL     1      -1.339   2.147   0.421  0.00  0.00    -0.328 N 
ATOM      2  C   UNL     1      -0.154   1.431   0.514  0.00  0.00    +0.161 A 
ATOM      3  C   UNL     1      -0.187   0.060   0.865  0.00  0.00    +0.179 A 
ATOM      4  N   UNL     1       0.930  -0.632   0.951  0.00  0.00    -0.226 NA
ATOM      5  C   UNL     1       2.105  -0.035   0.706  0.00  0.00    +0.091 A 
ATOM      6  C   UNL     1       3.309  -0.751   0.791  0.00  0.00    +0.030 A 
ATOM      7  C   UNL     1       4.491  -0.122   0.537  0.00  0.00    +0.002 A 
ATOM      8  C   UNL     1       4.522   1.226   0.192  0.00  0.00    +0.002 A 
ATOM      9  C   UNL     1       3.373   1.952   0.100  0.00  0.00    +0.030 A 
ATOM     10  C   UNL     1       2.138   1.336   0.355  0.00  0.00    +0.091 A 
ATOM     11  N   UNL     1       0.993   2.030   0.271  0.00  0.00    -0.227 NA
ATOM     12  N   UNL     1      -1.402  -0.558   1.118  0.00  0.00    -0.197 N 
ATOM     13  H   UNL     1      -2.186   1.708   0.595  0.00  0.00    +0.147 HD
ATOM     14  H   UNL     1      -2.227  -0.051   1.054  0.00  0.00    +0.175 HD
ENDROOT
BRANCH  12  15
ATOM     15  S   UNL     1      -1.446  -2.162   1.528  0.00  0.00    +0.074 S 
ATOM     16  O   UNL     1      -2.812  -2.488   1.747  0.00  0.00    -0.150 OA
ATOM     17  O   UNL     1      -0.642  -2.847   0.577  0.00  0.00    -0.150 OA
BRANCH  15  18
ATOM     18  C   UNL     1      -0.634  -2.324   3.083  0.00  0.00    +0.109 A 
ATOM     19  C   UNL     1       0.727  -2.566   3.131  0.00  0.00    +0.029 A 
ATOM     20  C   UNL     1       1.365  -2.688   4.351  0.00  0.00    +0.002 A 
ATOM     21  C   UNL     1       0.641  -2.579   5.524  0.00  0.00    +0.000 A 
ATOM     22  C   UNL     1      -0.720  -2.343   5.476  0.00  0.00    +0.002 A 
ATOM     23  C   UNL     1      -1.358  -2.216   4.256  0.00  0.00    +0.029 A 
ENDBRANCH  15  18
ENDBRANCH  12  15
BRANCH   1  24
ATOM     24  C   UNL     1      -1.310   3.566   0.058  0.00  0.00    +0.092 C 
BRANCH  24  25
ATOM     25  C   UNL     1      -2.741   4.070  -0.140  0.00  0.00    -0.021 C 
BRANCH  25  26
ATOM     26  C   UNL     1      -2.716   5.546  -0.444  0.00  0.00    -0.059 A 
ATOM     27  C   UNL     1      -2.330   5.988  -1.696  0.00  0.00    +0.002 A 
ATOM     28  C   UNL     1      -2.312   7.341  -1.976  0.00  0.00    +0.000 A 
ATOM     29  C   UNL     1      -2.669   8.254  -1.001  0.00  0.00    +0.000 A 
ATOM     30  C   UNL     1      -3.050   7.812   0.253  0.00  0.00    +0.000 A 
ATOM     31  C   UNL     1      -3.073   6.459   0.531  0.00  0.00    +0.002 A 
ENDBRANCH  25  26
BRANCH  25  34
ATOM     32  C   UNL     1      -2.350   2.894  -2.220  0.00  0.00    -0.096 C 
ATOM     33  C   UNL     1      -4.175   2.226  -0.776  0.00  0.00    -0.096 C 
ATOM     34  N   UNL     1      -3.381   3.369  -1.273  0.00  0.00    +0.382 N 
ATOM     35  H   UNL     1      -4.005   4.022  -1.760  0.00  0.00    -0.082 HD
ENDBRANCH  25  34
ENDBRANCH  24  25
ENDBRANCH   1  24
TORSDOF 6
