REMARK  Name = ZINC03600749
REMARK  5 active torsions:
REMARK  status: ('A' for Active; 'I' for Inactive)
REMARK    1  A    between atoms: C_1  and  C_2
REMARK    2  A    between atoms: C_7  and  N_12
REMARK    3  A    between atoms: C_9  and  C_11
REMARK    4  A    between atoms: C_13  and  C_15
REMARK    5  A    between atoms: C_15  and  N_16
REMARK                            x       y       z     vdW  Elec       q    Type
REMARK                         _______ _______ _______ _____ _____    ______ ____
ROOT
ATOM      1  N   UNL     1       2.589   5.937  -1.168  0.00  0.00    -0.215 N 
ATOM      2  C   UNL     1       2.621   4.604  -1.372  0.00  0.00    +0.251 C 
ATOM      3  O   UNL     1       2.777   4.028  -2.427  0.00  0.00    -0.272 OA
ATOM      4  C   UNL     1       2.422   3.980  -0.009  0.00  0.00    +0.138 C 
ATOM      5  C   UNL     1       3.639   3.147   0.374  0.00  0.00    +0.040 C 
ATOM      6  C   UNL     1       3.633   1.864  -0.468  0.00  0.00    +0.008 C 
ATOM      7  C   UNL     1       2.466   0.991  -0.010  0.00  0.00    +0.035 C 
ATOM      8  C   UNL     1       1.183   1.781   0.000  0.00  0.00    -0.042 A 
ATOM      9  C   UNL     1       1.164   3.159   0.007  0.00  0.00    -0.012 A 
ATOM     10  C   UNL     1      -0.052   3.828   0.025  0.00  0.00    +0.006 A 
ATOM     11  C   UNL     1      -1.240   3.126   0.032  0.00  0.00    +0.000 A 
ATOM     12  C   UNL     1      -1.220   1.744   0.017  0.00  0.00    +0.000 A 
ATOM     13  C   UNL     1      -0.013   1.076   0.008  0.00  0.00    +0.004 A 
ATOM     14  N   UNL     1       2.288   5.133   0.892  0.00  0.00    -0.281 N 
ATOM     15  C   UNL     1       2.399   6.233   0.124  0.00  0.00    +0.310 C 
ATOM     16  O   UNL     1       2.335   7.368   0.555  0.00  0.00    -0.252 OA
ATOM     17  H   UNL     1       2.148   5.107   1.852  0.00  0.00    +0.152 HD
ENDROOT
BRANCH   1  18
ATOM     18  C   UNL     1       2.742   6.937  -2.228  0.00  0.00    +0.213 C 
BRANCH  18  20
ATOM     19  N   UNL     1       4.582   8.187  -3.308  0.00  0.00    -0.311 N 
ATOM     20  C   UNL     1       4.200   7.282  -2.385  0.00  0.00    +0.231 C 
ATOM     21  O   UNL     1       5.030   6.747  -1.681  0.00  0.00    -0.274 OA
ATOM     22  H   UNL     1       3.919   8.616  -3.871  0.00  0.00    +0.149 HD
BRANCH  19  28
ATOM     23  C   UNL     1       7.740  11.680  -4.815  0.00  0.00    +0.008 C 
ATOM     24  C   UNL     1       7.611  10.277  -4.218  0.00  0.00    -0.009 C 
ATOM     25  C   UNL     1       8.277   9.263  -5.149  0.00  0.00    +0.003 C 
ATOM     26  C   UNL     1       8.148   7.860  -4.553  0.00  0.00    +0.002 C 
ATOM     27  C   UNL     1       6.667   7.509  -4.393  0.00  0.00    +0.022 C 
ATOM     28  C   UNL     1       6.000   8.523  -3.461  0.00  0.00    +0.076 C 
ATOM     29  C   UNL     1       6.130   9.926  -4.058  0.00  0.00    +0.009 C 
ATOM     30  C   UNL     1       5.446   9.963  -5.427  0.00  0.00    +0.009 C 
ENDBRANCH  19  28
ENDBRANCH  18  20
ENDBRANCH   1  18
TORSDOF 3
