REMARK  Name = ZINC20532184
REMARK  13 active torsions:
REMARK  status: ('A' for Active; 'I' for Inactive)
REMARK    1  A    between atoms: C_1  and  C_2
REMARK    2  A    between atoms: C_2  and  N_3
REMARK    3  A    between atoms: C_9  and  N_30
REMARK    4  A    between atoms: C_10  and  C_11
REMARK    5  A    between atoms: C_11  and  C_13
REMARK    6  A    between atoms: C_11  and  N_18
REMARK    7  A    between atoms: C_13  and  C_14
REMARK    8  A    between atoms: C_14  and  C_15
REMARK    9  A    between atoms: C_15  and  C_16
REMARK   10  A    between atoms: C_15  and  C_17
REMARK   11  A    between atoms: N_21  and  C_22
REMARK   12  A    between atoms: C_27  and  O_28
REMARK   13  A    between atoms: O_28  and  C_29
REMARK                            x       y       z     vdW  Elec       q    Type
REMARK                         _______ _______ _______ _____ _____    ______ ____
ROOT
ATOM      1  C   UNL     1      -0.891   1.823   1.747  0.00  0.00    +0.108 C 
ENDROOT
BRANCH   1   9
ATOM      2  N   UNL     1      -1.546  -1.933   5.235  0.00  0.00    +0.383 N 
ATOM      3  C   UNL     1      -2.268  -1.791   3.963  0.00  0.00    -0.074 C 
ATOM      4  C   UNL     1      -2.079  -0.379   3.402  0.00  0.00    +0.018 C 
ATOM      5  C   UNL     1      -0.584  -0.075   3.366  0.00  0.00    -0.034 A 
ATOM      6  C   UNL     1       0.271  -0.834   4.106  0.00  0.00    -0.021 A 
ATOM      7  S   UNL     1       1.865  -0.147   3.751  0.00  0.00    -0.077 S 
ATOM      8  C   UNL     1       1.330   1.129   2.620  0.00  0.00    +0.090 A 
ATOM      9  C   UNL     1      -0.016   0.938   2.597  0.00  0.00    +0.007 A 
ATOM     10  C   UNL     1      -0.089  -1.972   5.004  0.00  0.00    -0.035 C 
ATOM     11  H   UNL     1      -1.776  -1.056   5.857  0.00  0.00    -0.081 HD
BRANCH   8  12
ATOM     12  N   UNL     1       2.098   2.079   1.936  0.00  0.00    -0.317 N 
ATOM     13  C   UNL     1       1.635   2.938   0.981  0.00  0.00    +0.092 A 
ATOM     14  C   UNL     1       2.669   3.696   0.560  0.00  0.00    +0.019 A 
ATOM     15  C   UNL     1       3.812   3.287   1.275  0.00  0.00    +0.019 A 
ATOM     16  C   UNL     1       3.435   2.297   2.110  0.00  0.00    +0.092 A 
ENDBRANCH   8  12
BRANCH   2  18
ATOM     17  C   UNL     1      -1.798  -4.365   5.088  0.00  0.00    -0.017 C 
ATOM     18  C   UNL     1      -1.995  -3.126   5.965  0.00  0.00    -0.082 C 
ENDBRANCH   2  18
ENDBRANCH   1   9
BRANCH   1  19
ATOM     19  N   UNL     1      -0.529   3.225   1.969  0.00  0.00    -0.292 N 
ATOM     20  C   UNL     1      -1.423   4.200   1.710  0.00  0.00    +0.304 C 
ATOM     21  O   UNL     1      -2.529   3.916   1.292  0.00  0.00    -0.252 OA
ATOM     22  N   UNL     1      -1.090   5.490   1.914  0.00  0.00    -0.266 N 
ATOM     23  H   UNL     1       0.471   3.482   2.347  0.00  0.00    +0.151 HD
ATOM     24  H   UNL     1      -0.116   5.744   2.358  0.00  0.00    +0.156 HD
BRANCH  22  25
ATOM     25  C   UNL     1      -1.985   6.509   1.560  0.00  0.00    +0.077 A 
ATOM     26  C   UNL     1      -3.352   6.302   1.667  0.00  0.00    +0.027 A 
ATOM     27  C   UNL     1      -4.233   7.310   1.322  0.00  0.00    +0.002 A 
ATOM     28  C   UNL     1      -3.755   8.522   0.860  0.00  0.00    +0.004 A 
ATOM     29  C   UNL     1      -2.393   8.734   0.745  0.00  0.00    +0.047 A 
ATOM     30  C   UNL     1      -1.504   7.731   1.094  0.00  0.00    +0.141 A 
BRANCH  30  31
ATOM     31  O   UNL     1      -0.165   7.937   0.981  0.00  0.00    -0.493 OA
ATOM     32  C   UNL     1       0.256   9.214   0.496  0.00  0.00    +0.277 C 
ENDBRANCH  30  31
ENDBRANCH  22  25
ENDBRANCH   1  19
BRANCH   1  33
ATOM     33  C   UNL     1      -0.691   1.472   0.272  0.00  0.00    +0.027 C 
BRANCH  33  34
ATOM     34  C   UNL     1      -1.668   2.281  -0.583  0.00  0.00    +0.005 C 
BRANCH  34  35
ATOM     35  C   UNL     1      -1.468   1.930  -2.058  0.00  0.00    -0.017 C 
ATOM     36  C   UNL     1      -1.845   0.466  -2.290  0.00  0.00    +0.007 C 
ATOM     37  C   UNL     1      -2.356   2.829  -2.921  0.00  0.00    +0.007 C 
ENDBRANCH  34  35
ENDBRANCH  33  34
ENDBRANCH   1  33
TORSDOF 9
