REMARK  Name = ZINC39293086
REMARK  12 active torsions:
REMARK  status: ('A' for Active; 'I' for Inactive)
REMARK    1  A    between atoms: C_1  and  C_2
REMARK    2  A    between atoms: C_2  and  O_3
REMARK    3  A    between atoms: O_3  and  C_4
REMARK    4  A    between atoms: N_6  and  N_7
REMARK    5  A    between atoms: N_7  and  C_8
REMARK    6  A    between atoms: C_8  and  N_9
REMARK    7  A    between atoms: C_15  and  O_30
REMARK    8  A    between atoms: C_26  and  O_27
REMARK    9  A    between atoms: O_27  and  C_28
REMARK   10  A    between atoms: C_31  and  O_33
REMARK   11  A    between atoms: O_33  and  C_34
REMARK   12  A    between atoms: C_34  and  C_35
REMARK                            x       y       z     vdW  Elec       q    Type
REMARK                         _______ _______ _______ _____ _____    ______ ____
ROOT
ATOM      1  N   UNL     1      -5.469  -2.546  -1.421  0.00  0.00    +0.394 N 
ATOM      2  C   UNL     1      -6.056  -2.448  -2.727  0.00  0.00    -0.075 C 
ATOM      3  C   UNL     1      -6.357  -3.763  -3.383  0.00  0.00    +0.001 C 
ATOM      4  C   UNL     1      -7.646  -4.380  -2.877  0.00  0.00    +0.053 C 
ATOM      5  C   UNL     1      -8.806  -3.463  -3.077  0.00  0.00    -0.014 C 
ATOM      6  C   UNL     1      -9.841  -3.716  -3.805  0.00  0.00    +0.001 C 
ATOM      7  C   UNL     1     -10.033  -4.992  -4.561  0.00  0.00    +0.141 C 
ATOM      8  C   UNL     1      -8.727  -5.737  -4.748  0.00  0.00    +0.081 C 
ATOM      9  C   UNL     1      -7.855  -5.752  -3.522  0.00  0.00    +0.191 C 
ATOM     10  O   UNL     1      -8.409  -6.554  -2.471  0.00  0.00    -0.484 OA
ATOM     11  C   UNL     1      -8.031  -6.036  -1.281  0.00  0.00    +0.167 A 
ATOM     12  C   UNL     1      -7.540  -4.729  -1.404  0.00  0.00    +0.013 A 
ATOM     13  C   UNL     1      -7.126  -3.997  -0.334  0.00  0.00    -0.056 A 
ATOM     14  C   UNL     1      -7.268  -4.597   0.927  0.00  0.00    +0.006 A 
ATOM     15  C   UNL     1      -7.737  -5.881   1.072  0.00  0.00    +0.049 A 
ATOM     16  C   UNL     1      -8.121  -6.645  -0.024  0.00  0.00    +0.162 A 
ATOM     17  C   UNL     1      -6.426  -2.670  -0.340  0.00  0.00    -0.040 C 
ATOM     18  H   UNL     1      -4.863  -3.353  -1.406  0.00  0.00    -0.079 HD
ENDROOT
BRANCH  16  19
ATOM     19  O   UNL     1      -8.564  -7.923   0.119  0.00  0.00    -0.491 OA
ATOM     20  C   UNL     1      -8.617  -8.447   1.447  0.00  0.00    +0.277 C 
ENDBRANCH  16  19
BRANCH   7  21
ATOM     21  O   UNL     1     -10.945  -5.825  -3.843  0.00  0.00    -0.388 OA
ATOM     22  H   UNL     1     -11.818  -5.432  -3.713  0.00  0.00    +0.210 HD
ENDBRANCH   7  21
BRANCH   1  23
ATOM     23  C   UNL     1      -4.653  -1.348  -1.186  0.00  0.00    +0.059 C 
BRANCH  23  24
ATOM     24  N   UNL     1      -3.858  -1.530   0.031  0.00  0.00    -0.200 N 
ATOM     25  C   UNL     1      -4.206  -0.890   1.165  0.00  0.00    +0.418 C 
ATOM     26  O   UNL     1      -5.179  -0.163   1.178  0.00  0.00    -0.225 OA
BRANCH  24  29
ATOM     27  C   UNL     1      -1.497  -1.836   0.006  0.00  0.00    +0.417 C 
ATOM     28  O   UNL     1      -0.523  -2.563  -0.007  0.00  0.00    -0.225 OA
ATOM     29  N   UNL     1      -2.735  -2.368   0.015  0.00  0.00    -0.196 N 
ATOM     30  H   UNL     1      -2.849  -3.331   0.011  0.00  0.00    +0.176 HD
BRANCH  27  31
ATOM     31  O   UNL     1      -1.339  -0.499   0.012  0.00  0.00    -0.450 OA
BRANCH  31  33
ATOM     32  C   UNL     1      -0.019   1.526   0.010  0.00  0.00    +0.048 C 
ATOM     33  C   UNL     1       0.002  -0.004   0.002  0.00  0.00    +0.230 C 
ENDBRANCH  31  33
ENDBRANCH  27  31
ENDBRANCH  24  29
BRANCH  25  34
ATOM     34  O   UNL     1      -3.475  -1.057   2.283  0.00  0.00    -0.450 OA
BRANCH  34  35
ATOM     35  C   UNL     1      -3.902  -0.349   3.449  0.00  0.00    +0.230 C 
ATOM     36  C   UNL     1      -2.956  -0.662   4.610  0.00  0.00    +0.048 C 
ENDBRANCH  34  35
ENDBRANCH  25  34
ENDBRANCH  23  24
ENDBRANCH   1  23
TORSDOF 9
