REMARK  Name = ZINC03348535
REMARK  4 active torsions:
REMARK  status: ('A' for Active; 'I' for Inactive)
REMARK    1  A    between atoms: C_1  and  C_2
REMARK    2  A    between atoms: C_2  and  C_16
REMARK    3  A    between atoms: C_16  and  C_17
REMARK    4  A    between atoms: C_17  and  C_18
REMARK                            x       y       z     vdW  Elec       q    Type
REMARK                         _______ _______ _______ _____ _____    ______ ____
ROOT
ATOM      1  C   UNL     1      -0.019   1.526   0.010  0.00  0.00    -0.004 C 
ATOM      2  C   UNL     1       0.002  -0.004   0.002  0.00  0.00    -0.029 C 
ATOM      3  C   UNL     1       0.727  -0.494  -1.228  0.00  0.00    +0.009 A 
ATOM      4  C   UNL     1       2.002  -0.948  -1.199  0.00  0.00    -0.022 A 
ATOM      5  C   UNL     1       2.351  -1.329  -2.549  0.00  0.00    +0.003 A 
ATOM      6  C   UNL     1       3.515  -1.857  -3.117  0.00  0.00    +0.010 A 
ATOM      7  C   UNL     1       3.490  -2.103  -4.468  0.00  0.00    +0.001 A 
ATOM      8  C   UNL     1       2.371  -1.845  -5.243  0.00  0.00    +0.002 A 
ATOM      9  C   UNL     1       1.207  -1.323  -4.707  0.00  0.00    +0.026 A 
ATOM     10  C   UNL     1       1.202  -1.063  -3.338  0.00  0.00    +0.047 A 
ATOM     11  N   UNL     1       0.243  -0.559  -2.506  0.00  0.00    -0.359 N 
ATOM     12  H   UNL     1      -0.647  -0.289  -2.780  0.00  0.00    +0.166 HD
ATOM     13  C   UNL     1       2.830  -1.003   0.060  0.00  0.00    +0.018 C 
ATOM     14  C   UNL     1       2.135  -0.134   1.118  0.00  0.00    -0.077 C 
ATOM     15  N   UNL     1       0.713  -0.495   1.193  0.00  0.00    +0.386 N 
ATOM     16  H   UNL     1       0.306  -0.082   2.019  0.00  0.00    -0.085 HD
ATOM     17  H   UNL     1       0.625  -1.499   1.245  0.00  0.00    -0.085 HD
ENDROOT
BRANCH   2  18
ATOM     18  C   UNL     1      -1.432  -0.537   0.004  0.00  0.00    -0.002 C 
BRANCH  18  19
ATOM     19  C   UNL     1      -2.157  -0.045   1.259  0.00  0.00    +0.034 C 
BRANCH  19  20
ATOM     20  C   UNL     1      -3.570  -0.571   1.261  0.00  0.00    -0.044 A 
ATOM     21  C   UNL     1      -4.579   0.162   0.664  0.00  0.00    +0.007 A 
ATOM     22  C   UNL     1      -5.876  -0.315   0.663  0.00  0.00    +0.050 A 
ATOM     23  C   UNL     1      -6.168  -1.531   1.261  0.00  0.00    +0.166 A 
ATOM     24  C   UNL     1      -5.151  -2.269   1.862  0.00  0.00    +0.166 A 
ATOM     25  C   UNL     1      -3.853  -1.787   1.854  0.00  0.00    +0.053 A 
ATOM     26  O   UNL     1      -5.688  -3.415   2.373  0.00  0.00    -0.453 OA
ATOM     27  C   UNL     1      -7.107  -3.179   2.439  0.00  0.00    +0.466 C 
ATOM     28  O   UNL     1      -7.342  -2.214   1.396  0.00  0.00    -0.453 OA
ENDBRANCH  19  20
ENDBRANCH  18  19
ENDBRANCH   2  18
TORSDOF 3
