REMARK  Name = ZINC09520376
REMARK  6 active torsions:
REMARK  status: ('A' for Active; 'I' for Inactive)
REMARK    1  A    between atoms: C_1  and  C_2
REMARK    2  A    between atoms: C_5  and  N_9
REMARK    3  A    between atoms: C_6  and  C_8
REMARK    4  A    between atoms: C_10  and  C_12
REMARK    5  A    between atoms: C_12  and  S_13
REMARK    6  A    between atoms: S_13  and  C_14
REMARK                            x       y       z     vdW  Elec       q    Type
REMARK                         _______ _______ _______ _____ _____    ______ ____
ROOT
ATOM      1  C   UNL     1      -6.504   1.947  -0.417  0.00  0.00    +0.198 A 
ATOM      2  N   UNL     1      -6.529   3.258  -0.411  0.00  0.00    -0.120 NA
ATOM      3  N   UNL     1      -7.864   3.669  -0.520  0.00  0.00    -0.109 NA
ATOM      4  C   UNL     1      -8.614   2.596  -0.589  0.00  0.00    +0.237 A 
ATOM      5  N   UNL     1      -7.794   1.502  -0.532  0.00  0.00    -0.260 N 
ATOM      6  C   UNL     1      -8.316   0.221  -0.589  0.00  0.00    +0.037 A 
ATOM      7  C   UNL     1      -9.638   0.047  -0.701  0.00  0.00    +0.037 A 
ATOM      8  C   UNL     1     -10.494   1.184  -0.769  0.00  0.00    +0.256 A 
ATOM      9  O   UNL     1     -11.698   1.030  -0.877  0.00  0.00    -0.267 OA
ATOM     10  N   UNL     1      -9.983   2.426  -0.707  0.00  0.00    -0.291 N 
ATOM     11  H   UNL     1     -10.569   3.198  -0.753  0.00  0.00    +0.172 HD
ATOM     12  C   UNL     1     -10.284  -1.312  -0.758  0.00  0.00    +0.042 C 
ATOM     13  C   UNL     1      -9.257  -2.385  -1.112  0.00  0.00    +0.005 C 
ATOM     14  C   UNL     1      -8.056  -2.226  -0.171  0.00  0.00    +0.006 C 
ATOM     15  C   UNL     1      -7.340  -0.925  -0.528  0.00  0.00    +0.054 C 
ENDROOT
BRANCH   1  16
ATOM     16  S   UNL     1      -5.065   0.937  -0.304  0.00  0.00    -0.076 S 
BRANCH  16  17
ATOM     17  C   UNL     1      -3.702   2.128  -0.184  0.00  0.00    +0.173 C 
BRANCH  17  19
ATOM     18  N   UNL     1      -1.237   2.069   0.019  0.00  0.00    -0.285 N 
ATOM     19  C   UNL     1      -2.394   1.385  -0.081  0.00  0.00    +0.227 C 
ATOM     20  O   UNL     1      -2.383   0.173  -0.088  0.00  0.00    -0.275 OA
ATOM     21  H   UNL     1      -1.250   3.037   0.090  0.00  0.00    +0.155 HD
BRANCH  18  26
ATOM     22  C   UNL     1       3.704  -0.717   0.009  0.00  0.00    +0.044 C 
ATOM     23  C   UNL     1       2.392   0.024   0.013  0.00  0.00    -0.050 A 
ATOM     24  C   UNL     1       1.282  -0.542   0.613  0.00  0.00    +0.005 A 
ATOM     25  C   UNL     1       0.078   0.134   0.619  0.00  0.00    +0.024 A 
ATOM     26  C   UNL     1      -0.017   1.384   0.021  0.00  0.00    +0.036 A 
ATOM     27  C   UNL     1       1.099   1.949  -0.581  0.00  0.00    -0.029 A 
ATOM     28  C   UNL     1       2.300   1.267  -0.584  0.00  0.00    +0.008 A 
ATOM     29  C   UNL     1       1.000   3.305  -1.231  0.00  0.00    +0.045 C 
ENDBRANCH  18  26
ENDBRANCH  17  19
ENDBRANCH  16  17
ENDBRANCH   1  16
TORSDOF 4
