REMARK  Name = ZINC09860955
REMARK  9 active torsions:
REMARK  status: ('A' for Active; 'I' for Inactive)
REMARK    1  A    between atoms: C_1  and  O_2
REMARK    2  A    between atoms: O_2  and  C_3
REMARK    3  A    between atoms: C_5  and  C_17
REMARK    4  A    between atoms: C_8  and  O_9
REMARK    5  A    between atoms: O_9  and  C_10
REMARK    6  A    between atoms: C_10  and  C_12
REMARK    7  A    between atoms: C_20  and  C_31
REMARK    8  A    between atoms: C_26  and  N_30
REMARK    9  A    between atoms: C_27  and  C_28
REMARK                            x       y       z     vdW  Elec       q    Type
REMARK                         _______ _______ _______ _____ _____    ______ ____
ROOT
ATOM      1  C   UNL     1       2.271   0.021   3.971  0.00  0.00    +0.102 C 
ATOM      2  C   UNL     1       3.657  -0.375   4.411  0.00  0.00    +0.054 A 
ATOM      3  C   UNL     1       4.876  -0.211   3.748  0.00  0.00    +0.100 A 
ATOM      4  N   UNL     1       5.826  -0.711   4.515  0.00  0.00    -0.171 NA
ATOM      5  N   UNL     1       5.233  -1.205   5.687  0.00  0.00    -0.246 N 
ATOM      6  H   UNL     1       5.697  -1.628   6.426  0.00  0.00    +0.192 HD
ATOM      7  C   UNL     1       3.904  -0.990   5.604  0.00  0.00    +0.223 A 
ATOM      8  O   UNL     1       2.922  -1.290   6.491  0.00  0.00    -0.423 OA
ATOM      9  C   UNL     1       1.713  -0.726   6.298  0.00  0.00    +0.200 C 
ATOM     10  C   UNL     1       1.347  -0.100   5.157  0.00  0.00    +0.098 C 
ENDROOT
BRANCH   3  11
ATOM     11  C   UNL     1       5.069   0.415   2.416  0.00  0.00    +0.006 A 
ATOM     12  C   UNL     1       4.379   1.579   2.086  0.00  0.00    +0.014 A 
ATOM     13  C   UNL     1       4.559   2.161   0.847  0.00  0.00    +0.050 A 
ATOM     14  C   UNL     1       5.425   1.589  -0.072  0.00  0.00    +0.166 A 
ATOM     15  C   UNL     1       6.117   0.424   0.253  0.00  0.00    +0.167 A 
ATOM     16  C   UNL     1       5.944  -0.159   1.496  0.00  0.00    +0.059 A 
ATOM     17  O   UNL     1       6.896   0.068  -0.811  0.00  0.00    -0.453 OA
ATOM     18  C   UNL     1       6.366   0.794  -1.935  0.00  0.00    +0.466 C 
ATOM     19  O   UNL     1       5.771   1.962  -1.339  0.00  0.00    -0.453 OA
ENDBRANCH   3  11
BRANCH   1  22
ATOM     20  C   UNL     1       0.945  -1.206   0.653  0.00  0.00    +0.163 A 
ATOM     21  C   UNL     1       1.372  -0.365   1.668  0.00  0.00    +0.054 A 
ATOM     22  C   UNL     1       1.806  -0.895   2.868  0.00  0.00    -0.031 A 
ATOM     23  C   UNL     1       1.816  -2.265   3.060  0.00  0.00    +0.008 A 
ATOM     24  C   UNL     1       1.392  -3.110   2.052  0.00  0.00    +0.050 A 
ATOM     25  C   UNL     1       0.949  -2.584   0.848  0.00  0.00    +0.173 A 
BRANCH  20  27
ATOM     26  C   UNL     1       0.540   0.737  -0.657  0.00  0.00    +0.277 C 
ATOM     27  O   UNL     1       0.517  -0.686  -0.528  0.00  0.00    -0.491 OA
ENDBRANCH  20  27
BRANCH  25  28
ATOM     28  O   UNL     1       0.525  -3.414  -0.143  0.00  0.00    -0.418 OA
BRANCH  28  29
ATOM     29  C   UNL     1       1.384  -3.694  -1.145  0.00  0.00    +0.351 C 
ATOM     30  O   UNL     1       2.528  -3.282  -1.099  0.00  0.00    -0.244 OA
BRANCH  29  31
ATOM     31  C   UNL     1       0.939  -4.493  -2.288  0.00  0.00    +0.097 A 
ATOM     32  C   UNL     1       1.655  -4.894  -3.407  0.00  0.00    +0.022 A 
ATOM     33  C   UNL     1       0.960  -5.647  -4.322  0.00  0.00    +0.008 A 
ATOM     34  C   UNL     1      -0.342  -5.941  -4.081  0.00  0.00    +0.046 A 
ATOM     35  S   UNL     1      -0.662  -5.212  -2.602  0.00  0.00    -0.090 S 
ENDBRANCH  29  31
ENDBRANCH  28  29
ENDBRANCH  25  28
ENDBRANCH   1  22
BRANCH   9  36
ATOM     36  N   UNL     1       0.799  -0.790   7.321  0.00  0.00    -0.328 N 
ATOM     37  H   UNL     1       1.032  -1.232   8.153  0.00  0.00    +0.145 HD
ATOM     38  H   UNL     1      -0.079  -0.393   7.213  0.00  0.00    +0.145 HD
ENDBRANCH   9  36
BRANCH  10  39
ATOM     39  C   UNL     1       0.035   0.468   5.070  0.00  0.00    +0.101 C 
ATOM     40  N   UNL     1      -1.005   0.919   5.001  0.00  0.00    -0.191 NA
ENDBRANCH  10  39
TORSDOF 8
