REMARK  Name = ZINC09469265
REMARK  11 active torsions:
REMARK  status: ('A' for Active; 'I' for Inactive)
REMARK    1  A    between atoms: C_1  and  C_2
REMARK    2  A    between atoms: C_2  and  C_3
REMARK    3  A    between atoms: C_3  and  C_5
REMARK    4  A    between atoms: C_3  and  N_6
REMARK    5  A    between atoms: C_10  and  C_12
REMARK    6  A    between atoms: C_12  and  S_13
REMARK    7  A    between atoms: S_13  and  C_14
REMARK    8  A    between atoms: C_17  and  C_26
REMARK    9  A    between atoms: N_18  and  C_19
REMARK   10  A    between atoms: C_26  and  C_28
REMARK   11  A    between atoms: C_26  and  N_63
REMARK                            x       y       z     vdW  Elec       q    Type
REMARK                         _______ _______ _______ _____ _____    ______ ____
ROOT
ATOM      1  C   UNL     1       7.531   1.045  -0.064  0.00  0.00    +0.197 A 
ATOM      2  N   UNL     1       7.481  -0.267  -0.071  0.00  0.00    -0.122 NA
ATOM      3  N   UNL     1       8.671  -0.751  -0.086  0.00  0.00    -0.135 NA
ATOM      4  C   UNL     1       9.547   0.214  -0.089  0.00  0.00    +0.125 A 
ATOM      5  N   UNL     1       8.853   1.395  -0.081  0.00  0.00    -0.275 N 
ENDROOT
BRANCH   5   6
ATOM      6  C   UNL     1       9.387   2.692  -0.085  0.00  0.00    +0.050 A 
ATOM      7  C   UNL     1      10.111   3.142  -1.180  0.00  0.00    +0.029 A 
ATOM      8  C   UNL     1      10.631   4.422  -1.185  0.00  0.00    +0.040 A 
ATOM      9  C   UNL     1      10.440   5.252  -0.093  0.00  0.00    +0.124 A 
ATOM     10  C   UNL     1       9.723   4.803   1.003  0.00  0.00    +0.040 A 
ATOM     11  C   UNL     1       9.196   3.526   1.009  0.00  0.00    +0.029 A 
ATOM     12  F   UNL     1      10.954   6.501  -0.097  0.00  0.00    -0.205 F 
ENDBRANCH   5   6
BRANCH   4  13
ATOM     13  C   UNL     1      11.046   0.059  -0.105  0.00  0.00    -0.002 C 
ATOM     14  C   UNL     1      11.501  -0.357  -1.505  0.00  0.00    -0.005 C 
BRANCH  13  20
ATOM     15  C   UNL     1      10.935  -0.653   2.206  0.00  0.00    -0.078 C 
ATOM     16  C   UNL     1      11.240  -1.813   3.156  0.00  0.00    -0.019 C 
ATOM     17  C   UNL     1      12.753  -2.043   3.204  0.00  0.00    -0.004 C 
ATOM     18  C   UNL     1      13.264  -2.324   1.788  0.00  0.00    -0.019 C 
ATOM     19  C   UNL     1      12.900  -1.149   0.877  0.00  0.00    -0.078 C 
ATOM     20  N   UNL     1      11.430  -0.996   0.856  0.00  0.00    +0.386 N 
ATOM     21  H   UNL     1      11.007  -1.884   0.562  0.00  0.00    -0.081 HD
ENDBRANCH  13  20
ENDBRANCH   4  13
BRANCH   1  22
ATOM     22  S   UNL     1       6.156   2.146  -0.045  0.00  0.00    -0.076 S 
BRANCH  22  23
ATOM     23  C   UNL     1       4.796   0.952  -0.039  0.00  0.00    +0.173 C 
BRANCH  23  28
ATOM     24  N   UNL     1      -0.011   0.966   0.007  0.00  0.00    -0.297 N 
ATOM     25  C   UNL     1       1.147   1.655   0.000  0.00  0.00    +0.306 C 
ATOM     26  O   UNL     1       1.130   2.871   0.007  0.00  0.00    -0.252 OA
ATOM     27  N   UNL     1       2.323   0.998  -0.015  0.00  0.00    -0.239 N 
ATOM     28  C   UNL     1       3.481   1.687  -0.022  0.00  0.00    +0.231 C 
ATOM     29  O   UNL     1       3.465   2.900  -0.015  0.00  0.00    -0.274 OA
ATOM     30  H   UNL     1       0.002  -0.004   0.002  0.00  0.00    +0.151 HD
ATOM     31  H   UNL     1       2.336   0.028  -0.020  0.00  0.00    +0.159 HD
BRANCH  24  32
ATOM     32  C   UNL     1      -1.290   1.681   0.017  0.00  0.00    +0.071 C 
ATOM     33  C   UNL     1      -1.667   2.032   1.458  0.00  0.00    +0.028 C 
BRANCH  32  35
ATOM     34  C   UNL     1      -2.062   0.544  -2.069  0.00  0.00    +0.005 C 
ATOM     35  C   UNL     1      -2.376   0.792  -0.592  0.00  0.00    +0.019 C 
ENDBRANCH  32  35
ENDBRANCH  24  32
ENDBRANCH  23  28
ENDBRANCH  22  23
ENDBRANCH   1  22
TORSDOF 8
