REMARK  Name = ZINC06732663
REMARK  6 active torsions:
REMARK  status: ('A' for Active; 'I' for Inactive)
REMARK    1  A    between atoms: C_1  and  C_2
REMARK    2  A    between atoms: C_2  and  O_3
REMARK    3  A    between atoms: O_3  and  C_4
REMARK    4  A    between atoms: C_17  and  C_20
REMARK    5  A    between atoms: C_20  and  C_28
REMARK    6  A    between atoms: C_21  and  C_22
REMARK                            x       y       z     vdW  Elec       q    Type
REMARK                         _______ _______ _______ _____ _____    ______ ____
ROOT
ATOM      1  C   UNL     1       0.801  -2.894   0.928  0.00  0.00    +0.403 C 
ATOM      2  O   UNL     1       0.383  -3.853   0.309  0.00  0.00    -0.226 OA
ATOM      3  N   UNL     1       1.423  -3.074   2.109  0.00  0.00    -0.262 N 
ATOM      4  C   UNL     1       1.617  -4.418   2.673  0.00  0.00    +0.116 C 
ATOM      5  C   UNL     1       3.113  -4.732   2.749  0.00  0.00    +0.056 C 
ATOM      6  C   UNL     1       3.841  -3.550   3.373  0.00  0.00    -0.020 A 
ATOM      7  C   UNL     1       3.284  -2.319   3.412  0.00  0.00    +0.013 A 
ATOM      8  S   UNL     1       4.488  -1.297   4.214  0.00  0.00    -0.076 S 
ATOM      9  C   UNL     1       5.670  -2.429   4.488  0.00  0.00    +0.080 A 
ATOM     10  C   UNL     1       5.164  -3.630   3.970  0.00  0.00    +0.068 A 
ATOM     11  C   UNL     1       6.010  -4.840   4.087  0.00  0.00    +0.248 C 
ATOM     12  O   UNL     1       5.574  -5.946   3.827  0.00  0.00    -0.270 OA
ATOM     13  N   UNL     1       7.285  -4.665   4.494  0.00  0.00    -0.289 N 
ATOM     14  C   UNL     1       7.903  -3.354   4.667  0.00  0.00    +0.186 C 
ATOM     15  N   UNL     1       6.911  -2.343   5.072  0.00  0.00    -0.316 N 
ATOM     16  C   UNL     1       1.942  -1.928   2.883  0.00  0.00    +0.153 C 
ATOM     17  H   UNL     1       7.819  -5.452   4.682  0.00  0.00    +0.151 HD
ATOM     18  H   UNL     1       7.123  -1.651   5.718  0.00  0.00    +0.149 HD
ENDROOT
BRANCH  14  19
ATOM     19  C   UNL     1       8.534  -2.931   3.365  0.00  0.00    -0.034 C 
ATOM     20  C   UNL     1       9.836  -2.692   3.306  0.00  0.00    +0.010 C 
ATOM     21  C   UNL     1       7.684  -2.780   2.130  0.00  0.00    +0.042 C 
BRANCH  20  22
ATOM     22  C   UNL     1      10.428  -2.119   2.079  0.00  0.00    -0.025 A 
ATOM     23  C   UNL     1       9.758  -1.113   1.382  0.00  0.00    +0.008 A 
ATOM     24  C   UNL     1      10.316  -0.583   0.237  0.00  0.00    +0.001 A 
ATOM     25  C   UNL     1      11.537  -1.046  -0.220  0.00  0.00    +0.000 A 
ATOM     26  C   UNL     1      12.206  -2.043   0.466  0.00  0.00    +0.001 A 
ATOM     27  C   UNL     1      11.662  -2.577   1.616  0.00  0.00    +0.008 A 
ENDBRANCH  20  22
ENDBRANCH  14  19
BRANCH   1  28
ATOM     28  O   UNL     1       0.642  -1.652   0.432  0.00  0.00    -0.451 OA
BRANCH  28  30
ATOM     29  C   UNL     1      -0.114  -0.061  -1.223  0.00  0.00    +0.048 C 
ATOM     30  C   UNL     1      -0.028  -1.536  -0.825  0.00  0.00    +0.230 C 
ENDBRANCH  28  30
ENDBRANCH   1  28
TORSDOF 4
