REMARK  Name = ZINC12386637
REMARK  8 active torsions:
REMARK  status: ('A' for Active; 'I' for Inactive)
REMARK    1  A    between atoms: C_1  and  C_2
REMARK    2  A    between atoms: C_3  and  C_7
REMARK    3  A    between atoms: C_7  and  C_8
REMARK    4  A    between atoms: C_8  and  C_9
REMARK    5  A    between atoms: C_24  and  C_26
REMARK    6  A    between atoms: C_26  and  C_27
REMARK    7  A    between atoms: C_26  and  C_28
REMARK    8  A    between atoms: C_26  and  C_29
REMARK                            x       y       z     vdW  Elec       q    Type
REMARK                         _______ _______ _______ _____ _____    ______ ____
ROOT
ATOM      1  C   UNL     1      -0.225  -4.764   1.453  0.00  0.00    +0.216 C 
ATOM      2  O   UNL     1      -1.291  -4.880   2.021  0.00  0.00    -0.276 OA
ATOM      3  N   UNL     1      -0.110  -3.931   0.400  0.00  0.00    -0.292 N 
ATOM      4  C   UNL     1       1.173  -3.777  -0.302  0.00  0.00    +0.113 C 
ATOM      5  C   UNL     1       1.666  -2.335  -0.126  0.00  0.00    +0.056 C 
ATOM      6  C   UNL     1       0.513  -1.393  -0.360  0.00  0.00    -0.016 A 
ATOM      7  C   UNL     1       0.573   0.038  -0.643  0.00  0.00    +0.003 A 
ATOM      8  C   UNL     1       1.610   0.961  -0.791  0.00  0.00    +0.010 A 
ATOM      9  C   UNL     1       1.323   2.269  -1.059  0.00  0.00    +0.001 A 
ATOM     10  C   UNL     1       0.006   2.691  -1.185  0.00  0.00    +0.002 A 
ATOM     11  C   UNL     1      -1.033   1.798  -1.044  0.00  0.00    +0.026 A 
ATOM     12  C   UNL     1      -0.764   0.461  -0.772  0.00  0.00    +0.047 A 
ATOM     13  N   UNL     1      -1.563  -0.645  -0.580  0.00  0.00    -0.356 N 
ATOM     14  H   UNL     1      -2.533  -0.645  -0.613  0.00  0.00    +0.166 HD
ATOM     15  C   UNL     1      -0.787  -1.742  -0.337  0.00  0.00    +0.041 A 
ATOM     16  C   UNL     1      -1.267  -3.154  -0.077  0.00  0.00    +0.128 C 
ENDROOT
BRANCH  16  17
ATOM     17  C   UNL     1      -1.809  -3.765  -1.371  0.00  0.00    -0.014 C 
ATOM     18  C   UNL     1      -0.749  -3.657  -2.469  0.00  0.00    +0.013 C 
ATOM     19  C   UNL     1      -2.150  -5.238  -1.135  0.00  0.00    +0.013 C 
ATOM     20  C   UNL     1      -3.069  -3.013  -1.802  0.00  0.00    +0.013 C 
ENDBRANCH  16  17
BRANCH   1  21
ATOM     21  C   UNL     1       0.970  -5.551   1.926  0.00  0.00    +0.101 C 
BRANCH  21  22
ATOM     22  C   UNL     1       0.572  -6.412   3.126  0.00  0.00    +0.053 C 
BRANCH  22  25
ATOM     23  C   UNL     1       2.666  -5.548   5.236  0.00  0.00    +0.066 C 
ATOM     24  C   UNL     1       2.713  -6.871   4.516  0.00  0.00    +0.049 A 
ATOM     25  C   UNL     1       1.767  -7.198   3.599  0.00  0.00    +0.013 A 
ATOM     26  S   UNL     1       2.328  -8.824   3.114  0.00  0.00    -0.080 S 
ATOM     27  C   UNL     1       3.727  -8.895   4.141  0.00  0.00    +0.156 A 
ATOM     28  N   UNL     1       3.673  -7.738   4.761  0.00  0.00    -0.252 NA
ENDBRANCH  22  25
ENDBRANCH  21  22
ENDBRANCH   1  21
TORSDOF 4
