REMARK  Name = ZINC01412443
REMARK  11 active torsions:
REMARK  status: ('A' for Active; 'I' for Inactive)
REMARK    1  A    between atoms: C_1  and  N_2
REMARK    2  A    between atoms: N_2  and  C_3
REMARK    3  A    between atoms: N_2  and  C_4
REMARK    4  A    between atoms: C_7  and  N_10
REMARK    5  A    between atoms: C_11  and  C_13
REMARK    6  A    between atoms: C_13  and  C_15
REMARK    7  A    between atoms: C_13  and  N_20
REMARK    8  A    between atoms: N_20  and  C_21
REMARK    9  A    between atoms: C_21  and  C_22
REMARK   10  A    between atoms: C_28  and  C_30
REMARK   11  A    between atoms: C_30  and  N_31
REMARK                            x       y       z     vdW  Elec       q    Type
REMARK                         _______ _______ _______ _____ _____    ______ ____
ROOT
ATOM      1  N   UNL     1      -0.154  -0.674   1.442  0.00  0.00    -0.280 N 
ATOM      2  C   UNL     1       0.290   0.389   2.143  0.00  0.00    +0.238 C 
ATOM      3  O   UNL     1       0.100   1.512   1.727  0.00  0.00    -0.274 OA
ENDROOT
BRANCH   1   4
ATOM      4  C   UNL     1      -1.002  -0.472   0.265  0.00  0.00    +0.199 C 
BRANCH   4   5
ATOM      5  C   UNL     1      -2.240  -1.323   0.385  0.00  0.00    +0.019 A 
ATOM      6  C   UNL     1      -3.519  -1.023   0.051  0.00  0.00    +0.013 A 
ATOM      7  C   UNL     1      -4.504  -1.972   0.248  0.00  0.00    +0.008 A 
ATOM      8  C   UNL     1      -4.163  -3.172   0.779  0.00  0.00    +0.045 A 
ATOM      9  S   UNL     1      -2.403  -2.987   1.011  0.00  0.00    -0.099 S 
ENDBRANCH   4   5
BRANCH   4  11
ATOM     10  N   UNL     1      -0.908  -1.174  -2.105  0.00  0.00    -0.284 N 
ATOM     11  C   UNL     1      -0.241  -0.864  -0.976  0.00  0.00    +0.243 C 
ATOM     12  O   UNL     1       0.971  -0.900  -0.957  0.00  0.00    -0.273 OA
ATOM     13  H   UNL     1      -1.870  -1.055  -2.149  0.00  0.00    +0.155 HD
BRANCH  10  17
ATOM     14  C   UNL     1       1.165  -2.643  -5.412  0.00  0.00    +0.029 A 
ATOM     15  C   UNL     1       0.026  -3.297  -4.960  0.00  0.00    +0.025 A 
ATOM     16  C   UNL     1      -0.660  -2.810  -3.866  0.00  0.00    +0.025 A 
ATOM     17  C   UNL     1      -0.211  -1.667  -3.217  0.00  0.00    +0.034 A 
ATOM     18  C   UNL     1       0.924  -1.011  -3.672  0.00  0.00    +0.025 A 
ATOM     19  C   UNL     1       1.614  -1.501  -4.763  0.00  0.00    +0.025 A 
BRANCH  14  21
ATOM     20  C   UNL     1       1.388  -4.343  -7.206  0.00  0.00    +0.129 C 
ATOM     21  N   UNL     1       1.861  -3.137  -6.521  0.00  0.00    -0.336 N 
ATOM     22  C   UNL     1       3.063  -2.448  -6.998  0.00  0.00    +0.129 C 
ENDBRANCH  14  21
ENDBRANCH  10  17
ENDBRANCH   4  11
ENDBRANCH   1   4
BRANCH   1  23
ATOM     23  C   UNL     1       0.210  -2.030   1.858  0.00  0.00    +0.144 C 
BRANCH  23  24
ATOM     24  C   UNL     1       1.579  -2.368   1.325  0.00  0.00    -0.030 A 
ATOM     25  C   UNL     1       1.708  -3.225   0.248  0.00  0.00    +0.005 A 
ATOM     26  C   UNL     1       2.963  -3.531  -0.245  0.00  0.00    +0.000 A 
ATOM     27  C   UNL     1       4.089  -2.989   0.346  0.00  0.00    +0.000 A 
ATOM     28  C   UNL     1       3.959  -2.136   1.427  0.00  0.00    +0.000 A 
ATOM     29  C   UNL     1       2.704  -1.826   1.916  0.00  0.00    +0.005 A 
ENDBRANCH  23  24
ENDBRANCH   1  23
BRANCH   2  30
ATOM     30  C   UNL     1       1.029   0.180   3.439  0.00  0.00    +0.241 C 
BRANCH  30  31
ATOM     31  N   UNL     1       0.772   1.311   4.335  0.00  0.00    -0.235 N 
ATOM     32  C   UNL     1       1.505   2.470   4.428  0.00  0.00    +0.090 A 
ATOM     33  C   UNL     1       2.630   2.957   3.772  0.00  0.00    +0.029 A 
ATOM     34  C   UNL     1       3.127   4.188   4.097  0.00  0.00    +0.002 A 
ATOM     35  C   UNL     1       2.515   4.961   5.075  0.00  0.00    +0.002 A 
ATOM     36  C   UNL     1       1.406   4.509   5.729  0.00  0.00    +0.032 A 
ATOM     37  C   UNL     1       0.877   3.250   5.414  0.00  0.00    +0.113 A 
ATOM     38  N   UNL     1      -0.179   2.552   5.877  0.00  0.00    -0.129 NA
ATOM     39  N   UNL     1      -0.268   1.421   5.270  0.00  0.00    -0.064 NA
ENDBRANCH  30  31
ENDBRANCH   2  30
TORSDOF 9
