REMARK  Name = ZINC02459116
REMARK  7 active torsions:
REMARK  status: ('A' for Active; 'I' for Inactive)
REMARK    1  A    between atoms: C_4  and  C_7
REMARK    2  A    between atoms: C_11  and  S_13
REMARK    3  A    between atoms: S_13  and  C_14
REMARK    4  A    between atoms: C_14  and  C_15
REMARK    5  A    between atoms: C_15  and  C_17
REMARK    6  A    between atoms: C_20  and  O_24
REMARK    7  A    between atoms: C_21  and  O_23
REMARK                            x       y       z     vdW  Elec       q    Type
REMARK                         _______ _______ _______ _____ _____    ______ ____
ROOT
ATOM      1  C   UNL     1      -1.891   2.354   3.529  0.00  0.00    +0.161 A 
ATOM      2  N   UNL     1      -2.164   2.975   2.401  0.00  0.00    -0.232 NA
ATOM      3  C   UNL     1      -1.601   2.608   1.253  0.00  0.00    +0.049 A 
ATOM      4  C   UNL     1      -0.708   1.567   1.251  0.00  0.00    +0.006 A 
ATOM      5  C   UNL     1      -0.430   0.926   2.467  0.00  0.00    +0.105 A 
ATOM      6  N   UNL     1      -1.034   1.343   3.573  0.00  0.00    -0.221 NA
ATOM      7  C   UNL     1      -0.013   1.086   0.008  0.00  0.00    +0.039 C 
ATOM      8  C   UNL     1      -0.744   1.588  -1.236  0.00  0.00    +0.005 C 
ATOM      9  C   UNL     1      -0.949   3.101  -1.100  0.00  0.00    +0.006 C 
ATOM     10  C   UNL     1      -1.977   3.354   0.002  0.00  0.00    +0.056 C 
ENDROOT
BRANCH   1  14
ATOM     11  C   UNL     1      -3.777   3.634   7.118  0.00  0.00    +0.000 A 
ATOM     12  C   UNL     1      -2.881   2.580   7.149  0.00  0.00    +0.001 A 
ATOM     13  C   UNL     1      -2.266   2.161   5.987  0.00  0.00    +0.011 A 
ATOM     14  C   UNL     1      -2.549   2.800   4.781  0.00  0.00    +0.019 A 
ATOM     15  C   UNL     1      -3.448   3.865   4.757  0.00  0.00    +0.011 A 
ATOM     16  C   UNL     1      -4.062   4.272   5.925  0.00  0.00    +0.001 A 
ENDBRANCH   1  14
BRANCH   5  17
ATOM     17  S   UNL     1       0.710  -0.417   2.526  0.00  0.00    -0.098 S 
BRANCH  17  18
ATOM     18  C   UNL     1       0.648  -0.804   4.293  0.00  0.00    +0.155 C 
BRANCH  18  19
ATOM     19  C   UNL     1       1.572  -1.957   4.587  0.00  0.00    +0.173 C 
ATOM     20  O   UNL     1       2.210  -2.467   3.690  0.00  0.00    -0.291 OA
BRANCH  19  21
ATOM     21  C   UNL     1       1.700  -2.464   5.959  0.00  0.00    +0.022 A 
ATOM     22  C   UNL     1       0.969  -1.873   6.997  0.00  0.00    +0.015 A 
ATOM     23  C   UNL     1       1.087  -2.354   8.282  0.00  0.00    +0.050 A 
ATOM     24  C   UNL     1       1.939  -3.417   8.554  0.00  0.00    +0.158 A 
ATOM     25  C   UNL     1       2.675  -4.007   7.527  0.00  0.00    +0.159 A 
ATOM     26  C   UNL     1       2.559  -3.535   6.235  0.00  0.00    +0.060 A 
BRANCH  25  27
ATOM     27  O   UNL     1       3.508  -5.047   7.799  0.00  0.00    -0.503 OA
ATOM     28  H   UNL     1       4.410  -4.781   8.025  0.00  0.00    +0.292 HD
ENDBRANCH  25  27
BRANCH  24  29
ATOM     29  O   UNL     1       2.055  -3.883   9.824  0.00  0.00    -0.503 OA
ATOM     30  H   UNL     1       2.749  -3.451  10.340  0.00  0.00    +0.292 HD
ENDBRANCH  24  29
ENDBRANCH  19  21
ENDBRANCH  18  19
ENDBRANCH  17  18
ENDBRANCH   5  17
TORSDOF 7
