REMARK  Name = ZINC15105873
REMARK  15 active torsions:
REMARK  status: ('A' for Active; 'I' for Inactive)
REMARK    1  A    between atoms: C_1  and  C_2
REMARK    2  A    between atoms: C_2  and  O_3
REMARK    3  A    between atoms: O_3  and  C_4
REMARK    4  A    between atoms: C_4  and  C_6
REMARK    5  A    between atoms: C_8  and  C_34
REMARK    6  A    between atoms: C_10  and  C_29
REMARK    7  A    between atoms: C_12  and  C_27
REMARK    8  A    between atoms: C_12  and  O_28
REMARK    9  A    between atoms: N_15  and  N_16
REMARK   10  A    between atoms: N_16  and  S_17
REMARK   11  A    between atoms: S_17  and  C_20
REMARK   12  A    between atoms: C_23  and  C_26
REMARK   13  A    between atoms: C_29  and  O_31
REMARK   14  A    between atoms: O_31  and  C_32
REMARK   15  A    between atoms: C_32  and  C_33
REMARK                            x       y       z     vdW  Elec       q    Type
REMARK                         _______ _______ _______ _____ _____    ______ ____
ROOT
ATOM      1  C   UNL     1      -1.345   3.073   1.298  0.00  0.00    +0.152 C 
ATOM      2  C   UNL     1      -1.097   1.693   1.916  0.00  0.00    +0.055 C 
ATOM      3  C   UNL     1      -0.084   0.928   1.062  0.00  0.00    +0.138 C 
ATOM      4  C   UNL     1      -0.664   0.679  -0.332  0.00  0.00    +0.082 C 
ATOM      5  C   UNL     1      -0.896   2.021  -1.034  0.00  0.00    +0.088 C 
ATOM      6  C   UNL     1      -1.761   2.886  -0.144  0.00  0.00    +0.055 C 
ATOM      7  N   UNL     1      -2.819   3.445  -0.601  0.00  0.00    -0.174 NA
ATOM      8  C   UNL     1       0.318  -0.162  -1.150  0.00  0.00    +0.042 C 
ENDROOT
BRANCH   2   9
ATOM      9  C   UNL     1      -0.554   1.858   3.312  0.00  0.00    -0.042 A 
ATOM     10  C   UNL     1       0.764   2.228   3.502  0.00  0.00    +0.004 A 
ATOM     11  C   UNL     1       1.264   2.373   4.783  0.00  0.00    +0.000 A 
ATOM     12  C   UNL     1       0.445   2.148   5.873  0.00  0.00    +0.000 A 
ATOM     13  C   UNL     1      -0.874   1.779   5.684  0.00  0.00    +0.000 A 
ATOM     14  C   UNL     1      -1.373   1.634   4.403  0.00  0.00    +0.004 A 
ENDBRANCH   2   9
BRANCH   1  15
ATOM     15  C   UNL     1      -0.082   3.892   1.363  0.00  0.00    +0.316 C 
ATOM     16  O   UNL     1       0.746   3.795   0.487  0.00  0.00    -0.250 OA
BRANCH  15  17
ATOM     17  O   UNL     1       0.124   4.728   2.392  0.00  0.00    -0.464 OA
BRANCH  17  19
ATOM     18  C   UNL     1       1.420   6.375   3.631  0.00  0.00    +0.048 C 
ATOM     19  C   UNL     1       1.363   5.484   2.389  0.00  0.00    +0.229 C 
ENDBRANCH  17  19
ENDBRANCH  15  17
ENDBRANCH   1  15
BRANCH   7  20
ATOM     20  N   UNL     1      -3.121   3.363  -1.966  0.00  0.00    -0.137 N 
ATOM     21  H   UNL     1      -2.490   2.954  -2.579  0.00  0.00    +0.197 HD
BRANCH  20  22
ATOM     22  S   UNL     1      -4.557   3.963  -2.534  0.00  0.00    +0.086 S 
ATOM     23  O   UNL     1      -4.506   3.864  -3.950  0.00  0.00    -0.149 OA
ATOM     24  O   UNL     1      -5.584   3.354  -1.764  0.00  0.00    -0.149 OA
BRANCH  22  25
ATOM     25  C   UNL     1      -4.591   5.682  -2.149  0.00  0.00    +0.110 A 
ATOM     26  C   UNL     1      -5.128   6.112  -0.950  0.00  0.00    +0.029 A 
ATOM     27  C   UNL     1      -5.150   7.460  -0.646  0.00  0.00    +0.005 A 
ATOM     28  C   UNL     1      -4.645   8.380  -1.547  0.00  0.00    -0.050 A 
ATOM     29  C   UNL     1      -4.114   7.951  -2.748  0.00  0.00    +0.005 A 
ATOM     30  C   UNL     1      -4.086   6.602  -3.050  0.00  0.00    +0.029 A 
ATOM     31  C   UNL     1      -4.675   9.850  -1.218  0.00  0.00    +0.044 C 
ENDBRANCH  22  25
ENDBRANCH  20  22
ENDBRANCH   7  20
BRANCH   4  32
ATOM     32  O   UNL     1      -1.906  -0.018  -0.213  0.00  0.00    -0.388 OA
ATOM     33  H   UNL     1      -2.332  -0.209  -1.060  0.00  0.00    +0.210 HD
ENDBRANCH   4  32
BRANCH   3  34
ATOM     34  C   UNL     1       0.229  -0.392   1.718  0.00  0.00    +0.314 C 
ATOM     35  O   UNL     1      -0.304  -0.689   2.761  0.00  0.00    -0.250 OA
BRANCH  34  36
ATOM     36  O   UNL     1       1.099  -1.237   1.144  0.00  0.00    -0.465 OA
BRANCH  36  37
ATOM     37  C   UNL     1       1.353  -2.490   1.831  0.00  0.00    +0.229 C 
ATOM     38  C   UNL     1       2.363  -3.315   1.032  0.00  0.00    +0.048 C 
ENDBRANCH  36  37
ENDBRANCH  34  36
ENDBRANCH   3  34
TORSDOF 11
