REMARK  Name = ZINC54642146
REMARK  10 active torsions:
REMARK  status: ('A' for Active; 'I' for Inactive)
REMARK    1  A    between atoms: C_1  and  C_2
REMARK    2  A    between atoms: C_5  and  N_9
REMARK    3  A    between atoms: C_6  and  C_8
REMARK    4  A    between atoms: C_10  and  C_12
REMARK    5  A    between atoms: C_13  and  C_38
REMARK    6  A    between atoms: C_17  and  S_29
REMARK    7  A    between atoms: C_20  and  C_22
REMARK    8  A    between atoms: C_25  and  O_28
REMARK    9  A    between atoms: S_29  and  C_30
REMARK   10  A    between atoms: C_30  and  C_31
REMARK                            x       y       z     vdW  Elec       q    Type
REMARK                         _______ _______ _______ _____ _____    ______ ____
ROOT
ATOM      1  C   UNL     1       0.148  -6.247  -1.001  0.00  0.00    +0.060 C 
ATOM      2  C   UNL     1       0.220  -6.960  -2.135  0.00  0.00    +0.018 C 
ATOM      3  N   UNL     1       0.258  -8.333  -2.134  0.00  0.00    -0.287 N 
ATOM      4  C   UNL     1      -0.042  -8.980  -0.944  0.00  0.00    +0.219 A 
ATOM      5  N   UNL     1      -0.294 -10.240  -0.713  0.00  0.00    -0.187 NA
ATOM      6  C   UNL     1      -0.539 -10.416   0.594  0.00  0.00    +0.211 A 
ATOM      7  N   UNL     1      -0.441  -9.256   1.208  0.00  0.00    -0.141 NA
ATOM      8  N   UNL     1      -0.117  -8.313   0.234  0.00  0.00    -0.220 N 
ATOM      9  C   UNL     1       0.122  -6.877   0.366  0.00  0.00    +0.177 C 
ATOM     10  C   UNL     1       0.259  -6.231  -3.453  0.00  0.00    +0.061 C 
ATOM     11  H   UNL     1       0.486  -8.831  -2.935  0.00  0.00    +0.155 HD
ENDROOT
BRANCH   9  12
ATOM     12  C   UNL     1       1.444  -6.644   1.052  0.00  0.00    -0.018 A 
ATOM     13  C   UNL     1       2.610  -7.119   0.481  0.00  0.00    +0.009 A 
ATOM     14  C   UNL     1       3.823  -6.907   1.108  0.00  0.00    +0.046 A 
ATOM     15  C   UNL     1       3.869  -6.217   2.311  0.00  0.00    +0.117 A 
ATOM     16  C   UNL     1       2.697  -5.741   2.881  0.00  0.00    +0.046 A 
ATOM     17  C   UNL     1       1.488  -5.951   2.247  0.00  0.00    +0.009 A 
BRANCH  15  18
ATOM     18  O   UNL     1       5.061  -6.008   2.930  0.00  0.00    -0.507 OA
ATOM     19  H   UNL     1       5.501  -5.187   2.669  0.00  0.00    +0.292 HD
ENDBRANCH  15  18
ENDBRANCH   9  12
BRANCH   1  21
ATOM     20  N   UNL     1       1.199  -4.148  -1.462  0.00  0.00    -0.281 N 
ATOM     21  C   UNL     1       0.101  -4.836  -1.094  0.00  0.00    +0.248 C 
ATOM     22  O   UNL     1      -0.933  -4.244  -0.842  0.00  0.00    -0.270 OA
ATOM     23  H   UNL     1       2.006  -4.622  -1.717  0.00  0.00    +0.155 HD
BRANCH  20  28
ATOM     24  C   UNL     1       1.106   1.524  -1.516  0.00  0.00    +0.044 C 
ATOM     25  C   UNL     1       1.131   0.017  -1.502  0.00  0.00    -0.050 A 
ATOM     26  C   UNL     1      -0.008  -0.695  -1.833  0.00  0.00    +0.005 A 
ATOM     27  C   UNL     1       0.012  -2.076  -1.821  0.00  0.00    +0.024 A 
ATOM     28  C   UNL     1       1.176  -2.750  -1.476  0.00  0.00    +0.037 A 
ATOM     29  C   UNL     1       2.318  -2.032  -1.144  0.00  0.00    -0.029 A 
ATOM     30  C   UNL     1       2.293  -0.651  -1.163  0.00  0.00    +0.008 A 
ATOM     31  C   UNL     1       3.583  -2.758  -0.768  0.00  0.00    +0.045 C 
ENDBRANCH  20  28
ENDBRANCH   1  21
BRANCH   6  32
ATOM     32  S   UNL     1      -0.929 -11.952   1.365  0.00  0.00    -0.080 S 
BRANCH  32  33
ATOM     33  C   UNL     1      -0.909 -13.146  -0.001  0.00  0.00    +0.115 C 
BRANCH  33  34
ATOM     34  C   UNL     1      -1.232 -14.519   0.528  0.00  0.00    -0.002 A 
ATOM     35  C   UNL     1      -0.216 -15.347   0.968  0.00  0.00    +0.007 A 
ATOM     36  C   UNL     1      -0.511 -16.607   1.453  0.00  0.00    +0.000 A 
ATOM     37  C   UNL     1      -1.823 -17.041   1.499  0.00  0.00    +0.003 A 
ATOM     38  C   UNL     1      -2.841 -16.215   1.060  0.00  0.00    +0.038 A 
ATOM     39  C   UNL     1      -2.546 -14.950   0.579  0.00  0.00    +0.127 A 
ATOM     40  F   UNL     1      -3.540 -14.140   0.154  0.00  0.00    -0.205 F 
ENDBRANCH  33  34
ENDBRANCH  32  33
ENDBRANCH   6  32
TORSDOF 7
