REMARK  Name = ZINC62766886
REMARK  5 active torsions:
REMARK  status: ('A' for Active; 'I' for Inactive)
REMARK    1  A    between atoms: C_3  and  C_11
REMARK    2  A    between atoms: C_6  and  C_7
REMARK    3  A    between atoms: C_11  and  S_12
REMARK    4  A    between atoms: S_12  and  C_13
REMARK    5  A    between atoms: C_19  and  N_21
REMARK                            x       y       z     vdW  Elec       q    Type
REMARK                         _______ _______ _______ _____ _____    ______ ____
ROOT
ATOM      1  S   UNL     1       4.205   2.501   1.685  0.00  0.00    -0.083 S 
ENDROOT
BRANCH   1   2
ATOM      2  C   UNL     1       5.706   3.406   1.506  0.00  0.00    +0.171 A 
ATOM      3  N   UNL     1       6.387   3.796   2.620  0.00  0.00    -0.302 N 
ATOM      4  H   UNL     1       6.043   3.574   3.500  0.00  0.00    +0.171 HD
ATOM      5  C   UNL     1       7.538   4.489   2.503  0.00  0.00    +0.254 A 
ATOM      6  O   UNL     1       8.155   4.842   3.496  0.00  0.00    -0.268 OA
ATOM      7  C   UNL     1       8.014   4.796   1.224  0.00  0.00    +0.113 A 
ATOM      8  C   UNL     1       7.284   4.376   0.121  0.00  0.00    +0.124 A 
ATOM      9  N   UNL     1       6.151   3.687   0.299  0.00  0.00    -0.209 NA
BRANCH   8  10
ATOM     10  N   UNL     1       7.727   4.664  -1.154  0.00  0.00    -0.343 N 
ATOM     11  H   UNL     1       8.551   5.160  -1.280  0.00  0.00    +0.144 HD
ATOM     12  H   UNL     1       7.215   4.369  -1.923  0.00  0.00    +0.144 HD
ENDBRANCH   8  10
ENDBRANCH   1   2
BRANCH   1  13
ATOM     13  C   UNL     1       3.669   2.199  -0.022  0.00  0.00    +0.115 C 
BRANCH  13  16
ATOM     14  C   UNL     1      -0.017   1.393   0.010  0.00  0.00    +0.015 A 
ATOM     15  C   UNL     1       1.170   2.096   0.002  0.00  0.00    +0.008 A 
ATOM     16  C   UNL     1       2.378   1.423  -0.013  0.00  0.00    -0.002 A 
ATOM     17  C   UNL     1       2.405   0.037  -0.022  0.00  0.00    +0.128 A 
ATOM     18  C   UNL     1       1.225  -0.680  -0.014  0.00  0.00    +0.053 A 
ATOM     19  C   UNL     1       0.002  -0.004   0.002  0.00  0.00    +0.066 A 
ATOM     20  F   UNL     1       3.589  -0.614  -0.038  0.00  0.00    -0.205 F 
BRANCH  19  21
ATOM     21  C   UNL     1      -1.264  -0.762   0.011  0.00  0.00    +0.387 C 
ATOM     22  O   UNL     1      -2.332  -0.168   0.024  0.00  0.00    -0.241 OA
ATOM     23  O   UNL     1      -1.244  -1.985   0.004  0.00  0.00    -0.241 OA
ENDBRANCH  19  21
ENDBRANCH  13  16
ENDBRANCH   1  13
TORSDOF 5
