REMARK  Name = ZINC19964253
REMARK  4 active torsions:
REMARK  status: ('A' for Active; 'I' for Inactive)
REMARK    1  A    between atoms: C_1  and  C_2
REMARK    2  A    between atoms: C_6  and  N_9
REMARK    3  A    between atoms: C_7  and  C_8
REMARK    4  A    between atoms: N_9  and  C_10
REMARK                            x       y       z     vdW  Elec       q    Type
REMARK                         _______ _______ _______ _____ _____    ______ ____
ROOT
ATOM      1  C   UNL     1       0.071  -4.261   2.379  0.00  0.00    +0.190 C 
ATOM      2  C   UNL     1       0.639  -4.793   3.675  0.00  0.00    +0.003 A 
ATOM      3  C   UNL     1       1.866  -4.656   4.285  0.00  0.00    +0.008 A 
ATOM      4  C   UNL     1       2.105  -5.274   5.500  0.00  0.00    +0.000 A 
ATOM      5  C   UNL     1       1.110  -6.027   6.097  0.00  0.00    +0.002 A 
ATOM      6  C   UNL     1      -0.120  -6.165   5.487  0.00  0.00    +0.023 A 
ATOM      7  C   UNL     1      -0.368  -5.546   4.264  0.00  0.00    +0.039 A 
ATOM      8  N   UNL     1      -1.510  -5.536   3.462  0.00  0.00    -0.283 N 
ATOM      9  C   UNL     1      -1.340  -4.810   2.340  0.00  0.00    +0.242 C 
ATOM     10  O   UNL     1      -2.160  -4.628   1.465  0.00  0.00    -0.273 OA
ATOM     11  H   UNL     1      -2.332  -6.000   3.686  0.00  0.00    +0.155 HD
ENDROOT
BRANCH   1  12
ATOM     12  N   UNL     1       0.051  -2.796   2.390  0.00  0.00    -0.329 N 
ATOM     13  H   UNL     1       0.049  -2.318   3.234  0.00  0.00    +0.147 HD
BRANCH  12  19
ATOM     14  C   UNL     1      -0.018   1.503   0.010  0.00  0.00    +0.044 C 
ATOM     15  C   UNL     1       0.002  -0.004   0.002  0.00  0.00    -0.046 A 
ATOM     16  C   UNL     1       0.006  -0.688  -1.200  0.00  0.00    +0.004 A 
ATOM     17  C   UNL     1       0.024  -2.071  -1.212  0.00  0.00    +0.002 A 
ATOM     18  C   UNL     1       0.039  -2.773  -0.023  0.00  0.00    +0.023 A 
ATOM     19  C   UNL     1       0.036  -2.089   1.186  0.00  0.00    +0.031 A 
ATOM     20  C   UNL     1       0.023  -0.700   1.194  0.00  0.00    -0.027 A 
ATOM     21  C   UNL     1       0.025   0.046   2.504  0.00  0.00    +0.046 C 
ENDBRANCH  12  19
ENDBRANCH   1  12
TORSDOF 2
