REMARK  Name = ZINC39686309
REMARK  7 active torsions:
REMARK  status: ('A' for Active; 'I' for Inactive)
REMARK    1  A    between atoms: C_1  and  C_2
REMARK    2  A    between atoms: C_2  and  C_3
REMARK    3  A    between atoms: C_2  and  C_4
REMARK    4  A    between atoms: C_4  and  C_5
REMARK    5  A    between atoms: C_10  and  N_13
REMARK    6  A    between atoms: C_14  and  C_16
REMARK    7  A    between atoms: C_27  and  C_29
REMARK                            x       y       z     vdW  Elec       q    Type
REMARK                         _______ _______ _______ _____ _____    ______ ____
ROOT
ATOM      1  C   UNL     1       7.764  -4.204  -4.745  0.00  0.00    +0.100 C 
ATOM      2  C   UNL     1       7.008  -5.266  -5.574  0.00  0.00    +0.121 C 
ATOM      3  N   UNL     1       7.424  -5.013  -6.974  0.00  0.00    -0.300 N 
ATOM      4  C   UNL     1       8.867  -4.687  -6.877  0.00  0.00    +0.115 C 
ATOM      5  C   UNL     1       8.985  -3.829  -5.601  0.00  0.00    -0.004 C 
ATOM      6  C   UNL     1      10.275  -4.164  -4.858  0.00  0.00    -0.010 C 
ATOM      7  C   UNL     1      11.475  -3.729  -5.704  0.00  0.00    -0.082 C 
ATOM      8  N   UNL     1      11.396  -2.286  -5.964  0.00  0.00    +0.379 N 
ATOM      9  C   UNL     1      10.199  -1.985  -6.760  0.00  0.00    -0.082 C 
ATOM     10  C   UNL     1       8.946  -2.346  -5.958  0.00  0.00    -0.010 C 
ATOM     11  C   UNL     1       6.663  -5.068  -8.085  0.00  0.00    +0.219 C 
ATOM     12  O   UNL     1       7.153  -4.833  -9.169  0.00  0.00    -0.275 OA
ATOM     13  H   UNL     1      11.347  -1.790  -5.087  0.00  0.00    -0.086 HD
ATOM     14  H   UNL     1      12.217  -1.991  -6.469  0.00  0.00    -0.086 HD
ENDROOT
BRANCH  11  15
ATOM     15  C   UNL     1       5.201  -5.420  -7.980  0.00  0.00    +0.079 C 
ATOM     16  C   UNL     1       4.570  -5.424  -9.378  0.00  0.00    +0.017 C 
ATOM     17  C   UNL     1       3.058  -5.607  -9.226  0.00  0.00    +0.027 C 
ATOM     18  C   UNL     1       2.767  -6.766  -8.317  0.00  0.00    -0.031 C 
ATOM     19  C   UNL     1       3.633  -7.290  -7.510  0.00  0.00    -0.030 C 
ATOM     20  C   UNL     1       5.051  -6.817  -7.373  0.00  0.00    +0.039 C 
ENDBRANCH  11  15
BRANCH   1  22
ATOM     21  N   UNL     1       7.064  -2.237  -3.418  0.00  0.00    -0.312 N 
ATOM     22  C   UNL     1       6.892  -2.996  -4.519  0.00  0.00    +0.218 C 
ATOM     23  O   UNL     1       6.035  -2.707  -5.327  0.00  0.00    -0.275 OA
ATOM     24  H   UNL     1       7.749  -2.468  -2.772  0.00  0.00    +0.149 HD
BRANCH  21  30
ATOM     25  C   UNL     1       5.971   2.770  -1.742  0.00  0.00    +0.216 C 
ATOM     26  O   UNL     1       6.359   3.687  -2.434  0.00  0.00    -0.276 OA
ATOM     27  N   UNL     1       5.710   1.570  -2.296  0.00  0.00    -0.301 N 
ATOM     28  C   UNL     1       5.234   0.451  -1.471  0.00  0.00    +0.109 C 
ATOM     29  C   UNL     1       6.149  -0.756  -1.701  0.00  0.00    +0.041 C 
ATOM     30  C   UNL     1       6.216  -1.063  -3.198  0.00  0.00    +0.076 C 
ATOM     31  C   UNL     1       6.805   0.138  -3.942  0.00  0.00    +0.041 C 
ATOM     32  C   UNL     1       5.891   1.357  -3.739  0.00  0.00    +0.109 C 
BRANCH  25  33
ATOM     33  C   UNL     1       5.781   2.973  -0.261  0.00  0.00    +0.099 C 
BRANCH  33  35
ATOM     34  C   UNL     1       5.160   5.374  -0.562  0.00  0.00    +0.008 C 
ATOM     35  C   UNL     1       6.144   4.413   0.108  0.00  0.00    -0.008 C 
ATOM     36  C   UNL     1       6.070   4.585   1.626  0.00  0.00    +0.008 C 
ENDBRANCH  33  35
ENDBRANCH  25  33
ENDBRANCH  21  30
ENDBRANCH   1  22
TORSDOF 5
