REMARK  Name = ZINC24071718
REMARK  11 active torsions:
REMARK  status: ('A' for Active; 'I' for Inactive)
REMARK    1  A    between atoms: C_1  and  C_2
REMARK    2  A    between atoms: C_2  and  N_3
REMARK    3  A    between atoms: N_3  and  C_4
REMARK    4  A    between atoms: N_3  and  C_16
REMARK    5  A    between atoms: C_4  and  C_5
REMARK    6  A    between atoms: N_7  and  C_8
REMARK    7  A    between atoms: C_11  and  O_14
REMARK    8  A    between atoms: O_14  and  C_15
REMARK    9  A    between atoms: C_16  and  C_18
REMARK   10  A    between atoms: C_16  and  C_19
REMARK   11  A    between atoms: N_24  and  C_25
REMARK                            x       y       z     vdW  Elec       q    Type
REMARK                         _______ _______ _______ _____ _____    ______ ____
ROOT
ATOM      1  C   UNL     1       4.032  -6.015  -0.742  0.00  0.00    +0.017 C 
ATOM      2  C   UNL     1       3.503  -5.405  -2.042  0.00  0.00    -0.004 C 
ENDROOT
BRANCH   1   3
ATOM      3  C   UNL     1       5.511  -6.271  -0.872  0.00  0.00    +0.207 C 
ATOM      4  O   UNL     1       6.305  -5.419  -0.537  0.00  0.00    -0.277 OA
ATOM      5  N   UNL     1       5.951  -7.448  -1.361  0.00  0.00    -0.242 N 
ATOM      6  C   UNL     1       7.274  -7.677  -1.477  0.00  0.00    +0.306 C 
ATOM      7  O   UNL     1       8.070  -6.822  -1.141  0.00  0.00    -0.252 OA
ATOM      8  N   UNL     1       7.714  -8.853  -1.966  0.00  0.00    -0.294 N 
ATOM      9  H   UNL     1       5.230  -8.221  -1.665  0.00  0.00    +0.159 HD
ATOM     10  H   UNL     1       6.993  -9.626  -2.271  0.00  0.00    +0.151 HD
BRANCH   8  11
ATOM     11  C   UNL     1       9.152  -9.102  -2.093  0.00  0.00    +0.037 C 
ATOM     12  C   UNL     1       9.770  -8.059  -3.027  0.00  0.00    +0.029 C 
ATOM     13  C   UNL     1      11.272  -8.319  -3.159  0.00  0.00    -0.008 C 
ATOM     14  C   UNL     1      11.498  -9.718  -3.735  0.00  0.00    +0.007 C 
ATOM     15  C   UNL     1      10.880 -10.761  -2.802  0.00  0.00    -0.008 C 
ATOM     16  C   UNL     1       9.379 -10.501  -2.670  0.00  0.00    +0.029 C 
ATOM     17  C   UNL     1      11.538 -10.665  -1.423  0.00  0.00    +0.007 C 
ATOM     18  C   UNL     1      11.311  -9.266  -0.847  0.00  0.00    -0.008 C 
ATOM     19  C   UNL     1      11.929  -8.223  -1.780  0.00  0.00    +0.007 C 
ATOM     20  C   UNL     1       9.809  -9.006  -0.715  0.00  0.00    +0.029 C 
ENDBRANCH   8  11
ENDBRANCH   1   3
BRANCH   1  21
ATOM     21  N   UNL     1       3.791  -5.085   0.369  0.00  0.00    +0.393 N 
ATOM     22  H   UNL     1       4.320  -4.147   0.145  0.00  0.00    -0.080 HD
BRANCH  21  24
ATOM     23  C   UNL     1       3.679  -6.968   1.931  0.00  0.00    -0.017 C 
ATOM     24  C   UNL     1       4.331  -5.617   1.628  0.00  0.00    -0.081 C 
ENDBRANCH  21  24
BRANCH  21  25
ATOM     25  C   UNL     1       2.361  -4.777   0.498  0.00  0.00    +0.020 C 
BRANCH  25  26
ATOM     26  C   UNL     1       2.177  -3.644   1.475  0.00  0.00    +0.201 C 
ATOM     27  O   UNL     1       3.143  -3.142   2.011  0.00  0.00    -0.278 OA
ATOM     28  N   UNL     1       0.940  -3.188   1.753  0.00  0.00    -0.287 N 
ATOM     29  H   UNL     1       0.060  -3.687   1.321  0.00  0.00    +0.155 HD
BRANCH  28  30
ATOM     30  C   UNL     1       0.774  -2.078   2.591  0.00  0.00    +0.034 A 
ATOM     31  C   UNL     1       1.717  -1.058   2.588  0.00  0.00    +0.027 A 
ATOM     32  C   UNL     1       1.553   0.036   3.414  0.00  0.00    +0.047 A 
ATOM     33  C   UNL     1       0.447   0.117   4.248  0.00  0.00    +0.120 A 
ATOM     34  C   UNL     1      -0.495  -0.902   4.252  0.00  0.00    +0.047 A 
ATOM     35  C   UNL     1      -0.333  -1.996   3.426  0.00  0.00    +0.027 A 
BRANCH  33  36
ATOM     36  O   UNL     1       0.286   1.194   5.062  0.00  0.00    -0.495 OA
ATOM     37  C   UNL     1      -0.876   1.211   5.893  0.00  0.00    +0.277 C 
ENDBRANCH  33  36
ENDBRANCH  28  30
ENDBRANCH  25  26
ENDBRANCH  21  25
ENDBRANCH   1  21
TORSDOF 8
