REMARK  Name = ZINC39660374
REMARK  10 active torsions:
REMARK  status: ('A' for Active; 'I' for Inactive)
REMARK    1  A    between atoms: C_1  and  C_2
REMARK    2  A    between atoms: C_2  and  C_3
REMARK    3  A    between atoms: C_3  and  C_4
REMARK    4  A    between atoms: C_4  and  C_5
REMARK    5  A    between atoms: C_5  and  C_6
REMARK    6  A    between atoms: C_6  and  N_7
REMARK    7  A    between atoms: C_8  and  C_10
REMARK    8  A    between atoms: C_21  and  C_23
REMARK    9  A    between atoms: C_25  and  O_30
REMARK   10  A    between atoms: O_30  and  C_31
REMARK                            x       y       z     vdW  Elec       q    Type
REMARK                         _______ _______ _______ _____ _____    ______ ____
ROOT
ATOM      1  C   UNL     1       2.807  -6.495  -4.594  0.00  0.00    +0.100 C 
ATOM      2  C   UNL     1       4.178  -5.838  -4.869  0.00  0.00    +0.121 C 
ATOM      3  N   UNL     1       5.171  -6.865  -4.477  0.00  0.00    -0.296 N 
ATOM      4  C   UNL     1       4.583  -8.143  -4.945  0.00  0.00    +0.115 C 
ATOM      5  C   UNL     1       3.076  -8.008  -4.649  0.00  0.00    -0.004 C 
ATOM      6  C   UNL     1       2.259  -8.651  -5.765  0.00  0.00    -0.010 C 
ATOM      7  C   UNL     1       2.499 -10.163  -5.762  0.00  0.00    -0.082 C 
ATOM      8  N   UNL     1       2.109 -10.719  -4.461  0.00  0.00    +0.379 N 
ATOM      9  C   UNL     1       2.963 -10.165  -3.403  0.00  0.00    -0.082 C 
ATOM     10  C   UNL     1       2.743  -8.653  -3.307  0.00  0.00    -0.010 C 
ATOM     11  C   UNL     1       6.344  -6.680  -3.839  0.00  0.00    +0.248 C 
ATOM     12  O   UNL     1       7.100  -7.618  -3.672  0.00  0.00    -0.270 OA
ATOM     13  H   UNL     1       1.146 -10.485  -4.271  0.00  0.00    -0.086 HD
ATOM     14  H   UNL     1       2.211 -11.723  -4.482  0.00  0.00    -0.086 HD
ENDROOT
BRANCH  11  15
ATOM     15  C   UNL     1       6.712  -5.337  -3.344  0.00  0.00    +0.054 A 
ATOM     16  C   UNL     1       6.358  -4.200  -4.072  0.00  0.00    +0.059 A 
ATOM     17  C   UNL     1       6.705  -2.946  -3.602  0.00  0.00    +0.121 A 
ATOM     18  C   UNL     1       7.404  -2.820  -2.408  0.00  0.00    +0.047 A 
ATOM     19  C   UNL     1       7.756  -3.943  -1.685  0.00  0.00    +0.019 A 
ATOM     20  C   UNL     1       7.410  -5.200  -2.142  0.00  0.00    +0.030 A 
ATOM     21 BR   UNL     1       7.888  -6.734  -1.145  0.00  0.00    -0.050 Br
BRANCH  17  22
ATOM     22  O   UNL     1       6.362  -1.837  -4.308  0.00  0.00    -0.495 OA
ATOM     23  C   UNL     1       6.752  -0.574  -3.764  0.00  0.00    +0.277 C 
ENDBRANCH  17  22
ENDBRANCH  11  15
BRANCH   1  25
ATOM     24  N   UNL     1       0.975  -6.074  -2.987  0.00  0.00    -0.315 N 
ATOM     25  C   UNL     1       2.300  -6.101  -3.231  0.00  0.00    +0.218 C 
ATOM     26  O   UNL     1       3.084  -5.808  -2.353  0.00  0.00    -0.275 OA
ATOM     27  H   UNL     1       0.347  -6.309  -3.689  0.00  0.00    +0.149 HD
BRANCH  24  28
ATOM     28  C   UNL     1       0.481  -5.692  -1.661  0.00  0.00    +0.104 C 
BRANCH  28  29
ATOM     29  C   UNL     1      -1.048  -5.743  -1.652  0.00  0.00    +0.019 C 
BRANCH  29  30
ATOM     30  C   UNL     1      -1.563  -5.343  -0.268  0.00  0.00    +0.002 C 
BRANCH  30  31
ATOM     31  C   UNL     1      -3.092  -5.395  -0.258  0.00  0.00    -0.000 C 
BRANCH  31  33
ATOM     32  C   UNL     1      -5.136  -5.046   1.136  0.00  0.00    +0.004 C 
ATOM     33  C   UNL     1      -3.607  -4.995   1.126  0.00  0.00    -0.003 C 
ENDBRANCH  31  33
ENDBRANCH  30  31
ENDBRANCH  29  30
ENDBRANCH  28  29
ENDBRANCH  24  28
ENDBRANCH   1  25
TORSDOF 8
