REMARK  Name = ZINC12716224
REMARK  9 active torsions:
REMARK  status: ('A' for Active; 'I' for Inactive)
REMARK    1  A    between atoms: C_1  and  C_2
REMARK    2  A    between atoms: C_3  and  C_31
REMARK    3  A    between atoms: C_4  and  O_29
REMARK    4  A    between atoms: C_7  and  C_8
REMARK    5  A    between atoms: C_8  and  N_62
REMARK    6  A    between atoms: C_14  and  C_16
REMARK    7  A    between atoms: C_16  and  C_17
REMARK    8  A    between atoms: N_19  and  C_20
REMARK    9  A    between atoms: O_29  and  C_30
REMARK                            x       y       z     vdW  Elec       q    Type
REMARK                         _______ _______ _______ _____ _____    ______ ____
ROOT
ATOM      1  C   UNL     1      -0.745   3.484  -1.225  0.00  0.00    -0.058 C 
ATOM      2  C   UNL     1       0.664   4.015  -1.498  0.00  0.00    +0.085 C 
ATOM      3  N   UNL     1       1.616   3.410  -0.571  0.00  0.00    -0.318 N 
ATOM      4  C   UNL     1       1.352   2.293   0.115  0.00  0.00    +0.200 C 
ATOM      5  O   UNL     1       2.212   1.841   0.841  0.00  0.00    -0.278 OA
ATOM      6  C   UNL     1       0.036   1.574   0.022  0.00  0.00    +0.028 C 
ATOM      7  H   UNL     1       2.477   3.838  -0.447  0.00  0.00    +0.149 HD
ATOM      8  N   UNL     1      -0.679   2.010  -1.192  0.00  0.00    +0.391 N 
ATOM      9  H   UNL     1      -0.169   1.678  -2.019  0.00  0.00    -0.080 HD
ENDROOT
BRANCH   8  10
ATOM     10  C   UNL     1      -2.045   1.439  -1.208  0.00  0.00    -0.042 C 
BRANCH  10  17
ATOM     11  C   UNL     1      -1.581   0.350  -3.841  0.00  0.00    +0.044 C 
ATOM     12  C   UNL     1      -2.574   1.469  -3.653  0.00  0.00    -0.043 A 
ATOM     13  C   UNL     1      -3.265   1.968  -4.740  0.00  0.00    -0.006 A 
ATOM     14  C   UNL     1      -4.174   3.002  -4.567  0.00  0.00    +0.123 A 
ATOM     15  C   UNL     1      -4.391   3.527  -3.302  0.00  0.00    +0.046 A 
ATOM     16  C   UNL     1      -3.702   3.020  -2.217  0.00  0.00    +0.005 A 
ATOM     17  C   UNL     1      -2.796   1.990  -2.392  0.00  0.00    -0.061 A 
ATOM     18  C   UNL     1      -3.028   1.395  -6.113  0.00  0.00    +0.048 C 
BRANCH  14  19
ATOM     19  O   UNL     1      -4.851   3.498  -5.636  0.00  0.00    -0.495 OA
ATOM     20  C   UNL     1      -5.772   4.562  -5.383  0.00  0.00    +0.277 C 
ENDBRANCH  14  19
ENDBRANCH  10  17
ENDBRANCH   8  10
BRANCH   6  21
ATOM     21  C   UNL     1       0.286   0.067  -0.061  0.00  0.00    +0.089 C 
BRANCH  21  22
ATOM     22  C   UNL     1       1.087  -0.242  -1.300  0.00  0.00    +0.212 C 
ATOM     23  O   UNL     1       1.495   0.661  -1.999  0.00  0.00    -0.276 OA
ATOM     24  N   UNL     1       1.350  -1.522  -1.631  0.00  0.00    -0.312 N 
ATOM     25  H   UNL     1       1.024  -2.244  -1.072  0.00  0.00    +0.149 HD
BRANCH  24  26
ATOM     26  C   UNL     1       2.129  -1.822  -2.835  0.00  0.00    +0.082 C 
ATOM     27  C   UNL     1       1.201  -2.034  -4.050  0.00  0.00    +0.058 C 
ATOM     28  C   UNL     1       1.868  -3.114  -4.874  0.00  0.00    -0.042 A 
ATOM     29  C   UNL     1       1.672  -3.485  -6.194  0.00  0.00    +0.004 A 
ATOM     30  C   UNL     1       2.408  -4.517  -6.743  0.00  0.00    +0.000 A 
ATOM     31  C   UNL     1       3.343  -5.183  -5.972  0.00  0.00    +0.000 A 
ATOM     32  C   UNL     1       3.539  -4.814  -4.655  0.00  0.00    +0.004 A 
ATOM     33  C   UNL     1       2.803  -3.779  -4.104  0.00  0.00    -0.042 A 
ATOM     34  C   UNL     1       2.828  -3.192  -2.709  0.00  0.00    +0.058 C 
ENDBRANCH  24  26
ENDBRANCH  21  22
ENDBRANCH   6  21
TORSDOF 6
