REMARK  Name = ZINC45697248
REMARK  9 active torsions:
REMARK  status: ('A' for Active; 'I' for Inactive)
REMARK    1  A    between atoms: C_4  and  N_7
REMARK    2  A    between atoms: C_8  and  C_10
REMARK    3  A    between atoms: C_15  and  N_16
REMARK    4  A    between atoms: C_17  and  C_19
REMARK    5  A    between atoms: C_19  and  C_20
REMARK    6  A    between atoms: C_20  and  S_21
REMARK    7  A    between atoms: S_21  and  C_22
REMARK    8  A    between atoms: C_25  and  C_28
REMARK    9  A    between atoms: N_26  and  N_27
REMARK                            x       y       z     vdW  Elec       q    Type
REMARK                         _______ _______ _______ _____ _____    ______ ____
ROOT
ATOM      1  N   UNL     1       3.756  -4.788   0.038  0.00  0.00    -0.285 N 
ATOM      2  C   UNL     1       3.847  -6.130  -0.060  0.00  0.00    +0.218 C 
ATOM      3  O   UNL     1       4.930  -6.670   0.010  0.00  0.00    -0.275 OA
ATOM      4  H   UNL     1       2.885  -4.361   0.048  0.00  0.00    +0.155 HD
ENDROOT
BRANCH   1  10
ATOM      5  C   UNL     1       4.965  -2.755  -0.488  0.00  0.00    +0.058 A 
ATOM      6  C   UNL     1       6.128  -1.988  -0.389  0.00  0.00    +0.015 A 
ATOM      7  C   UNL     1       7.216  -2.475   0.302  0.00  0.00    +0.001 A 
ATOM      8  C   UNL     1       7.163  -3.724   0.901  0.00  0.00    +0.002 A 
ATOM      9  C   UNL     1       6.020  -4.493   0.811  0.00  0.00    +0.024 A 
ATOM     10  C   UNL     1       4.912  -4.016   0.124  0.00  0.00    +0.046 A 
BRANCH   5  12
ATOM     11  N   UNL     1       3.884  -1.074  -1.897  0.00  0.00    -0.281 N 
ATOM     12  C   UNL     1       3.797  -2.240  -1.227  0.00  0.00    +0.250 C 
ATOM     13  O   UNL     1       2.755  -2.867  -1.232  0.00  0.00    -0.270 OA
ATOM     14  H   UNL     1       4.733  -0.607  -1.949  0.00  0.00    +0.155 HD
BRANCH  11  18
ATOM     15  C   UNL     1       0.511   0.525  -3.745  0.00  0.00    +0.000 A 
ATOM     16  C   UNL     1       1.448   1.366  -3.173  0.00  0.00    +0.002 A 
ATOM     17  C   UNL     1       2.567   0.839  -2.559  0.00  0.00    +0.023 A 
ATOM     18  C   UNL     1       2.752  -0.537  -2.517  0.00  0.00    +0.034 A 
ATOM     19  C   UNL     1       1.809  -1.379  -3.093  0.00  0.00    +0.023 A 
ATOM     20  C   UNL     1       0.691  -0.846  -3.705  0.00  0.00    +0.002 A 
ENDBRANCH  11  18
ENDBRANCH   5  12
ENDBRANCH   1  10
BRANCH   2  21
ATOM     21  C   UNL     1       2.603  -6.957  -0.256  0.00  0.00    +0.107 C 
BRANCH  21  22
ATOM     22  C   UNL     1       2.982  -8.437  -0.335  0.00  0.00    +0.086 C 
BRANCH  22  23
ATOM     23  S   UNL     1       1.484  -9.433  -0.571  0.00  0.00    -0.084 S 
BRANCH  23  24
ATOM     24  C   UNL     1       2.081 -11.090  -0.641  0.00  0.00    +0.209 A 
ATOM     25  N   UNL     1       3.334 -11.472  -0.536  0.00  0.00    -0.120 NA
ATOM     26  N   UNL     1       3.416 -12.751  -0.631  0.00  0.00    -0.123 NA
ATOM     27  C   UNL     1       2.219 -13.266  -0.805  0.00  0.00    +0.217 A 
ATOM     28  N   UNL     1       1.326 -12.216  -0.810  0.00  0.00    -0.221 N 
BRANCH  27  29
ATOM     29  C   UNL     1       1.893 -14.692  -0.957  0.00  0.00    +0.173 A 
ATOM     30  C   UNL     1       2.716 -15.737  -0.659  0.00  0.00    +0.053 A 
ATOM     31  C   UNL     1       2.001 -16.913  -0.956  0.00  0.00    +0.042 A 
ATOM     32  C   UNL     1       0.791 -16.536  -1.416  0.00  0.00    +0.196 A 
ATOM     33  O   UNL     1       0.728 -15.194  -1.411  0.00  0.00    -0.460 OA
ENDBRANCH  27  29
BRANCH  28  34
ATOM     34  N   UNL     1      -0.030 -12.287  -0.958  0.00  0.00    -0.294 N 
ATOM     35  H   UNL     1      -0.292 -12.231  -1.931  0.00  0.00    +0.163 HD
ATOM     36  H   UNL     1      -0.397 -13.125  -0.532  0.00  0.00    +0.163 HD
ENDBRANCH  28  34
ENDBRANCH  23  24
ENDBRANCH  22  23
ENDBRANCH  21  22
ENDBRANCH   2  21
TORSDOF 9
