REMARK  Name = ZINC41992860
REMARK  7 active torsions:
REMARK  status: ('A' for Active; 'I' for Inactive)
REMARK    1  A    between atoms: C_1  and  C_2
REMARK    2  A    between atoms: C_2  and  C_3
REMARK    3  A    between atoms: C_3  and  C_4
REMARK    4  A    between atoms: C_3  and  C_10
REMARK    5  A    between atoms: C_3  and  S_13
REMARK    6  A    between atoms: S_13  and  C_14
REMARK    7  A    between atoms: C_19  and  N_20
REMARK                            x       y       z     vdW  Elec       q    Type
REMARK                         _______ _______ _______ _____ _____    ______ ____
ROOT
ATOM      1  C   UNL     1       0.452  -0.537   1.192  0.00  0.00    +0.146 C 
ENDROOT
BRANCH   1   2
ATOM      2  C   UNL     1      -0.352  -0.030   2.361  0.00  0.00    -0.020 A 
ATOM      3  C   UNL     1      -1.535   0.651   2.143  0.00  0.00    +0.005 A 
ATOM      4  C   UNL     1      -2.273   1.117   3.215  0.00  0.00    +0.000 A 
ATOM      5  C   UNL     1      -1.827   0.901   4.506  0.00  0.00    +0.000 A 
ATOM      6  C   UNL     1      -0.645   0.220   4.724  0.00  0.00    +0.000 A 
ATOM      7  C   UNL     1       0.090  -0.250   3.652  0.00  0.00    +0.005 A 
ENDBRANCH   1   2
BRANCH   1   8
ATOM      8  C   UNL     1       0.720  -2.010   1.368  0.00  0.00    +0.376 C 
ATOM      9  O   UNL     1       1.867  -2.418   1.430  0.00  0.00    -0.244 OA
ATOM     10  O   UNL     1      -0.211  -2.794   1.448  0.00  0.00    -0.244 OA
ENDBRANCH   1   8
BRANCH   1  12
ATOM     11  C   UNL     1      -1.600  -1.171  -0.086  0.00  0.00    +0.006 C 
ATOM     12  C   UNL     1      -0.333  -0.313  -0.103  0.00  0.00    +0.031 C 
ENDBRANCH   1  12
BRANCH   1  13
ATOM     13  S   UNL     1       2.027   0.358   1.106  0.00  0.00    -0.100 S 
BRANCH  13  14
ATOM     14  C   UNL     1       2.903  -0.444  -0.195  0.00  0.00    +0.030 A 
ATOM     15  C   UNL     1       2.304  -1.472  -0.907  0.00  0.00    +0.018 A 
ATOM     16  C   UNL     1       2.993  -2.101  -1.927  0.00  0.00    +0.021 A 
ATOM     17  C   UNL     1       4.281  -1.707  -2.242  0.00  0.00    +0.043 A 
ATOM     18  C   UNL     1       4.887  -0.682  -1.537  0.00  0.00    +0.043 A 
ATOM     19  C   UNL     1       4.200  -0.043  -0.515  0.00  0.00    +0.040 A 
ATOM     20 CL   UNL     1       5.141  -2.501  -3.524  0.00  0.00    -0.083 Cl
BRANCH  19  21
ATOM     21  N   UNL     1       4.809   0.998   0.196  0.00  0.00    -0.357 N 
ATOM     22  H   UNL     1       4.329   1.441   0.912  0.00  0.00    +0.142 HD
ATOM     23  H   UNL     1       5.711   1.276  -0.029  0.00  0.00    +0.142 HD
ENDBRANCH  19  21
ENDBRANCH  13  14
ENDBRANCH   1  13
TORSDOF 6
