REMARK  Name = ZINC40170168
REMARK  8 active torsions:
REMARK  status: ('A' for Active; 'I' for Inactive)
REMARK    1  A    between atoms: C_1  and  C_2
REMARK    2  A    between atoms: C_2  and  C_3
REMARK    3  A    between atoms: C_3  and  C_5
REMARK    4  A    between atoms: C_3  and  S_20
REMARK    5  A    between atoms: N_7  and  C_8
REMARK    6  A    between atoms: C_9  and  C_17
REMARK    7  A    between atoms: S_20  and  C_21
REMARK    8  A    between atoms: C_32  and  C_34
REMARK                            x       y       z     vdW  Elec       q    Type
REMARK                         _______ _______ _______ _____ _____    ______ ____
ROOT
ATOM      1  C   UNL     1      -1.425  -0.537   0.140  0.00  0.00    +0.140 C 
ENDROOT
BRANCH   1   2
ATOM      2  C   UNL     1      -1.241  -2.032   0.206  0.00  0.00    +0.231 C 
ATOM      3  O   UNL     1      -1.208  -2.592   1.281  0.00  0.00    -0.274 OA
ATOM      4  N   UNL     1      -1.112  -2.745  -0.930  0.00  0.00    -0.278 N 
ATOM      5  H   UNL     1      -1.139  -2.297  -1.790  0.00  0.00    +0.155 HD
BRANCH   4   6
ATOM      6  C   UNL     1      -0.943  -4.120  -0.870  0.00  0.00    +0.084 A 
ATOM      7  C   UNL     1      -0.790  -5.007  -1.924  0.00  0.00    +0.068 A 
ATOM      8  C   UNL     1      -0.627  -6.412  -1.592  0.00  0.00    -0.023 A 
ATOM      9  C   UNL     1      -0.648  -6.672  -0.267  0.00  0.00    -0.004 A 
ATOM     10  S   UNL     1      -0.868  -5.092   0.497  0.00  0.00    -0.077 S 
ATOM     11  C   UNL     1      -0.508  -8.011   0.389  0.00  0.00    +0.043 C 
ATOM     12  C   UNL     1      -0.715  -9.095  -0.679  0.00  0.00    +0.005 C 
ATOM     13  C   UNL     1       0.134  -8.751  -1.906  0.00  0.00    +0.005 C 
ATOM     14  C   UNL     1      -0.446  -7.524  -2.614  0.00  0.00    +0.037 C 
BRANCH   7  15
ATOM     15  C   UNL     1      -0.792  -4.546  -3.316  0.00  0.00    +0.244 C 
ATOM     16  O   UNL     1       0.252  -4.225  -3.853  0.00  0.00    -0.270 OA
ATOM     17  N   UNL     1      -1.951  -4.479  -4.002  0.00  0.00    -0.325 N 
ATOM     18  H   UNL     1      -2.783  -4.736  -3.574  0.00  0.00    +0.145 HD
ATOM     19  H   UNL     1      -1.952  -4.175  -4.922  0.00  0.00    +0.145 HD
ENDBRANCH   7  15
ENDBRANCH   4   6
ENDBRANCH   1   2
BRANCH   1  21
ATOM     20  C   UNL     1      -0.272   1.637  -0.288  0.00  0.00    +0.005 C 
ATOM     21  C   UNL     1      -0.069   0.135  -0.083  0.00  0.00    +0.020 C 
ENDBRANCH   1  21
BRANCH   1  22
ATOM     22  S   UNL     1      -2.143   0.052   1.699  0.00  0.00    -0.073 S 
BRANCH  22  23
ATOM     23  C   UNL     1      -3.766  -0.634   1.707  0.00  0.00    +0.197 A 
ATOM     24  N   UNL     1      -4.327  -1.321   0.737  0.00  0.00    -0.122 NA
ATOM     25  N   UNL     1      -5.517  -1.673   1.072  0.00  0.00    -0.129 NA
ATOM     26  C   UNL     1      -5.790  -1.229   2.286  0.00  0.00    +0.162 A 
ATOM     27  N   UNL     1      -4.672  -0.556   2.724  0.00  0.00    -0.270 N 
ATOM     28  C   UNL     1      -4.642   0.028   3.978  0.00  0.00    +0.058 A 
ATOM     29  C   UNL     1      -3.516   0.710   4.422  0.00  0.00    +0.027 A 
ATOM     30  C   UNL     1      -3.509   1.285   5.676  0.00  0.00    +0.002 A 
ATOM     31  C   UNL     1      -4.618   1.190   6.503  0.00  0.00    +0.001 A 
ATOM     32  C   UNL     1      -5.745   0.518   6.083  0.00  0.00    +0.010 A 
ATOM     33  C   UNL     1      -5.767  -0.070   4.815  0.00  0.00    +0.002 A 
ATOM     34  C   UNL     1      -6.952  -0.791   4.340  0.00  0.00    -0.038 A 
ATOM     35  C   UNL     1      -6.939  -1.339   3.105  0.00  0.00    +0.052 A 
ATOM     36  C   UNL     1      -8.173  -0.912   5.216  0.00  0.00    +0.044 C 
ENDBRANCH  22  23
ENDBRANCH   1  22
TORSDOF 6
