REMARK  Name = ZINC14271573
REMARK  10 active torsions:
REMARK  status: ('A' for Active; 'I' for Inactive)
REMARK    1  A    between atoms: C_1  and  C_2
REMARK    2  A    between atoms: C_2  and  C_3
REMARK    3  A    between atoms: C_2  and  C_4
REMARK    4  A    between atoms: C_2  and  C_5
REMARK    5  A    between atoms: C_12  and  N_17
REMARK    6  A    between atoms: C_13  and  C_14
REMARK    7  A    between atoms: N_17  and  C_18
REMARK    8  A    between atoms: C_18  and  N_20
REMARK    9  A    between atoms: C_21  and  C_23
REMARK   10  A    between atoms: C_27  and  N_29
REMARK                            x       y       z     vdW  Elec       q    Type
REMARK                         _______ _______ _______ _____ _____    ______ ____
ROOT
ATOM      1  C   UNL     1      -9.026  -1.396  -0.340  0.00  0.00    -0.000 C 
ATOM      2  C   UNL     1      -9.392  -0.172   0.505  0.00  0.00    +0.009 C 
ATOM      3  C   UNL     1      -8.573   1.037   0.050  0.00  0.00    +0.037 C 
ATOM      4  C   UNL     1      -7.098   0.655   0.040  0.00  0.00    -0.023 A 
ATOM      5  C   UNL     1      -6.715  -0.640   0.031  0.00  0.00    -0.004 A 
ATOM      6  S   UNL     1      -4.946  -0.589   0.023  0.00  0.00    -0.077 S 
ATOM      7  C   UNL     1      -4.715   1.128   0.030  0.00  0.00    +0.084 A 
ATOM      8  C   UNL     1      -6.013   1.621   0.045  0.00  0.00    +0.068 A 
ATOM      9  C   UNL     1      -7.605  -1.845   0.029  0.00  0.00    +0.046 C 
ENDROOT
BRANCH   8  10
ATOM     10  C   UNL     1      -6.278   3.063   0.061  0.00  0.00    +0.244 C 
ATOM     11  O   UNL     1      -6.397   3.671  -0.987  0.00  0.00    -0.270 OA
ATOM     12  N   UNL     1      -6.391   3.714   1.235  0.00  0.00    -0.325 N 
ATOM     13  H   UNL     1      -6.296   3.230   2.070  0.00  0.00    +0.145 HD
ATOM     14  H   UNL     1      -6.567   4.668   1.245  0.00  0.00    +0.145 HD
ENDBRANCH   8  10
BRANCH   1  16
ATOM     15  C   UNL     1      -9.962  -2.888   1.433  0.00  0.00    +0.011 C 
ATOM     16  C   UNL     1     -10.012  -2.530  -0.054  0.00  0.00    -0.035 C 
ATOM     17  C   UNL     1     -11.428  -2.080  -0.423  0.00  0.00    +0.011 C 
ATOM     18  C   UNL     1      -9.634  -3.757  -0.887  0.00  0.00    +0.011 C 
ENDBRANCH   1  16
BRANCH   7  19
ATOM     19  N   UNL     1      -3.525   1.837   0.029  0.00  0.00    -0.291 N 
ATOM     20  H   UNL     1      -3.538   2.807   0.034  0.00  0.00    +0.154 HD
BRANCH  19  21
ATOM     21  C   UNL     1      -2.349   1.179   0.020  0.00  0.00    +0.141 C 
ATOM     22  S   UNL     1      -2.325  -0.532   0.010  0.00  0.00    -0.018 S 
BRANCH  21  23
ATOM     23  N   UNL     1      -1.191   1.869   0.018  0.00  0.00    -0.264 N 
ATOM     24  C   UNL     1      -0.014   1.211   0.009  0.00  0.00    +0.250 C 
ATOM     25  O   UNL     1       0.002  -0.004   0.002  0.00  0.00    -0.270 OA
ATOM     26  H   UNL     1      -1.204   2.839   0.023  0.00  0.00    +0.157 HD
BRANCH  24  27
ATOM     27  C   UNL     1       1.255   1.967   0.001  0.00  0.00    +0.039 A 
ATOM     28  C   UNL     1       1.240   3.364   0.003  0.00  0.00    +0.013 A 
ATOM     29  C   UNL     1       2.428   4.063   0.001  0.00  0.00    +0.003 A 
ATOM     30  C   UNL     1       3.634   3.384  -0.014  0.00  0.00    +0.033 A 
ATOM     31  C   UNL     1       3.657   2.001  -0.022  0.00  0.00    +0.127 A 
ATOM     32  C   UNL     1       2.475   1.289  -0.015  0.00  0.00    +0.045 A 
BRANCH  31  33
ATOM     33  N   UNL     1       4.951   1.284  -0.039  0.00  0.00    +0.056 N 
ATOM     34  O   UNL     1       4.973   0.066  -0.046  0.00  0.00    -0.126 OA
ATOM     35  O   UNL     1       5.995   1.911  -0.045  0.00  0.00    -0.126 OA
ENDBRANCH  31  33
ENDBRANCH  24  27
ENDBRANCH  21  23
ENDBRANCH  19  21
ENDBRANCH   7  19
TORSDOF 7
