REMARK  Name = ZINC65407601
REMARK  9 active torsions:
REMARK  status: ('A' for Active; 'I' for Inactive)
REMARK    1  A    between atoms: C_1  and  C_2
REMARK    2  A    between atoms: C_3  and  C_30
REMARK    3  A    between atoms: C_4  and  O_28
REMARK    4  A    between atoms: C_7  and  C_8
REMARK    5  A    between atoms: N_13  and  C_27
REMARK    6  A    between atoms: C_17  and  C_19
REMARK    7  A    between atoms: C_17  and  C_21
REMARK    8  A    between atoms: C_19  and  O_20
REMARK    9  A    between atoms: O_28  and  C_29
REMARK                            x       y       z     vdW  Elec       q    Type
REMARK                         _______ _______ _______ _____ _____    ______ ____
ROOT
ATOM      1  C   UNL     1      -0.259  -0.142   2.533  0.00  0.00    +0.087 C 
ATOM      2  C   UNL     1       1.137   0.480   2.661  0.00  0.00    -0.003 C 
ATOM      3  C   UNL     1       2.076  -0.107   1.596  0.00  0.00    -0.074 C 
ATOM      4  N   UNL     1       3.175  -0.786   2.316  0.00  0.00    +0.378 N 
ATOM      5  C   UNL     1       2.606  -1.200   3.622  0.00  0.00    -0.073 C 
ATOM      6  C   UNL     1       1.687   0.003   4.031  0.00  0.00    +0.002 C 
ATOM      7  C   UNL     1       0.452  -0.550   4.767  0.00  0.00    +0.070 C 
ATOM      8  N   UNL     1      -0.480  -0.996   3.713  0.00  0.00    -0.298 NA
ATOM      9  C   UNL     1       3.622  -1.964   1.562  0.00  0.00    -0.096 C 
ATOM     10  H   UNL     1      -1.438  -0.937   4.027  0.00  0.00    +0.123 HD
ATOM     11  H   UNL     1       3.944  -0.148   2.457  0.00  0.00    -0.082 HD
ENDROOT
BRANCH   1  18
ATOM     12  C   UNL     1      -0.687   1.133  -0.021  0.00  0.00    +0.044 C 
ATOM     13  C   UNL     1      -0.539  -0.364   0.056  0.00  0.00    -0.039 A 
ATOM     14  C   UNL     1      -0.602  -1.125  -1.095  0.00  0.00    -0.006 A 
ATOM     15  C   UNL     1      -0.465  -2.503  -1.023  0.00  0.00    +0.123 A 
ATOM     16  C   UNL     1      -0.264  -3.115   0.206  0.00  0.00    +0.046 A 
ATOM     17  C   UNL     1      -0.202  -2.350   1.355  0.00  0.00    +0.009 A 
ATOM     18  C   UNL     1      -0.334  -0.975   1.279  0.00  0.00    -0.027 A 
ATOM     19  C   UNL     1      -0.820  -0.458  -2.429  0.00  0.00    +0.048 C 
BRANCH  15  20
ATOM     20  O   UNL     1      -0.527  -3.254  -2.154  0.00  0.00    -0.495 OA
ATOM     21  C   UNL     1      -0.377  -4.667  -2.004  0.00  0.00    +0.277 C 
ENDBRANCH  15  20
ENDBRANCH   1  18
BRANCH   7  22
ATOM     22  C   UNL     1      -0.185   0.533   5.599  0.00  0.00    -0.025 A 
ATOM     23  C   UNL     1      -1.380   1.101   5.197  0.00  0.00    +0.005 A 
ATOM     24  C   UNL     1      -1.964   2.094   5.960  0.00  0.00    +0.000 A 
ATOM     25  C   UNL     1      -1.355   2.519   7.126  0.00  0.00    +0.000 A 
ATOM     26  C   UNL     1      -0.161   1.950   7.529  0.00  0.00    +0.000 A 
ATOM     27  C   UNL     1       0.421   0.954   6.768  0.00  0.00    +0.005 A 
ENDBRANCH   7  22
BRANCH   7  28
ATOM     28  C   UNL     1       0.851  -1.732   5.653  0.00  0.00    +0.183 C 
BRANCH  28  29
ATOM     29  O   UNL     1      -0.320  -2.306   6.237  0.00  0.00    -0.393 OA
ATOM     30  H   UNL     1      -0.142  -3.062   6.813  0.00  0.00    +0.209 HD
ENDBRANCH  28  29
ENDBRANCH   7  28
TORSDOF 5
