REMARK  Name = ZINC39161279
REMARK  5 active torsions:
REMARK  status: ('A' for Active; 'I' for Inactive)
REMARK    1  A    between atoms: C_7  and  C_10
REMARK    2  A    between atoms: C_10  and  C_11
REMARK    3  A    between atoms: N_13  and  C_14
REMARK    4  A    between atoms: N_18  and  C_20
REMARK    5  A    between atoms: C_20  and  C_21
REMARK                            x       y       z     vdW  Elec       q    Type
REMARK                         _______ _______ _______ _____ _____    ______ ____
ROOT
ATOM      1  C   UNL     1      -4.901   3.657  -0.953  0.00  0.00    +0.219 C 
ATOM      2  O   UNL     1      -4.476   2.924  -1.821  0.00  0.00    -0.275 OA
ATOM      3  N   UNL     1      -5.293   4.909  -1.260  0.00  0.00    -0.299 N 
ATOM      4  H   UNL     1      -5.632   5.495  -0.566  0.00  0.00    +0.150 HD
ENDROOT
BRANCH   3   5
ATOM      5  C   UNL     1      -5.205   5.386  -2.643  0.00  0.00    +0.156 C 
ATOM      6  C   UNL     1      -4.666   6.839  -2.693  0.00  0.00    +0.056 C 
ATOM      7  C   UNL     1      -5.258   7.370  -4.018  0.00  0.00    +0.105 C 
ATOM      8  N   UNL     1      -6.416   6.505  -4.320  0.00  0.00    -0.237 NA
ATOM      9  N   UNL     1      -6.559   5.526  -3.241  0.00  0.00    -0.234 NA
ATOM     10  H   UNL     1      -7.227   5.841  -2.554  0.00  0.00    +0.143 HD
BRANCH   8  11
ATOM     11  C   UNL     1      -7.641   7.301  -4.476  0.00  0.00    +0.138 C 
BRANCH  11  12
ATOM     12  C   UNL     1      -8.769   6.405  -4.920  0.00  0.00    -0.012 A 
ATOM     13  C   UNL     1      -9.734   6.009  -4.013  0.00  0.00    +0.026 A 
ATOM     14  C   UNL     1     -10.769   5.187  -4.420  0.00  0.00    +0.041 A 
ATOM     15  C   UNL     1     -10.839   4.761  -5.735  0.00  0.00    +0.021 A 
ATOM     16  C   UNL     1      -9.874   5.158  -6.641  0.00  0.00    +0.022 A 
ATOM     17  C   UNL     1      -8.842   5.985  -6.236  0.00  0.00    +0.046 A 
ATOM     18 CL   UNL     1      -7.634   6.489  -7.376  0.00  0.00    -0.083 Cl
ATOM     19 CL   UNL     1     -11.981   4.688  -3.281  0.00  0.00    -0.084 Cl
ENDBRANCH  11  12
ENDBRANCH   8  11
ENDBRANCH   3   5
BRANCH   1  20
ATOM     20  C   UNL     1      -4.991   3.167   0.470  0.00  0.00    +0.133 C 
BRANCH  20  27
ATOM     21  C   UNL     1      -0.725   1.277   0.923  0.00  0.00    +0.001 A 
ATOM     22  C   UNL     1      -0.748  -0.110   0.946  0.00  0.00    +0.002 A 
ATOM     23  C   UNL     1      -1.939  -0.795   0.840  0.00  0.00    +0.026 A 
ATOM     24  C   UNL     1      -3.132  -0.092   0.711  0.00  0.00    +0.047 A 
ATOM     25  N   UNL     1      -4.449  -0.473   0.587  0.00  0.00    -0.360 N 
ATOM     26  C   UNL     1      -5.247   0.634   0.489  0.00  0.00    +0.087 A 
ATOM     27  C   UNL     1      -4.496   1.746   0.544  0.00  0.00    -0.014 A 
ATOM     28  C   UNL     1      -3.103   1.315   0.689  0.00  0.00    +0.003 A 
ATOM     29  C   UNL     1      -1.886   1.989   0.802  0.00  0.00    +0.010 A 
ATOM     30  H   UNL     1      -4.764  -1.390   0.572  0.00  0.00    +0.165 HD
ENDBRANCH  20  27
ENDBRANCH   1  20
TORSDOF 5
