REMARK  Name = ZINC39570091
REMARK  7 active torsions:
REMARK  status: ('A' for Active; 'I' for Inactive)
REMARK    1  A    between atoms: C_1  and  C_2
REMARK    2  A    between atoms: C_2  and  C_23
REMARK    3  A    between atoms: N_5  and  C_9
REMARK    4  A    between atoms: C_9  and  C_10
REMARK    5  A    between atoms: N_12  and  C_13
REMARK    6  A    between atoms: C_16  and  S_19
REMARK    7  A    between atoms: S_19  and  C_20
REMARK                            x       y       z     vdW  Elec       q    Type
REMARK                         _______ _______ _______ _____ _____    ______ ____
ROOT
ATOM      1  C   UNL     1      -0.493   1.807  -0.397  0.00  0.00    +0.047 C 
ATOM      2  C   UNL     1      -0.466   0.280  -0.496  0.00  0.00    +0.136 C 
ATOM      3  C   UNL     1      -1.811  -0.303  -0.113  0.00  0.00    +0.251 C 
ATOM      4  O   UNL     1      -2.875  -0.112  -0.661  0.00  0.00    -0.272 OA
ATOM      5  N   UNL     1      -1.579  -1.079   0.965  0.00  0.00    -0.215 N 
ATOM      6  C   UNL     1      -0.287  -1.066   1.312  0.00  0.00    +0.310 C 
ATOM      7  O   UNL     1       0.166  -1.690   2.252  0.00  0.00    -0.252 OA
ATOM      8  N   UNL     1       0.455  -0.288   0.504  0.00  0.00    -0.281 N 
ATOM      9  H   UNL     1       1.410  -0.131   0.567  0.00  0.00    +0.152 HD
ENDROOT
BRANCH   2  10
ATOM     10  C   UNL     1      -0.073  -0.152  -1.885  0.00  0.00    -0.008 A 
ATOM     11  C   UNL     1       1.029  -0.929  -2.073  0.00  0.00    +0.007 A 
ATOM     12  C   UNL     1       1.408  -1.339  -3.350  0.00  0.00    +0.001 A 
ATOM     13  C   UNL     1       0.687  -0.974  -4.446  0.00  0.00    +0.008 A 
ATOM     14  C   UNL     1      -0.456  -0.173  -4.291  0.00  0.00    -0.018 A 
ATOM     15  C   UNL     1      -0.845   0.239  -2.991  0.00  0.00    -0.012 A 
ATOM     16  C   UNL     1      -1.992   1.036  -2.836  0.00  0.00    +0.009 A 
ATOM     17  C   UNL     1      -2.716   1.395  -3.931  0.00  0.00    +0.001 A 
ATOM     18  C   UNL     1      -2.337   0.985  -5.208  0.00  0.00    +0.001 A 
ATOM     19  C   UNL     1      -1.225   0.224  -5.398  0.00  0.00    +0.008 A 
ENDBRANCH   2  10
BRANCH   5  20
ATOM     20  C   UNL     1      -2.613  -1.840   1.669  0.00  0.00    +0.214 C 
BRANCH  20  21
ATOM     21  C   UNL     1      -2.729  -3.213   1.059  0.00  0.00    +0.235 C 
ATOM     22  O   UNL     1      -2.018  -3.525   0.127  0.00  0.00    -0.274 OA
ATOM     23  N   UNL     1      -3.624  -4.095   1.549  0.00  0.00    -0.284 N 
ATOM     24  H   UNL     1      -4.240  -3.823   2.247  0.00  0.00    +0.155 HD
BRANCH  23  25
ATOM     25  C   UNL     1      -3.663  -5.404   1.049  0.00  0.00    +0.033 A 
ATOM     26  C   UNL     1      -4.875  -6.074   0.954  0.00  0.00    +0.024 A 
ATOM     27  C   UNL     1      -4.915  -7.363   0.462  0.00  0.00    +0.017 A 
ATOM     28  C   UNL     1      -3.741  -7.990   0.061  0.00  0.00    +0.013 A 
ATOM     29  C   UNL     1      -2.528  -7.318   0.156  0.00  0.00    +0.017 A 
ATOM     30  C   UNL     1      -2.490  -6.027   0.644  0.00  0.00    +0.024 A 
BRANCH  28  31
ATOM     31  S   UNL     1      -3.791  -9.635  -0.567  0.00  0.00    -0.056 S 
BRANCH  31  32
ATOM     32  C   UNL     1      -2.057 -10.012  -0.947  0.00  0.00    +0.404 C 
ATOM     33  F   UNL     1      -1.579  -9.101  -1.894  0.00  0.00    -0.197 F 
ATOM     34  F   UNL     1      -1.292  -9.916   0.220  0.00  0.00    -0.197 F 
ENDBRANCH  31  32
ENDBRANCH  28  31
ENDBRANCH  23  25
ENDBRANCH  20  21
ENDBRANCH   5  20
TORSDOF 6
