REMARK  Name = ZINC20738725
REMARK  5 active torsions:
REMARK  status: ('A' for Active; 'I' for Inactive)
REMARK    1  A    between atoms: C_1  and  O_2
REMARK    2  A    between atoms: O_2  and  C_3
REMARK    3  A    between atoms: C_6  and  C_10
REMARK    4  A    between atoms: C_8  and  O_9
REMARK    5  A    between atoms: C_15  and  C_20
REMARK                            x       y       z     vdW  Elec       q    Type
REMARK                         _______ _______ _______ _____ _____    ______ ____
ROOT
ATOM      1  C   UNL     1       3.818   2.705   2.483  0.00  0.00    +0.137 C 
ATOM      2  C   UNL     1       3.746   4.199   2.717  0.00  0.00    +0.037 C 
ATOM      3  C   UNL     1       4.706   5.133   2.650  0.00  0.00    +0.019 C 
ATOM      4  C   UNL     1       4.395   6.600   2.901  0.00  0.00    +0.060 C 
ATOM      5  C   UNL     1       2.975   6.918   2.438  0.00  0.00    +0.039 C 
ATOM      6  C   UNL     1       2.025   6.030   3.251  0.00  0.00    +0.088 C 
ATOM      7  C   UNL     1       2.422   4.601   3.055  0.00  0.00    +0.163 C 
ATOM      8  O   UNL     1       1.574   3.741   3.190  0.00  0.00    -0.292 OA
ATOM      9  N   UNL     1       6.022   4.888   2.387  0.00  0.00    -0.297 N 
ATOM     10  C   UNL     1       6.441   4.008   1.399  0.00  0.00    +0.208 A 
ATOM     11  C   UNL     1       6.047   2.608   1.460  0.00  0.00    +0.205 A 
ATOM     12  N   UNL     1       6.609   1.974   0.480  0.00  0.00    -0.032 NA
ATOM     13  O   UNL     1       7.347   2.927  -0.273  0.00  0.00    -0.239 OA
ATOM     14  N   UNL     1       7.181   4.191   0.355  0.00  0.00    -0.032 NA
ATOM     15  N   UNL     1       5.155   2.143   2.426  0.00  0.00    -0.313 N 
ATOM     16  H   UNL     1       6.804   5.398   2.970  0.00  0.00    +0.153 HD
ATOM     17  H   UNL     1       5.454   1.362   3.140  0.00  0.00    +0.149 HD
ENDROOT
BRANCH   1  21
ATOM     18  C   UNL     1       1.845   1.833  -1.210  0.00  0.00    +0.161 A 
ATOM     19  C   UNL     1       3.000   2.597  -1.202  0.00  0.00    +0.050 A 
ATOM     20  C   UNL     1       3.636   2.878  -0.007  0.00  0.00    +0.009 A 
ATOM     21  C   UNL     1       3.121   2.396   1.183  0.00  0.00    -0.019 A 
ATOM     22  C   UNL     1       1.965   1.638   1.183  0.00  0.00    +0.055 A 
ATOM     23  C   UNL     1       1.326   1.349  -0.013  0.00  0.00    +0.159 A 
BRANCH  18  25
ATOM     24  C   UNL     1       1.808   2.085  -3.575  0.00  0.00    +0.277 C 
ATOM     25  O   UNL     1       1.219   1.555  -2.385  0.00  0.00    -0.491 OA
ENDBRANCH  18  25
BRANCH  23  26
ATOM     26  O   UNL     1       0.193   0.598  -0.015  0.00  0.00    -0.503 OA
ATOM     27  H   UNL     1      -0.216   0.216   0.932  0.00  0.00    +0.292 HD
ENDBRANCH  23  26
ENDBRANCH   1  21
BRANCH   5  28
ATOM     28  C   UNL     1       2.663   8.371   2.692  0.00  0.00    -0.006 A 
ATOM     29  C   UNL     1       2.282   9.329   1.812  0.00  0.00    +0.011 A 
ATOM     30  C   UNL     1       2.047  10.609   2.276  0.00  0.00    +0.008 A 
ATOM     31  C   UNL     1       2.204  10.869   3.598  0.00  0.00    +0.045 A 
ATOM     32  S   UNL     1       2.692   9.274   4.232  0.00  0.00    -0.101 S 
ENDBRANCH   5  28
TORSDOF 4
