REMARK  Name = ZINC11838331
REMARK  7 active torsions:
REMARK  status: ('A' for Active; 'I' for Inactive)
REMARK    1  A    between atoms: C_3  and  C_12
REMARK    2  A    between atoms: C_5  and  N_7
REMARK    3  A    between atoms: C_12  and  N_13
REMARK    4  A    between atoms: C_14  and  C_16
REMARK    5  A    between atoms: C_16  and  C_17
REMARK    6  A    between atoms: C_24  and  C_25
REMARK    7  A    between atoms: C_24  and  N_55
REMARK                            x       y       z     vdW  Elec       q    Type
REMARK                         _______ _______ _______ _____ _____    ______ ____
ROOT
ATOM      1  C   UNL     1       5.133  -1.659  -1.665  0.00  0.00    +0.028 C 
ATOM      2  C   UNL     1       3.653  -1.408  -1.612  0.00  0.00    +0.200 C 
ATOM      3  O   UNL     1       2.898  -2.346  -1.758  0.00  0.00    -0.278 OA
ATOM      4  N   UNL     1       3.132  -0.193  -1.410  0.00  0.00    -0.318 N 
ATOM      5  C   UNL     1       3.952   0.995  -1.188  0.00  0.00    +0.085 C 
ATOM      6  C   UNL     1       5.384   0.740  -1.660  0.00  0.00    -0.058 C 
ATOM      7  H   UNL     1       2.167  -0.096  -1.411  0.00  0.00    +0.149 HD
ATOM      8  N   UNL     1       5.847  -0.524  -1.052  0.00  0.00    +0.391 N 
ATOM      9  H   UNL     1       5.646  -0.505  -0.045  0.00  0.00    -0.080 HD
ENDROOT
BRANCH   1  10
ATOM     10  C   UNL     1       5.458  -2.933  -0.883  0.00  0.00    +0.089 C 
BRANCH  10  12
ATOM     11  N   UNL     1       5.193  -3.768   1.431  0.00  0.00    -0.311 N 
ATOM     12  C   UNL     1       5.097  -2.738   0.567  0.00  0.00    +0.212 C 
ATOM     13  O   UNL     1       4.720  -1.653   0.958  0.00  0.00    -0.276 OA
ATOM     14  H   UNL     1       5.495  -4.636   1.118  0.00  0.00    +0.149 HD
BRANCH  11  15
ATOM     15  C   UNL     1       4.842  -3.579   2.840  0.00  0.00    +0.139 C 
BRANCH  15  18
ATOM     16  C   UNL     1       4.165  -6.966   4.368  0.00  0.00    +0.002 A 
ATOM     17  C   UNL     1       3.990  -5.773   3.690  0.00  0.00    +0.005 A 
ATOM     18  C   UNL     1       5.035  -4.875   3.585  0.00  0.00    -0.028 A 
ATOM     19  C   UNL     1       6.255  -5.161   4.166  0.00  0.00    +0.033 A 
ATOM     20  C   UNL     1       6.432  -6.355   4.852  0.00  0.00    +0.066 A 
ATOM     21  C   UNL     1       5.382  -7.258   4.951  0.00  0.00    +0.028 A 
BRANCH  20  22
ATOM     22  N   UNL     1       7.669  -6.648   5.443  0.00  0.00    -0.240 N 
ATOM     23  C   UNL     1       7.972  -7.766   6.140  0.00  0.00    +0.114 A 
ATOM     24  C   UNL     1       9.262  -7.666   6.538  0.00  0.00    +0.041 A 
ATOM     25  C   UNL     1       9.761  -6.443   6.077  0.00  0.00    +0.135 A 
ATOM     26  N   UNL     1       8.808  -5.832   5.421  0.00  0.00    -0.175 NA
ENDBRANCH  20  22
ENDBRANCH  15  18
ENDBRANCH  11  15
ENDBRANCH  10  12
ENDBRANCH   1  10
BRANCH   8  27
ATOM     27  C   UNL     1       7.307  -0.678  -1.248  0.00  0.00    -0.039 C 
BRANCH  27  28
ATOM     28  C   UNL     1       8.008   0.546  -0.716  0.00  0.00    -0.026 A 
ATOM     29  C   UNL     1       8.439   1.529  -1.587  0.00  0.00    +0.005 A 
ATOM     30  C   UNL     1       9.082   2.652  -1.101  0.00  0.00    +0.003 A 
ATOM     31  C   UNL     1       9.296   2.793   0.258  0.00  0.00    +0.041 A 
ATOM     32  C   UNL     1       8.867   1.811   1.132  0.00  0.00    +0.159 A 
ATOM     33  C   UNL     1       8.221   0.684   0.644  0.00  0.00    +0.160 A 
ATOM     34  F   UNL     1       7.801  -0.277   1.496  0.00  0.00    -0.202 F 
ATOM     35  F   UNL     1       9.075   1.948   2.460  0.00  0.00    -0.202 F 
ENDBRANCH  27  28
ENDBRANCH   8  27
TORSDOF 7
