REMARK  Name = ZINC23423513
REMARK  9 active torsions:
REMARK  status: ('A' for Active; 'I' for Inactive)
REMARK    1  A    between atoms: C_1  and  C_2
REMARK    2  A    between atoms: C_3  and  C_7
REMARK    3  A    between atoms: C_10  and  S_13
REMARK    4  A    between atoms: N_11  and  N_12
REMARK    5  A    between atoms: S_13  and  C_14
REMARK    6  A    between atoms: C_14  and  C_15
REMARK    7  A    between atoms: N_17  and  C_18
REMARK    8  A    between atoms: C_18  and  C_20
REMARK    9  A    between atoms: C_18  and  C_21
REMARK                            x       y       z     vdW  Elec       q    Type
REMARK                         _______ _______ _______ _____ _____    ______ ____
ROOT
ATOM      1  S   UNL     1      -0.888   1.685  -1.458  0.00  0.00    -0.075 S 
ENDROOT
BRANCH   1   5
ATOM      2  C   UNL     1       0.962   0.411  -4.656  0.00  0.00    +0.185 A 
ATOM      3  N   UNL     1       1.688  -0.087  -3.683  0.00  0.00    -0.127 NA
ATOM      4  N   UNL     1       1.194   0.253  -2.547  0.00  0.00    -0.121 NA
ATOM      5  C   UNL     1       0.122   0.990  -2.724  0.00  0.00    +0.209 A 
ATOM      6  N   UNL     1      -0.068   1.112  -4.072  0.00  0.00    -0.224 N 
BRANCH   2   9
ATOM      7  C   UNL     1       3.310  -1.188  -5.981  0.00  0.00    +0.087 C 
ATOM      8  C   UNL     1       2.213  -0.443  -6.698  0.00  0.00    +0.112 A 
ATOM      9  C   UNL     1       1.201   0.246  -6.106  0.00  0.00    +0.061 A 
ATOM     10  C   UNL     1       0.398   0.797  -7.206  0.00  0.00    +0.053 A 
ATOM     11  C   UNL     1       0.992   0.388  -8.339  0.00  0.00    +0.196 A 
ATOM     12  O   UNL     1       2.068  -0.350  -8.028  0.00  0.00    -0.467 OA
ENDBRANCH   2   9
BRANCH   6  13
ATOM     13  N   UNL     1      -1.069   1.791  -4.707  0.00  0.00    -0.295 N 
ATOM     14  H   UNL     1      -1.837   2.314  -4.119  0.00  0.00    +0.163 HD
ATOM     15  H   UNL     1      -1.107   1.815  -5.806  0.00  0.00    +0.163 HD
ENDBRANCH   6  13
ENDBRANCH   1   5
BRANCH   1  16
ATOM     16  C   UNL     1      -0.013   1.086   0.008  0.00  0.00    +0.173 C 
BRANCH  16  17
ATOM     17  C   UNL     1      -0.718   1.572   1.248  0.00  0.00    +0.224 C 
ATOM     18  O   UNL     1      -1.714   2.256   1.150  0.00  0.00    -0.275 OA
ATOM     19  N   UNL     1      -0.242   1.246   2.466  0.00  0.00    -0.308 N 
ATOM     20  H   UNL     1       0.662   0.625   2.555  0.00  0.00    +0.149 HD
BRANCH  19  21
ATOM     21  C   UNL     1      -0.927   1.718   3.671  0.00  0.00    +0.100 C 
ATOM     22  C   UNL     1      -2.065   0.757   4.021  0.00  0.00    +0.033 C 
BRANCH  21  23
ATOM     23  C   UNL     1       0.051   1.776   4.816  0.00  0.00    -0.027 A 
ATOM     24  C   UNL     1       0.988   0.772   4.975  0.00  0.00    +0.006 A 
ATOM     25  C   UNL     1       1.889   0.827   6.022  0.00  0.00    +0.015 A 
ATOM     26  C   UNL     1       1.846   1.881   6.916  0.00  0.00    +0.018 A 
ATOM     27  C   UNL     1       0.905   2.883   6.759  0.00  0.00    +0.015 A 
ATOM     28  C   UNL     1       0.008   2.830   5.709  0.00  0.00    +0.006 A 
ATOM     29 BR   UNL     1       3.073   1.953   8.353  0.00  0.00    -0.050 Br
ENDBRANCH  21  23
ENDBRANCH  19  21
ENDBRANCH  16  17
ENDBRANCH   1  16
TORSDOF 7
