REMARK  Name = ZINC03328000
REMARK  10 active torsions:
REMARK  status: ('A' for Active; 'I' for Inactive)
REMARK    1  A    between atoms: C_1  and  C_2
REMARK    2  A    between atoms: C_2  and  N_60
REMARK    3  A    between atoms: C_8  and  N_15
REMARK    4  A    between atoms: C_9  and  C_10
REMARK    5  A    between atoms: C_10  and  O_12
REMARK    6  A    between atoms: O_12  and  C_13
REMARK    7  A    between atoms: C_13  and  C_14
REMARK    8  A    between atoms: C_16  and  C_18
REMARK    9  A    between atoms: C_18  and  N_62
REMARK   10  A    between atoms: C_19  and  N_62
REMARK                            x       y       z     vdW  Elec       q    Type
REMARK                         _______ _______ _______ _____ _____    ______ ____
ROOT
ATOM      1  N   UNL     1      -1.419   8.615  -0.677  0.00  0.00    -0.281 N 
ATOM      2  C   UNL     1      -1.874   7.418  -1.097  0.00  0.00    +0.201 C 
ATOM      3  O   UNL     1      -2.291   7.291  -2.229  0.00  0.00    -0.278 OA
ATOM      4  H   UNL     1      -1.086   8.717   0.228  0.00  0.00    +0.155 HD
ENDROOT
BRANCH   1  10
ATOM      5  C   UNL     1      -0.570  13.968  -3.711  0.00  0.00    -0.074 C 
ATOM      6  C   UNL     1      -0.706  13.423  -2.287  0.00  0.00    +0.018 C 
ATOM      7  C   UNL     1      -1.121  11.959  -2.376  0.00  0.00    -0.025 A 
ATOM      8  C   UNL     1      -1.639  11.470  -3.526  0.00  0.00    -0.021 A 
ATOM      9  S   UNL     1      -1.969   9.766  -3.183  0.00  0.00    -0.079 S 
ATOM     10  C   UNL     1      -1.427   9.701  -1.538  0.00  0.00    +0.086 A 
ATOM     11  C   UNL     1      -1.009  11.003  -1.290  0.00  0.00    +0.091 A 
ATOM     12  C   UNL     1      -1.872  12.234  -4.791  0.00  0.00    -0.035 C 
ATOM     13  N   UNL     1      -1.806  13.680  -4.467  0.00  0.00    +0.383 N 
ATOM     14  H   UNL     1      -2.617  13.930  -3.889  0.00  0.00    -0.081 HD
BRANCH  13  16
ATOM     15  C   UNL     1      -3.217  14.336  -6.356  0.00  0.00    -0.017 C 
ATOM     16  C   UNL     1      -1.837  14.479  -5.710  0.00  0.00    -0.082 C 
ENDBRANCH  13  16
BRANCH  11  17
ATOM     17  C   UNL     1      -0.473  11.394   0.015  0.00  0.00    +0.342 C 
ATOM     18  O   UNL     1       0.721  11.307   0.233  0.00  0.00    -0.245 OA
BRANCH  17  19
ATOM     19  O   UNL     1      -1.302  11.851   0.976  0.00  0.00    -0.461 OA
BRANCH  19  20
ATOM     20  C   UNL     1      -0.700  12.220   2.245  0.00  0.00    +0.229 C 
ATOM     21  C   UNL     1      -1.789  12.711   3.201  0.00  0.00    +0.048 C 
ENDBRANCH  19  20
ENDBRANCH  17  19
ENDBRANCH  11  17
ENDBRANCH   1  10
BRANCH   2  22
ATOM     22  C   UNL     1      -1.865   6.238  -0.160  0.00  0.00    +0.016 C 
BRANCH  22  23
ATOM     23  N   UNL     1      -2.412   5.060  -0.861  0.00  0.00    +0.389 N 
ATOM     24  H   UNL     1      -1.887   4.911  -1.731  0.00  0.00    -0.084 HD
ATOM     25  H   UNL     1      -3.401   5.226  -1.082  0.00  0.00    -0.084 HD
BRANCH  23  26
ATOM     26  C   UNL     1      -2.297   3.860  -0.012  0.00  0.00    -0.040 C 
ATOM     27  C   UNL     1      -3.503   3.788   0.922  0.00  0.00    -0.011 C 
ATOM     28  C   UNL     1      -3.485   2.429   1.633  0.00  0.00    +0.003 C 
ATOM     29  C   UNL     1      -3.807   1.344   0.606  0.00  0.00    +0.035 C 
ATOM     30  C   UNL     1      -2.928   1.484  -0.609  0.00  0.00    -0.046 A 
ATOM     31  C   UNL     1      -2.237   2.640  -0.894  0.00  0.00    -0.058 A 
ATOM     32  C   UNL     1      -1.449   2.707  -2.036  0.00  0.00    +0.002 A 
ATOM     33  C   UNL     1      -1.346   1.621  -2.881  0.00  0.00    +0.000 A 
ATOM     34  C   UNL     1      -2.031   0.456  -2.588  0.00  0.00    +0.000 A 
ATOM     35  C   UNL     1      -2.816   0.389  -1.455  0.00  0.00    +0.004 A 
ENDBRANCH  23  26
ENDBRANCH  22  23
ENDBRANCH   2  22
TORSDOF 8
