REMARK  Name = ZINC35198322
REMARK  12 active torsions:
REMARK  status: ('A' for Active; 'I' for Inactive)
REMARK    1  A    between atoms: C_1  and  C_2
REMARK    2  A    between atoms: C_2  and  C_4
REMARK    3  A    between atoms: C_2  and  N_26
REMARK    4  A    between atoms: C_7  and  S_18
REMARK    5  A    between atoms: N_8  and  C_9
REMARK    6  A    between atoms: C_12  and  N_15
REMARK    7  A    between atoms: S_18  and  C_19
REMARK    8  A    between atoms: C_19  and  C_20
REMARK    9  A    between atoms: C_27  and  C_29
REMARK   10  A    between atoms: C_29  and  C_30
REMARK   11  A    between atoms: C_29  and  C_31
REMARK   12  A    between atoms: C_29  and  C_32
REMARK                            x       y       z     vdW  Elec       q    Type
REMARK                         _______ _______ _______ _____ _____    ______ ____
ROOT
ATOM      1  C   UNL     1       0.731  -0.503   1.223  0.00  0.00    +0.159 A 
ATOM      2  N   UNL     1       2.020  -0.483   1.415  0.00  0.00    -0.131 NA
ATOM      3  N   UNL     1       2.304  -0.986   2.563  0.00  0.00    -0.122 NA
ATOM      4  C   UNL     1       1.202  -1.359   3.173  0.00  0.00    +0.196 A 
ATOM      5  N   UNL     1       0.161  -1.057   2.339  0.00  0.00    -0.273 N 
ENDROOT
BRANCH   5   6
ATOM      6  C   UNL     1      -1.204  -1.273   2.575  0.00  0.00    +0.050 A 
ATOM      7  C   UNL     1      -2.070  -0.193   2.683  0.00  0.00    +0.028 A 
ATOM      8  C   UNL     1      -3.414  -0.408   2.916  0.00  0.00    +0.035 A 
ATOM      9  C   UNL     1      -3.898  -1.698   3.042  0.00  0.00    +0.126 A 
ATOM     10  C   UNL     1      -3.038  -2.775   2.934  0.00  0.00    +0.035 A 
ATOM     11  C   UNL     1      -1.693  -2.566   2.696  0.00  0.00    +0.028 A 
BRANCH   9  12
ATOM     12  N   UNL     1      -5.339  -1.925   3.292  0.00  0.00    +0.056 N 
ATOM     13  O   UNL     1      -6.092  -0.984   3.386  0.00  0.00    -0.126 OA
ATOM     14  O   UNL     1      -5.763  -3.052   3.401  0.00  0.00    -0.126 OA
ENDBRANCH   9  12
ENDBRANCH   5   6
BRANCH   1  16
ATOM     15  C   UNL     1      -0.019   1.526   0.010  0.00  0.00    +0.036 C 
ATOM     16  C   UNL     1       0.002  -0.004   0.002  0.00  0.00    +0.138 C 
BRANCH  16  17
ATOM     17  N   UNL     1       0.688  -0.476  -1.203  0.00  0.00    -0.305 N 
ATOM     18  C   UNL     1       0.006  -0.608  -2.358  0.00  0.00    +0.219 C 
ATOM     19  O   UNL     1      -1.175  -0.336  -2.400  0.00  0.00    -0.275 OA
ATOM     20  H   UNL     1       1.632  -0.695  -1.170  0.00  0.00    +0.149 HD
BRANCH  18  21
ATOM     21  C   UNL     1       0.712  -1.094  -3.598  0.00  0.00    +0.039 C 
ATOM     22  C   UNL     1      -0.282  -1.153  -4.761  0.00  0.00    +0.020 C 
ATOM     23  C   UNL     1       1.849  -0.133  -3.948  0.00  0.00    +0.020 C 
ATOM     24  C   UNL     1       1.284  -2.490  -3.346  0.00  0.00    +0.020 C 
ENDBRANCH  18  21
ENDBRANCH  16  17
ENDBRANCH   1  16
BRANCH   4  25
ATOM     25  S   UNL     1       1.087  -2.101   4.767  0.00  0.00    -0.081 S 
BRANCH  25  26
ATOM     26  C   UNL     1       2.809  -2.211   5.326  0.00  0.00    +0.112 C 
BRANCH  26  27
ATOM     27  C   UNL     1       2.854  -2.837   6.696  0.00  0.00    -0.037 A 
ATOM     28  C   UNL     1       2.777  -2.039   7.823  0.00  0.00    +0.004 A 
ATOM     29  C   UNL     1       2.818  -2.613   9.080  0.00  0.00    +0.000 A 
ATOM     30  C   UNL     1       2.935  -3.984   9.210  0.00  0.00    +0.000 A 
ATOM     31  C   UNL     1       3.011  -4.782   8.084  0.00  0.00    +0.000 A 
ATOM     32  C   UNL     1       2.966  -4.208   6.827  0.00  0.00    +0.004 A 
ENDBRANCH  26  27
ENDBRANCH  25  26
ENDBRANCH   4  25
TORSDOF 8
