REMARK  Name = ZINC08659277
REMARK  7 active torsions:
REMARK  status: ('A' for Active; 'I' for Inactive)
REMARK    1  A    between atoms: C_1  and  C_2
REMARK    2  A    between atoms: C_5  and  N_9
REMARK    3  A    between atoms: C_10  and  C_12
REMARK    4  A    between atoms: C_12  and  S_13
REMARK    5  A    between atoms: S_13  and  C_14
REMARK    6  A    between atoms: C_17  and  C_20
REMARK    7  A    between atoms: N_18  and  N_19
REMARK                            x       y       z     vdW  Elec       q    Type
REMARK                         _______ _______ _______ _____ _____    ______ ____
ROOT
ATOM      1  C   UNL     1      -0.356  -8.691  -2.737  0.00  0.00    +0.209 A 
ATOM      2  N   UNL     1      -0.348  -9.370  -1.612  0.00  0.00    -0.121 NA
ATOM      3  N   UNL     1      -0.438 -10.629  -1.855  0.00  0.00    -0.127 NA
ATOM      4  C   UNL     1      -0.507 -10.831  -3.150  0.00  0.00    +0.182 A 
ATOM      5  N   UNL     1      -0.462  -9.596  -3.755  0.00  0.00    -0.224 N 
ENDROOT
BRANCH   4   6
ATOM      6  C   UNL     1      -0.619 -12.139  -3.829  0.00  0.00    +0.021 A 
ATOM      7  C   UNL     1      -0.366 -12.241  -5.199  0.00  0.00    +0.013 A 
ATOM      8  C   UNL     1      -0.472 -13.464  -5.827  0.00  0.00    +0.021 A 
ATOM      9  C   UNL     1      -0.827 -14.590  -5.103  0.00  0.00    +0.041 A 
ATOM     10  C   UNL     1      -1.080 -14.495  -3.745  0.00  0.00    +0.021 A 
ATOM     11  C   UNL     1      -0.971 -13.278  -3.104  0.00  0.00    +0.013 A 
ATOM     12 CL   UNL     1      -0.958 -16.126  -5.902  0.00  0.00    -0.084 Cl
ENDBRANCH   4   6
BRANCH   5  13
ATOM     13  N   UNL     1      -0.512  -9.331  -5.094  0.00  0.00    -0.295 N 
ATOM     14  H   UNL     1       0.414  -9.320  -5.494  0.00  0.00    +0.163 HD
ATOM     15  H   UNL     1      -1.105  -9.993  -5.572  0.00  0.00    +0.163 HD
ENDBRANCH   5  13
BRANCH   1  16
ATOM     16  S   UNL     1      -0.255  -6.940  -2.903  0.00  0.00    -0.075 S 
BRANCH  16  17
ATOM     17  C   UNL     1      -0.134  -6.344  -1.194  0.00  0.00    +0.173 C 
BRANCH  17  19
ATOM     18  N   UNL     1       0.059  -4.172  -0.025  0.00  0.00    -0.283 N 
ATOM     19  C   UNL     1      -0.040  -4.840  -1.192  0.00  0.00    +0.228 C 
ATOM     20  O   UNL     1      -0.054  -4.230  -2.240  0.00  0.00    -0.275 OA
ATOM     21  H   UNL     1       0.150  -4.662   0.807  0.00  0.00    +0.155 HD
BRANCH  18  26
ATOM     22  C   UNL     1      -0.065   1.502   0.016  0.00  0.00    +0.044 C 
ATOM     23  C   UNL     1      -0.031  -0.005   0.006  0.00  0.00    -0.048 A 
ATOM     24  C   UNL     1      -0.622  -0.701  -1.033  0.00  0.00    +0.005 A 
ATOM     25  C   UNL     1      -0.593  -2.082  -1.046  0.00  0.00    +0.026 A 
ATOM     26  C   UNL     1       0.029  -2.772  -0.015  0.00  0.00    +0.069 A 
ATOM     27  C   UNL     1       0.622  -2.070   1.029  0.00  0.00    +0.145 A 
ATOM     28  C   UNL     1       0.594  -0.688   1.033  0.00  0.00    +0.043 A 
ATOM     29  F   UNL     1       1.228  -2.738   2.035  0.00  0.00    -0.204 F 
ENDBRANCH  18  26
ENDBRANCH  17  19
ENDBRANCH  16  17
ENDBRANCH   1  16
TORSDOF 6
