REMARK  Name = ZINC43258825
REMARK  4 active torsions:
REMARK  status: ('A' for Active; 'I' for Inactive)
REMARK    1  A    between atoms: C_1  and  C_2
REMARK    2  A    between atoms: C_5  and  C_8
REMARK    3  A    between atoms: C_8  and  N_9
REMARK    4  A    between atoms: C_13  and  C_20
REMARK                            x       y       z     vdW  Elec       q    Type
REMARK                         _______ _______ _______ _____ _____    ______ ____
ROOT
ATOM      1  N   UNL     1       1.447  -4.746  -0.032  0.00  0.00    -0.288 N 
ATOM      2  C   UNL     1       2.214  -4.996  -1.167  0.00  0.00    +0.070 A 
ATOM      3  C   UNL     1       1.956  -4.898  -2.527  0.00  0.00    +0.028 A 
ATOM      4  C   UNL     1       2.937  -5.223  -3.439  0.00  0.00    +0.010 A 
ATOM      5  C   UNL     1       4.190  -5.651  -2.999  0.00  0.00    -0.016 A 
ATOM      6  C   UNL     1       4.453  -5.751  -1.636  0.00  0.00    +0.036 A 
ATOM      7  C   UNL     1       3.467  -5.424  -0.720  0.00  0.00    +0.068 A 
ATOM      8  N   UNL     1       3.421  -5.420   0.672  0.00  0.00    -0.306 N 
ATOM      9  H   UNL     1       4.147  -5.670   1.265  0.00  0.00    +0.170 HD
ATOM     10  C   UNL     1       2.199  -5.004   1.054  0.00  0.00    +0.328 A 
ATOM     11  O   UNL     1       1.829  -4.882   2.208  0.00  0.00    -0.247 OA
ENDROOT
BRANCH   5  12
ATOM     12  C   UNL     1       5.243  -6.000  -3.985  0.00  0.00    -0.018 A 
ATOM     13  C   UNL     1       6.493  -6.434  -3.548  0.00  0.00    +0.008 A 
ATOM     14  C   UNL     1       7.469  -6.758  -4.469  0.00  0.00    +0.001 A 
ATOM     15  C   UNL     1       7.207  -6.653  -5.824  0.00  0.00    +0.000 A 
ATOM     16  C   UNL     1       5.968  -6.223  -6.263  0.00  0.00    +0.001 A 
ATOM     17  C   UNL     1       4.983  -5.902  -5.350  0.00  0.00    +0.008 A 
ENDBRANCH   5  12
BRANCH   1  18
ATOM     18  C   UNL     1       0.059  -4.275  -0.021  0.00  0.00    +0.162 C 
BRANCH  18  23
ATOM     19  C   UNL     1      -0.018   1.503   0.010  0.00  0.00    +0.044 C 
ATOM     20  C   UNL     1       0.002  -0.004   0.002  0.00  0.00    -0.050 A 
ATOM     21  C   UNL     1       0.006  -0.689  -1.199  0.00  0.00    +0.004 A 
ATOM     22  C   UNL     1       0.025  -2.071  -1.206  0.00  0.00    +0.005 A 
ATOM     23  C   UNL     1       0.040  -2.768  -0.013  0.00  0.00    -0.028 A 
ATOM     24  C   UNL     1       0.037  -2.084   1.188  0.00  0.00    +0.005 A 
ATOM     25  C   UNL     1       0.023  -0.702   1.195  0.00  0.00    +0.004 A 
ENDBRANCH  18  23
ENDBRANCH   1  18
TORSDOF 3
