REMARK  Name = ZINC05648480
REMARK  6 active torsions:
REMARK  status: ('A' for Active; 'I' for Inactive)
REMARK    1  A    between atoms: C_7  and  C_11
REMARK    2  A    between atoms: N_12  and  N_13
REMARK    3  A    between atoms: C_14  and  C_16
REMARK    4  A    between atoms: C_21  and  C_22
REMARK    5  A    between atoms: C_21  and  N_53
REMARK    6  A    between atoms: C_25  and  N_28
REMARK                            x       y       z     vdW  Elec       q    Type
REMARK                         _______ _______ _______ _____ _____    ______ ____
ROOT
ATOM      1  C   UNL     1      -7.274   2.163   0.042  0.00  0.00    +0.073 C 
ATOM      2  C   UNL     1      -7.531   1.328  -1.215  0.00  0.00    -0.006 C 
ATOM      3  C   UNL     1      -8.996   0.886  -1.237  0.00  0.00    -0.078 C 
ATOM      4  C   UNL     1      -9.670   2.862  -0.006  0.00  0.00    -0.078 C 
ATOM      5  C   UNL     1      -8.225   3.363   0.052  0.00  0.00    -0.006 C 
ATOM      6  N   UNL     1      -9.859   2.086  -1.251  0.00  0.00    +0.382 N 
ATOM      7  H   UNL     1      -9.600   2.674  -2.052  0.00  0.00    -0.081 HD
ENDROOT
BRANCH   1   9
ATOM      8  N   UNL     1      -4.832   1.766   0.031  0.00  0.00    -0.207 N 
ATOM      9  C   UNL     1      -5.848   2.652   0.040  0.00  0.00    +0.235 C 
ATOM     10  O   UNL     1      -5.615   3.843   0.045  0.00  0.00    -0.274 OA
ATOM     11  H   UNL     1      -5.019   0.814   0.026  0.00  0.00    +0.177 HD
BRANCH   8  13
ATOM     12  C   UNL     1      -2.528   1.367   0.020  0.00  0.00    +0.140 C 
ATOM     13  N   UNL     1      -3.507   2.220   0.028  0.00  0.00    -0.188 NA
BRANCH  12  20
ATOM     14  C   UNL     1      -0.614   5.641   0.038  0.00  0.00    +0.001 A 
ATOM     15  C   UNL     1       0.773   5.599   0.025  0.00  0.00    +0.002 A 
ATOM     16  C   UNL     1       1.439   4.394   0.012  0.00  0.00    +0.026 A 
ATOM     17  C   UNL     1       0.719   3.203   0.012  0.00  0.00    +0.047 A 
ATOM     18  C   UNL     1      -0.685   3.247   0.026  0.00  0.00    +0.008 A 
ATOM     19  C   UNL     1      -1.345   4.474   0.039  0.00  0.00    +0.010 A 
ATOM     20  C   UNL     1      -1.135   1.844   0.017  0.00  0.00    +0.020 A 
ATOM     21  C   UNL     1      -0.013   1.076   0.008  0.00  0.00    +0.093 A 
ATOM     22  N   UNL     1       1.091   1.875   0.002  0.00  0.00    -0.360 N 
ATOM     23  H   UNL     1       2.007   1.556  -0.009  0.00  0.00    +0.165 HD
ENDBRANCH  12  20
ENDBRANCH   8  13
ENDBRANCH   1   9
BRANCH   6  24
ATOM     24  C   UNL     1     -11.275   1.688  -1.387  0.00  0.00    -0.043 C 
BRANCH  24  25
ATOM     25  C   UNL     1     -11.483   1.095  -2.756  0.00  0.00    -0.064 A 
ATOM     26  C   UNL     1     -11.829   1.911  -3.817  0.00  0.00    +0.004 A 
ATOM     27  C   UNL     1     -12.015   1.367  -5.075  0.00  0.00    +0.033 A 
ATOM     28  C   UNL     1     -11.865   0.007  -5.269  0.00  0.00    +0.126 A 
ATOM     29  C   UNL     1     -11.523  -0.809  -4.207  0.00  0.00    +0.033 A 
ATOM     30  C   UNL     1     -11.333  -0.266  -2.951  0.00  0.00    +0.004 A 
BRANCH  28  31
ATOM     31  N   UNL     1     -12.069  -0.575  -6.615  0.00  0.00    +0.056 N 
ATOM     32  O   UNL     1     -11.935  -1.774  -6.786  0.00  0.00    -0.126 OA
ATOM     33  O   UNL     1     -12.369   0.144  -7.551  0.00  0.00    -0.126 OA
ENDBRANCH  28  31
ENDBRANCH  24  25
ENDBRANCH   6  24
TORSDOF 6
