REMARK  Name = ZINC64891337
REMARK  6 active torsions:
REMARK  status: ('A' for Active; 'I' for Inactive)
REMARK    1  A    between atoms: C_1  and  N_2
REMARK    2  A    between atoms: N_2  and  C_3
REMARK    3  A    between atoms: N_2  and  C_4
REMARK    4  A    between atoms: C_8  and  C_10
REMARK    5  A    between atoms: C_12  and  C_15
REMARK    6  A    between atoms: N_25  and  C_26
REMARK                            x       y       z     vdW  Elec       q    Type
REMARK                         _______ _______ _______ _____ _____    ______ ____
ROOT
ATOM      1  C   UNL     1      -8.500   0.093   0.072  0.00  0.00    +0.025 A 
ATOM      2  C   UNL     1      -8.986  -1.215   0.087  0.00  0.00    +0.014 A 
ATOM      3  C   UNL     1     -10.345  -1.449   0.101  0.00  0.00    +0.029 A 
ATOM      4  C   UNL     1     -11.233  -0.382   0.100  0.00  0.00    +0.070 A 
ATOM      5  C   UNL     1     -10.751   0.930   0.085  0.00  0.00    +0.068 A 
ATOM      6  C   UNL     1      -9.387   1.166   0.076  0.00  0.00    +0.039 A 
ATOM      7  N   UNL     1     -11.865   1.768   0.088  0.00  0.00    -0.306 N 
ATOM      8  H   UNL     1     -11.846   2.737   0.080  0.00  0.00    +0.170 HD
ATOM      9  C   UNL     1     -12.971   1.000   0.104  0.00  0.00    +0.328 A 
ATOM     10  O   UNL     1     -14.114   1.419   0.111  0.00  0.00    -0.247 OA
ATOM     11  N   UNL     1     -12.622  -0.299   0.111  0.00  0.00    -0.289 N 
ENDROOT
BRANCH   1  14
ATOM     12  C   UNL     1      -4.898  -0.047   0.037  0.00  0.00    +0.259 A 
ATOM     13  N   UNL     1      -6.085  -0.606   0.051  0.00  0.00    -0.187 NA
ATOM     14  C   UNL     1      -7.037   0.340   0.057  0.00  0.00    +0.202 A 
ATOM     15  N   UNL     1      -6.463   1.519   0.047  0.00  0.00    -0.056 NA
ATOM     16  O   UNL     1      -5.062   1.288   0.040  0.00  0.00    -0.332 OA
BRANCH  12  21
ATOM     17  C   UNL     1      -1.198  -0.719   0.010  0.00  0.00    +0.030 A 
ATOM     18  C   UNL     1      -1.179  -2.109   0.008  0.00  0.00    +0.023 A 
ATOM     19  C   UNL     1      -2.364  -2.821   0.016  0.00  0.00    +0.003 A 
ATOM     20  C   UNL     1      -3.574  -2.156   0.026  0.00  0.00    +0.013 A 
ATOM     21  C   UNL     1      -3.603  -0.761   0.027  0.00  0.00    +0.041 A 
ATOM     22  C   UNL     1      -2.408  -0.042   0.025  0.00  0.00    +0.036 A 
BRANCH  17  24
ATOM     23  C   UNL     1      -0.018   1.461   0.010  0.00  0.00    +0.129 C 
ATOM     24  N   UNL     1       0.002  -0.004   0.002  0.00  0.00    -0.336 N 
ATOM     25  C   UNL     1       1.281  -0.719  -0.014  0.00  0.00    +0.129 C 
ENDBRANCH  17  24
ENDBRANCH  12  21
ENDBRANCH   1  14
BRANCH  11  26
ATOM     26  C   UNL     1     -13.547  -1.435   0.128  0.00  0.00    +0.092 C 
ATOM     27  C   UNL     1     -14.501  -1.358  -1.083  0.00  0.00    +0.025 C 
ATOM     28  C   UNL     1     -15.857  -1.864  -0.531  0.00  0.00    +0.002 C 
ATOM     29  C   UNL     1     -15.889  -1.267   0.898  0.00  0.00    +0.002 C 
ATOM     30  C   UNL     1     -14.430  -1.378   1.387  0.00  0.00    +0.025 C 
ENDBRANCH  11  26
TORSDOF 4
