REMARK  Name = ZINC39327550
REMARK  5 active torsions:
REMARK  status: ('A' for Active; 'I' for Inactive)
REMARK    1  A    between atoms: C_4  and  N_7
REMARK    2  A    between atoms: C_8  and  C_15
REMARK    3  A    between atoms: C_12  and  S_14
REMARK    4  A    between atoms: C_15  and  S_16
REMARK    5  A    between atoms: S_16  and  C_17
REMARK                            x       y       z     vdW  Elec       q    Type
REMARK                         _______ _______ _______ _____ _____    ______ ____
ROOT
ATOM      1  N   UNL     1       3.620  -0.649  -0.036  0.00  0.00    -0.287 N 
ATOM      2  C   UNL     1       3.815  -2.110  -0.052  0.00  0.00    +0.168 C 
ATOM      3  N   UNL     1       5.278  -2.340  -0.065  0.00  0.00    -0.233 NA
ATOM      4  N   UNL     1       5.838  -1.100  -0.625  0.00  0.00    -0.226 NA
ATOM      5  C   UNL     1       4.968  -0.046  -0.047  0.00  0.00    +0.214 C 
ATOM      6  H   UNL     1       5.626  -2.505   0.868  0.00  0.00    +0.143 HD
ATOM      7  H   UNL     1       5.780  -1.100  -1.632  0.00  0.00    +0.143 HD
ENDROOT
BRANCH   1  11
ATOM      8  C   UNL     1      -0.017   1.379   0.010  0.00  0.00    +0.000 A 
ATOM      9  C   UNL     1       1.169   2.089   0.002  0.00  0.00    +0.002 A 
ATOM     10  C   UNL     1       2.377   1.420  -0.013  0.00  0.00    +0.023 A 
ATOM     11  C   UNL     1       2.400   0.031  -0.021  0.00  0.00    +0.033 A 
ATOM     12  C   UNL     1       1.206  -0.680  -0.013  0.00  0.00    +0.023 A 
ATOM     13  C   UNL     1       0.002  -0.004   0.002  0.00  0.00    +0.002 A 
ENDBRANCH   1  11
BRANCH   5  14
ATOM     14  S   UNL     1       5.498   0.352   1.641  0.00  0.00    -0.139 S 
ATOM     15  H   UNL     1       6.723   0.885   1.481  0.00  0.00    +0.105 HD
ENDBRANCH   5  14
BRANCH   2  16
ATOM     16  C   UNL     1       3.196  -2.735   1.200  0.00  0.00    +0.117 C 
BRANCH  16  17
ATOM     17  S   UNL     1       3.989  -2.043   2.677  0.00  0.00    -0.085 S 
BRANCH  17  18
ATOM     18  C   UNL     1       3.177  -2.852   4.015  0.00  0.00    +0.167 A 
ATOM     19  N   UNL     1       2.224  -3.742   3.890  0.00  0.00    -0.222 NA
ATOM     20  C   UNL     1       1.825  -4.160   5.120  0.00  0.00    +0.090 A 
ATOM     21  C   UNL     1       0.866  -5.076   5.558  0.00  0.00    +0.030 A 
ATOM     22  C   UNL     1       0.690  -5.289   6.907  0.00  0.00    +0.002 A 
ATOM     23  C   UNL     1       1.457  -4.601   7.835  0.00  0.00    +0.002 A 
ATOM     24  C   UNL     1       2.409  -3.693   7.418  0.00  0.00    +0.028 A 
ATOM     25  C   UNL     1       2.600  -3.466   6.064  0.00  0.00    +0.067 A 
ATOM     26  N   UNL     1       3.451  -2.649   5.338  0.00  0.00    -0.333 N 
ATOM     27  H   UNL     1       4.117  -2.043   5.702  0.00  0.00    +0.168 HD
ENDBRANCH  17  18
ENDBRANCH  16  17
ENDBRANCH   2  16
TORSDOF 5
