REMARK  Name = ZINC39481838
REMARK  11 active torsions:
REMARK  status: ('A' for Active; 'I' for Inactive)
REMARK    1  A    between atoms: C_1  and  C_2
REMARK    2  A    between atoms: C_2  and  C_3
REMARK    3  A    between atoms: C_2  and  C_4
REMARK    4  A    between atoms: C_4  and  C_5
REMARK    5  A    between atoms: C_8  and  N_27
REMARK    6  A    between atoms: C_9  and  N_11
REMARK    7  A    between atoms: C_15  and  S_18
REMARK    8  A    between atoms: S_18  and  C_21
REMARK    9  A    between atoms: N_27  and  S_28
REMARK   10  A    between atoms: S_28  and  C_31
REMARK   11  A    between atoms: C_31  and  C_32
REMARK                            x       y       z     vdW  Elec       q    Type
REMARK                         _______ _______ _______ _____ _____    ______ ____
ROOT
ATOM      1  C   UNL     1      -0.882  -2.103   0.189  0.00  0.00    -0.045 A 
ATOM      2  C   UNL     1      -1.011  -2.578  -1.103  0.00  0.00    +0.005 A 
ATOM      3  C   UNL     1      -1.172  -3.932  -1.333  0.00  0.00    +0.026 A 
ATOM      4  C   UNL     1      -1.205  -4.817  -0.267  0.00  0.00    +0.069 A 
ATOM      5  C   UNL     1      -1.074  -4.338   1.037  0.00  0.00    +0.053 A 
ATOM      6  C   UNL     1      -0.908  -2.980   1.258  0.00  0.00    +0.028 A 
ENDROOT
BRANCH   5   7
ATOM      7  N   UNL     1      -1.106  -5.227   2.118  0.00  0.00    -0.324 N 
ATOM      8  C   UNL     1       0.130  -5.838   2.630  0.00  0.00    +0.120 C 
ATOM      9  C   UNL     1       0.189  -5.622   4.146  0.00  0.00    +0.101 C 
ATOM     10  N   UNL     1      -1.050  -6.120   4.757  0.00  0.00    -0.292 NA
ATOM     11  C   UNL     1      -2.219  -5.368   4.282  0.00  0.00    +0.220 C 
ATOM     12  C   UNL     1      -2.376  -5.570   2.776  0.00  0.00    +0.147 C 
ATOM     13  H   UNL     1      -1.164  -7.109   4.589  0.00  0.00    +0.124 HD
BRANCH  11  14
ATOM     14  S   UNL     1      -3.707  -5.961   5.134  0.00  0.00    +0.014 S 
ATOM     15  O   UNL     1      -4.815  -5.128   4.821  0.00  0.00    -0.168 OA
ATOM     16  O   UNL     1      -3.808  -7.373   5.018  0.00  0.00    -0.168 OA
BRANCH  14  17
ATOM     17  C   UNL     1      -3.396  -5.671   6.844  0.00  0.00    +0.090 A 
ATOM     18  C   UNL     1      -2.781  -6.644   7.609  0.00  0.00    +0.027 A 
ATOM     19  C   UNL     1      -2.537  -6.417   8.950  0.00  0.00    +0.002 A 
ATOM     20  C   UNL     1      -2.908  -5.216   9.527  0.00  0.00    +0.000 A 
ATOM     21  C   UNL     1      -3.523  -4.243   8.761  0.00  0.00    +0.002 A 
ATOM     22  C   UNL     1      -3.763  -4.469   7.419  0.00  0.00    +0.027 A 
ENDBRANCH  14  17
ENDBRANCH  11  14
ENDBRANCH   5   7
BRANCH   4  23
ATOM     23  N   UNL     1      -1.368  -6.189  -0.498  0.00  0.00    -0.219 N 
ATOM     24  H   UNL     1      -1.881  -6.728   0.125  0.00  0.00    +0.173 HD
BRANCH  23  25
ATOM     25  S   UNL     1      -0.687  -6.891  -1.834  0.00  0.00    +0.047 S 
ATOM     26  O   UNL     1      -0.972  -8.276  -1.701  0.00  0.00    -0.155 OA
ATOM     27  O   UNL     1      -1.196  -6.148  -2.933  0.00  0.00    -0.155 OA
BRANCH  25  28
ATOM     28  C   UNL     1       1.095  -6.600  -1.655  0.00  0.00    +0.223 C 
BRANCH  28  29
ATOM     29  C   UNL     1       1.823  -7.203  -2.829  0.00  0.00    -0.025 A 
ATOM     30  C   UNL     1       2.260  -8.513  -2.772  0.00  0.00    +0.005 A 
ATOM     31  C   UNL     1       2.927  -9.066  -3.849  0.00  0.00    +0.000 A 
ATOM     32  C   UNL     1       3.157  -8.309  -4.983  0.00  0.00    +0.000 A 
ATOM     33  C   UNL     1       2.719  -7.000  -5.040  0.00  0.00    +0.000 A 
ATOM     34  C   UNL     1       2.047  -6.448  -3.965  0.00  0.00    +0.005 A 
ENDBRANCH  28  29
ENDBRANCH  25  28
ENDBRANCH  23  25
ENDBRANCH   4  23
BRANCH   1  35
ATOM     35  C   UNL     1      -0.707  -0.626   0.433  0.00  0.00    +0.038 C 
BRANCH  35  37
ATOM     36  C   UNL     1       0.957   1.234   0.545  0.00  0.00    +0.007 C 
ATOM     37  C   UNL     1       0.784  -0.281   0.423  0.00  0.00    -0.013 C 
ATOM     38  C   UNL     1       1.474  -0.970   1.601  0.00  0.00    +0.007 C 
ENDBRANCH  35  37
ENDBRANCH   1  35
TORSDOF 9
