REMARK  Name = ZINC04459141
REMARK  5 active torsions:
REMARK  status: ('A' for Active; 'I' for Inactive)
REMARK    1  A    between atoms: C_1  and  O_2
REMARK    2  A    between atoms: O_2  and  C_3
REMARK    3  A    between atoms: C_6  and  C_11
REMARK    4  A    between atoms: C_8  and  O_9
REMARK    5  A    between atoms: O_9  and  C_10
REMARK                            x       y       z     vdW  Elec       q    Type
REMARK                         _______ _______ _______ _____ _____    ______ ____
ROOT
ATOM      1  C   UNL     1      -0.029   5.383   0.045  0.00  0.00    +0.090 C 
ATOM      2  C   UNL     1      -0.023   3.880   0.027  0.00  0.00    -0.007 A 
ATOM      3  C   UNL     1      -1.243   3.181   0.030  0.00  0.00    -0.012 A 
ATOM      4  C   UNL     1      -2.471   3.866   0.041  0.00  0.00    +0.009 A 
ATOM      5  C   UNL     1      -3.635   3.162   0.048  0.00  0.00    +0.001 A 
ATOM      6  C   UNL     1      -3.630   1.768   0.044  0.00  0.00    +0.001 A 
ATOM      7  C   UNL     1      -2.461   1.071   0.032  0.00  0.00    +0.008 A 
ATOM      8  C   UNL     1      -1.238   1.764   0.018  0.00  0.00    -0.017 A 
ATOM      9  C   UNL     1      -0.013   1.076   0.008  0.00  0.00    +0.010 A 
ATOM     10  C   UNL     1       1.153   1.773   0.001  0.00  0.00    +0.024 A 
ATOM     11  C   UNL     1       1.158   3.175   0.010  0.00  0.00    +0.037 A 
ATOM     12  N   UNL     1       2.378   3.857  -0.001  0.00  0.00    -0.300 N 
ATOM     13  C   UNL     1       2.428   5.175  -0.372  0.00  0.00    +0.114 A 
ATOM     14  C   UNL     1       1.302   5.942  -0.369  0.00  0.00    +0.067 A 
ATOM     15  C   UNL     1       1.395   7.289  -0.763  0.00  0.00    +0.260 A 
ATOM     16  O   UNL     1       0.402   7.996  -0.772  0.00  0.00    -0.267 OA
ATOM     17  N   UNL     1       2.588   7.795  -1.131  0.00  0.00    -0.275 N 
ATOM     18  H   UNL     1       2.655   8.752  -1.412  0.00  0.00    +0.173 HD
ATOM     19  C   UNL     1       3.691   7.024  -1.123  0.00  0.00    +0.328 A 
ATOM     20  O   UNL     1       4.758   7.500  -1.457  0.00  0.00    -0.247 OA
ATOM     21  N   UNL     1       3.627   5.732  -0.751  0.00  0.00    -0.295 N 
ATOM     22  H   UNL     1       4.457   5.173  -0.751  0.00  0.00    +0.172 HD
ATOM     23  H   UNL     1       3.192   3.396   0.255  0.00  0.00    +0.154 HD
ENDROOT
BRANCH   1  27
ATOM     24  C   UNL     1      -0.937   6.727   4.002  0.00  0.00    +0.162 A 
ATOM     25  C   UNL     1       0.203   5.974   3.767  0.00  0.00    +0.050 A 
ATOM     26  C   UNL     1       0.490   5.537   2.488  0.00  0.00    +0.008 A 
ATOM     27  C   UNL     1      -0.350   5.857   1.438  0.00  0.00    -0.032 A 
ATOM     28  C   UNL     1      -1.489   6.608   1.665  0.00  0.00    +0.054 A 
ATOM     29  C   UNL     1      -1.787   7.045   2.946  0.00  0.00    +0.162 A 
BRANCH  24  31
ATOM     30  C   UNL     1      -0.308   6.790   6.294  0.00  0.00    +0.277 C 
ATOM     31  O   UNL     1      -1.225   7.154   5.260  0.00  0.00    -0.491 OA
ENDBRANCH  24  31
BRANCH  29  32
ATOM     32  O   UNL     1      -2.907   7.783   3.171  0.00  0.00    -0.491 OA
ATOM     33  C   UNL     1      -3.732   8.070   2.041  0.00  0.00    +0.277 C 
ENDBRANCH  29  32
ENDBRANCH   1  27
TORSDOF 3
