REMARK  Name = ZINC04860741
REMARK  8 active torsions:
REMARK  status: ('A' for Active; 'I' for Inactive)
REMARK    1  A    between atoms: C_1  and  C_2
REMARK    2  A    between atoms: C_8  and  C_10
REMARK    3  A    between atoms: C_8  and  C_11
REMARK    4  A    between atoms: C_8  and  N_50
REMARK    5  A    between atoms: N_13  and  C_14
REMARK    6  A    between atoms: C_23  and  C_24
REMARK    7  A    between atoms: C_24  and  O_26
REMARK    8  A    between atoms: O_26  and  C_27
REMARK                            x       y       z     vdW  Elec       q    Type
REMARK                         _______ _______ _______ _____ _____    ______ ____
ROOT
ATOM      1  C   UNL     1      -0.020   1.458  -0.003  0.00  0.00    +0.073 A 
ATOM      2  C   UNL     1       1.181   1.606   0.823  0.00  0.00    +0.023 A 
ATOM      3  C   UNL     1       1.557   2.509   1.822  0.00  0.00    +0.027 A 
ATOM      4  C   UNL     1       2.777   2.385   2.425  0.00  0.00    +0.019 A 
ATOM      5  C   UNL     1       3.648   1.368   2.052  0.00  0.00    +0.017 A 
ATOM      6  C   UNL     1       3.298   0.468   1.071  0.00  0.00    +0.027 A 
ATOM      7  C   UNL     1       2.059   0.574   0.442  0.00  0.00    +0.049 A 
ATOM      8  N   UNL     1       1.448  -0.160  -0.548  0.00  0.00    -0.348 N 
ATOM      9  H   UNL     1       1.836  -0.931  -0.990  0.00  0.00    +0.166 HD
ATOM     10  C   UNL     1       0.195   0.368  -0.821  0.00  0.00    +0.147 A 
ATOM     11 BR   UNL     1       3.284   3.606   3.777  0.00  0.00    -0.050 Br
ENDROOT
BRANCH   1  14
ATOM     12  C   UNL     1      -1.068   3.538   0.447  0.00  0.00    +0.203 C 
ATOM     13  O   UNL     1       0.014   4.014   0.717  0.00  0.00    -0.277 OA
ATOM     14  N   UNL     1      -1.157   2.258   0.034  0.00  0.00    -0.284 N 
ATOM     15  H   UNL     1      -2.015   1.895  -0.237  0.00  0.00    +0.155 HD
BRANCH  12  16
ATOM     16  C   UNL     1      -2.313   4.378   0.574  0.00  0.00    +0.016 C 
ATOM     17  C   UNL     1      -3.002   4.476  -0.788  0.00  0.00    -0.004 C 
BRANCH  16  24
ATOM     18  C   UNL     1      -3.971   8.641   2.381  0.00  0.00    +0.005 C 
ATOM     19  C   UNL     1      -2.725   7.830   2.019  0.00  0.00    -0.031 C 
ATOM     20  C   UNL     1      -1.886   8.610   1.003  0.00  0.00    -0.001 C 
ATOM     21  C   UNL     1      -0.673   7.767   0.601  0.00  0.00    -0.018 C 
ATOM     22  C   UNL     1      -1.153   6.431   0.029  0.00  0.00    -0.078 C 
ATOM     23  C   UNL     1      -3.147   6.493   1.405  0.00  0.00    -0.075 C 
ATOM     24  N   UNL     1      -1.934   5.720   1.062  0.00  0.00    +0.387 N 
ATOM     25  H   UNL     1      -1.355   5.617   1.905  0.00  0.00    -0.081 HD
ENDBRANCH  16  24
ENDBRANCH  12  16
ENDBRANCH   1  14
BRANCH  10  26
ATOM     26  C   UNL     1      -0.719  -0.133  -1.783  0.00  0.00    +0.357 C 
ATOM     27  O   UNL     1      -1.752   0.469  -2.012  0.00  0.00    -0.243 OA
BRANCH  26  28
ATOM     28  O   UNL     1      -0.442  -1.275  -2.446  0.00  0.00    -0.463 OA
ATOM     29  C   UNL     1      -1.407  -1.721  -3.401  0.00  0.00    +0.280 C 
ENDBRANCH  26  28
ENDBRANCH  10  26
TORSDOF 5
