REMARK  Name = ZINC12427288
REMARK  7 active torsions:
REMARK  status: ('A' for Active; 'I' for Inactive)
REMARK    1  A    between atoms: C_1  and  C_2
REMARK    2  A    between atoms: C_6  and  N_8
REMARK    3  A    between atoms: C_9  and  C_11
REMARK    4  A    between atoms: C_11  and  S_12
REMARK    5  A    between atoms: S_12  and  C_13
REMARK    6  A    between atoms: N_26  and  C_27
REMARK    7  A    between atoms: C_27  and  C_28
REMARK                            x       y       z     vdW  Elec       q    Type
REMARK                         _______ _______ _______ _____ _____    ______ ____
ROOT
ATOM      1  C   UNL     1      -4.141   1.750   0.031  0.00  0.00    +0.198 A 
ATOM      2  N   UNL     1      -4.171   3.060   0.038  0.00  0.00    -0.120 NA
ATOM      3  N   UNL     1      -5.511   3.463   0.047  0.00  0.00    -0.109 NA
ATOM      4  C   UNL     1      -6.263   2.385   0.045  0.00  0.00    +0.240 A 
ATOM      5  N   UNL     1      -5.433   1.297   0.029  0.00  0.00    -0.256 N 
ATOM      6  C   UNL     1      -5.957   0.006   0.018  0.00  0.00    +0.064 A 
ATOM      7  C   UNL     1      -5.125  -1.102   0.005  0.00  0.00    +0.027 A 
ATOM      8  C   UNL     1      -5.670  -2.371  -0.007  0.00  0.00    +0.002 A 
ATOM      9  C   UNL     1      -7.045  -2.547  -0.007  0.00  0.00    +0.001 A 
ATOM     10  C   UNL     1      -7.888  -1.456   0.006  0.00  0.00    +0.015 A 
ATOM     11  C   UNL     1      -7.349  -0.170   0.018  0.00  0.00    +0.064 A 
ATOM     12  C   UNL     1      -8.216   1.022   0.031  0.00  0.00    +0.263 A 
ATOM     13  O   UNL     1      -9.427   0.907   0.032  0.00  0.00    -0.267 OA
ATOM     14  N   UNL     1      -7.642   2.243   0.052  0.00  0.00    -0.273 N 
ENDROOT
BRANCH   1  15
ATOM     15  S   UNL     1      -2.692   0.747   0.019  0.00  0.00    -0.076 S 
BRANCH  15  16
ATOM     16  C   UNL     1      -1.330   1.944   0.019  0.00  0.00    +0.173 C 
BRANCH  16  18
ATOM     17  N   UNL     1       1.143   1.898   0.001  0.00  0.00    -0.269 N 
ATOM     18  C   UNL     1      -0.014   1.209   0.009  0.00  0.00    +0.229 C 
ATOM     19  O   UNL     1       0.002  -0.004   0.002  0.00  0.00    -0.275 OA
ATOM     20  H   UNL     1       1.130   2.868   0.007  0.00  0.00    +0.156 HD
BRANCH  17  26
ATOM     21  C   UNL     1       3.457  -2.296  -0.043  0.00  0.00    +0.067 C 
ATOM     22  C   UNL     1       3.500  -0.789  -0.036  0.00  0.00    +0.059 A 
ATOM     23  C   UNL     1       4.721  -0.141  -0.044  0.00  0.00    +0.063 A 
ATOM     24  C   UNL     1       4.754   1.247  -0.037  0.00  0.00    +0.045 A 
ATOM     25  C   UNL     1       3.552   1.936  -0.027  0.00  0.00    +0.082 A 
ATOM     26  C   UNL     1       2.361   1.217  -0.014  0.00  0.00    +0.144 A 
ATOM     27  N   UNL     1       2.372  -0.106  -0.021  0.00  0.00    -0.234 NA
ATOM     28 CL   UNL     1       3.533   3.671  -0.025  0.00  0.00    -0.080 Cl
ATOM     29 CL   UNL     1       6.198  -1.053  -0.062  0.00  0.00    -0.082 Cl
ENDBRANCH  17  26
ENDBRANCH  16  18
ENDBRANCH  15  16
ENDBRANCH   1  15
BRANCH  14  30
ATOM     30  C   UNL     1      -8.490   3.438   0.063  0.00  0.00    +0.155 C 
BRANCH  30  31
ATOM     31  C   UNL     1      -8.789   3.854  -1.354  0.00  0.00    -0.013 C 
ATOM     32  C   UNL     1     -10.030   3.997  -1.747  0.00  0.00    +0.005 C 
ENDBRANCH  30  31
ENDBRANCH  14  30
TORSDOF 6
