REMARK  Name = ZINC39960582
REMARK  9 active torsions:
REMARK  status: ('A' for Active; 'I' for Inactive)
REMARK    1  A    between atoms: C_1  and  C_2
REMARK    2  A    between atoms: C_2  and  O_3
REMARK    3  A    between atoms: O_3  and  C_4
REMARK    4  A    between atoms: C_4  and  C_6
REMARK    5  A    between atoms: C_8  and  N_18
REMARK    6  A    between atoms: N_15  and  C_17
REMARK    7  A    between atoms: C_19  and  C_21
REMARK    8  A    between atoms: C_21  and  S_22
REMARK    9  A    between atoms: S_22  and  C_23
REMARK                            x       y       z     vdW  Elec       q    Type
REMARK                         _______ _______ _______ _____ _____    ______ ____
ROOT
ATOM      1  N   UNL     1       1.657  -1.663  -4.937  0.00  0.00    -0.301 N 
ATOM      2  C   UNL     1       1.345  -2.120  -6.166  0.00  0.00    +0.224 C 
ATOM      3  O   UNL     1       0.295  -2.700  -6.348  0.00  0.00    -0.275 OA
ATOM      4  H   UNL     1       2.496  -1.199  -4.790  0.00  0.00    +0.150 HD
ENDROOT
BRANCH   1   6
ATOM      5  C   UNL     1       1.468  -2.353  -2.550  0.00  0.00    +0.155 C 
ATOM      6  C   UNL     1       0.729  -1.868  -3.821  0.00  0.00    +0.153 C 
ATOM      7  S   UNL     1      -0.350  -3.336  -4.098  0.00  0.00    -0.108 S 
ATOM      8  C   UNL     1       0.600  -4.529  -3.189  0.00  0.00    -0.029 C 
ATOM      9  C   UNL     1       1.481  -3.856  -2.460  0.00  0.00    -0.047 C 
ATOM     10  C   UNL     1       2.462  -4.612  -1.566  0.00  0.00    +0.014 C 
ATOM     11  C   UNL     1       1.932  -6.034  -1.365  0.00  0.00    -0.074 C 
ATOM     12  N   UNL     1       1.640  -6.645  -2.669  0.00  0.00    +0.381 N 
ATOM     13  C   UNL     1       0.441  -6.022  -3.234  0.00  0.00    -0.036 C 
ATOM     14  C   UNL     1       1.410  -8.085  -2.495  0.00  0.00    -0.096 C 
ATOM     15  H   UNL     1       2.421  -6.501  -3.291  0.00  0.00    -0.082 HD
BRANCH   5  16
ATOM     16  C   UNL     1       0.775  -1.794  -1.334  0.00  0.00    +0.317 C 
ATOM     17  O   UNL     1       0.314  -2.540  -0.504  0.00  0.00    -0.250 OA
BRANCH  16  18
ATOM     18  O   UNL     1       0.671  -0.465  -1.174  0.00  0.00    -0.464 OA
BRANCH  18  20
ATOM     19  C   UNL     1      -0.019   1.526   0.010  0.00  0.00    +0.048 C 
ATOM     20  C   UNL     1       0.002  -0.004   0.002  0.00  0.00    +0.229 C 
ENDBRANCH  18  20
ENDBRANCH  16  18
ENDBRANCH   5  16
ENDBRANCH   1   6
BRANCH   2  21
ATOM     21  C   UNL     1       2.299  -1.909  -7.313  0.00  0.00    +0.173 C 
BRANCH  21  22
ATOM     22  S   UNL     1       1.599  -2.631  -8.822  0.00  0.00    -0.075 S 
BRANCH  22  23
ATOM     23  C   UNL     1       2.816  -2.307 -10.054  0.00  0.00    +0.208 C 
ATOM     24  N   UNL     1       3.904  -1.670  -9.695  0.00  0.00    -0.227 NA
ATOM     25  C   UNL     1       4.872  -1.336 -10.737  0.00  0.00    +0.252 C 
ATOM     26  C   UNL     1       4.719  -2.396 -11.819  0.00  0.00    +0.117 C 
ATOM     27  C   UNL     1       5.982  -2.828 -12.088  0.00  0.00    +0.025 A 
ATOM     28  C   UNL     1       6.496  -3.718 -13.064  0.00  0.00    +0.012 A 
ATOM     29  C   UNL     1       7.835  -3.953 -13.053  0.00  0.00    +0.001 A 
ATOM     30  C   UNL     1       8.727  -3.376 -12.145  0.00  0.00    +0.002 A 
ATOM     31  C   UNL     1       8.348  -2.504 -11.172  0.00  0.00    +0.026 A 
ATOM     32  C   UNL     1       6.912  -2.183 -11.111  0.00  0.00    +0.046 A 
ATOM     33  N   UNL     1       6.266  -1.384 -10.319  0.00  0.00    -0.358 N 
ATOM     34  N   UNL     1       3.512  -2.816 -12.211  0.00  0.00    -0.147 NA
ATOM     35  N   UNL     1       2.575  -2.735 -11.318  0.00  0.00    -0.122 NA
ATOM     36  H   UNL     1       6.648  -0.898  -9.571  0.00  0.00    +0.162 HD
ENDBRANCH  22  23
ENDBRANCH  21  22
ENDBRANCH   2  21
TORSDOF 7
