REMARK  Name = ZINC09144878
REMARK  6 active torsions:
REMARK  status: ('A' for Active; 'I' for Inactive)
REMARK    1  A    between atoms: C_1  and  C_2
REMARK    2  A    between atoms: C_2  and  C_8
REMARK    3  A    between atoms: N_3  and  N_4
REMARK    4  A    between atoms: N_4  and  C_5
REMARK    5  A    between atoms: C_5  and  N_7
REMARK    6  A    between atoms: C_11  and  O_15
REMARK                            x       y       z     vdW  Elec       q    Type
REMARK                         _______ _______ _______ _____ _____    ______ ____
ROOT
ATOM      1  C   UNL     1      -0.018   1.503   0.010  0.00  0.00    +0.068 C 
ATOM      2  C   UNL     1       0.002  -0.004   0.002  0.00  0.00    +0.063 C 
ATOM      3  N   UNL     1       0.022  -0.659   1.122  0.00  0.00    -0.185 NA
ENDROOT
BRANCH   2   4
ATOM      4  C   UNL     1      -0.000  -0.734  -1.279  0.00  0.00    -0.000 A 
ATOM      5  C   UNL     1      -0.015  -0.031  -2.486  0.00  0.00    +0.027 A 
ATOM      6  C   UNL     1      -0.017  -0.718  -3.682  0.00  0.00    +0.056 A 
ATOM      7  C   UNL     1      -0.004  -2.107  -3.687  0.00  0.00    +0.143 A 
ATOM      8  C   UNL     1       0.010  -2.810  -2.489  0.00  0.00    +0.056 A 
ATOM      9  C   UNL     1       0.019  -2.131  -1.289  0.00  0.00    +0.027 A 
ATOM     10  I   UNL     1       0.029  -4.905  -2.506  0.00  0.00    -0.040 I 
ATOM     11  I   UNL     1      -0.041   0.335  -5.493  0.00  0.00    -0.040 I 
BRANCH   7  12
ATOM     12  O   UNL     1      -0.006  -2.780  -4.867  0.00  0.00    -0.505 OA
ATOM     13  H   UNL     1       0.876  -2.967  -5.215  0.00  0.00    +0.292 HD
ENDBRANCH   7  12
ENDBRANCH   2   4
BRANCH   3  14
ATOM     14  N   UNL     1       0.024   0.035   2.339  0.00  0.00    -0.218 N 
ATOM     15  H   UNL     1       0.011   1.005   2.345  0.00  0.00    +0.176 HD
BRANCH  14  16
ATOM     16  C   UNL     1       0.044  -0.645   3.503  0.00  0.00    +0.147 C 
ATOM     17  S   UNL     1       0.046   0.203   4.990  0.00  0.00    -0.017 S 
BRANCH  16  18
ATOM     18  N   UNL     1       0.062  -1.993   3.495  0.00  0.00    -0.339 N 
ATOM     19  H   UNL     1       0.061  -2.473   2.653  0.00  0.00    +0.144 HD
ATOM     20  H   UNL     1       0.077  -2.482   4.333  0.00  0.00    +0.144 HD
ENDBRANCH  16  18
ENDBRANCH  14  16
ENDBRANCH   3  14
TORSDOF 5
