REMARK  Name = ZINC02219386
REMARK  7 active torsions:
REMARK  status: ('A' for Active; 'I' for Inactive)
REMARK    1  A    between atoms: N_13  and  C_14
REMARK    2  A    between atoms: C_14  and  C_15
REMARK    3  A    between atoms: C_15  and  C_17
REMARK    4  A    between atoms: C_15  and  O_33
REMARK    5  A    between atoms: C_17  and  N_59
REMARK    6  A    between atoms: N_20  and  S_23
REMARK    7  A    between atoms: S_23  and  C_26
REMARK                            x       y       z     vdW  Elec       q    Type
REMARK                         _______ _______ _______ _____ _____    ______ ____
ROOT
ATOM      1  C   UNL     1       5.612   0.943  -1.491  0.00  0.00    -0.045 C 
ENDROOT
BRANCH   1   7
ATOM      2  C   UNL     1       7.520   0.638  -2.949  0.00  0.00    -0.061 C 
ATOM      3  C   UNL     1       7.936   0.485  -4.416  0.00  0.00    +0.091 C 
ATOM      4  N   UNL     1       7.533   1.697  -5.145  0.00  0.00    -0.180 NA
ATOM      5  C   UNL     1       6.143   2.159  -5.014  0.00  0.00    +0.091 C 
ATOM      6  C   UNL     1       5.797   2.246  -3.523  0.00  0.00    -0.061 C 
ATOM      7  N   UNL     1       6.072   0.935  -2.895  0.00  0.00    +0.383 N 
ATOM      8  H   UNL     1       5.563   0.207  -3.409  0.00  0.00    -0.082 HD
BRANCH   4   9
ATOM      9  S   UNL     1       8.617   2.522  -6.088  0.00  0.00    +0.061 S 
ATOM     10  O   UNL     1       9.624   1.590  -6.458  0.00  0.00    -0.153 OA
ATOM     11  O   UNL     1       7.855   3.241  -7.048  0.00  0.00    -0.153 OA
BRANCH   9  12
ATOM     12  C   UNL     1       9.395   3.722  -5.059  0.00  0.00    +0.106 A 
ATOM     13  C   UNL     1       8.852   4.989  -4.944  0.00  0.00    +0.030 A 
ATOM     14  C   UNL     1       9.459   5.929  -4.133  0.00  0.00    +0.022 A 
ATOM     15  C   UNL     1      10.616   5.606  -3.446  0.00  0.00    +0.041 A 
ATOM     16  C   UNL     1      11.161   4.341  -3.566  0.00  0.00    +0.022 A 
ATOM     17  C   UNL     1      10.550   3.399  -4.373  0.00  0.00    +0.030 A 
ATOM     18 CL   UNL     1      11.382   6.789  -2.432  0.00  0.00    -0.084 Cl
ENDBRANCH   9  12
ENDBRANCH   4   9
ENDBRANCH   1   7
BRANCH   1  19
ATOM     19  C   UNL     1       4.091   0.775  -1.475  0.00  0.00    +0.118 C 
BRANCH  19  20
ATOM     20  O   UNL     1       3.741  -0.461  -2.101  0.00  0.00    -0.392 OA
ATOM     21  H   UNL     1       4.119  -1.240  -1.671  0.00  0.00    +0.210 HD
ENDBRANCH  19  20
BRANCH  19  22
ATOM     22  C   UNL     1       3.593   0.773  -0.028  0.00  0.00    +0.151 C 
BRANCH  22  35
ATOM     23  C   UNL     1      -0.774   3.687  -0.015  0.00  0.00    +0.001 A 
ATOM     24  C   UNL     1       0.543   4.119  -0.030  0.00  0.00    +0.002 A 
ATOM     25  C   UNL     1       1.579   3.210  -0.030  0.00  0.00    +0.026 A 
ATOM     26  C   UNL     1       1.307   1.845  -0.017  0.00  0.00    +0.050 A 
ATOM     27  C   UNL     1      -0.026   1.410  -0.002  0.00  0.00    +0.008 A 
ATOM     28  C   UNL     1      -1.063   2.340  -0.006  0.00  0.00    +0.010 A 
ATOM     29  C   UNL     1       0.015  -0.064   0.009  0.00  0.00    +0.008 A 
ATOM     30  C   UNL     1      -0.969  -1.050   0.026  0.00  0.00    +0.010 A 
ATOM     31  C   UNL     1      -0.606  -2.380   0.033  0.00  0.00    +0.001 A 
ATOM     32  C   UNL     1       0.734  -2.738   0.024  0.00  0.00    +0.002 A 
ATOM     33  C   UNL     1       1.717  -1.772   0.008  0.00  0.00    +0.026 A 
ATOM     34  C   UNL     1       1.370  -0.425   0.001  0.00  0.00    +0.050 A 
ATOM     35  N   UNL     1       2.129   0.732  -0.015  0.00  0.00    -0.337 N 
ENDBRANCH  22  35
ENDBRANCH  19  22
ENDBRANCH   1  19
TORSDOF 7
