REMARK  Name = ZINC67286762
REMARK  12 active torsions:
REMARK  status: ('A' for Active; 'I' for Inactive)
REMARK    1  A    between atoms: C_1  and  C_2
REMARK    2  A    between atoms: C_2  and  O_3
REMARK    3  A    between atoms: O_3  and  C_4
REMARK    4  A    between atoms: C_7  and  C_12
REMARK    5  A    between atoms: C_9  and  O_10
REMARK    6  A    between atoms: O_10  and  C_11
REMARK    7  A    between atoms: C_14  and  C_33
REMARK    8  A    between atoms: C_15  and  C_20
REMARK    9  A    between atoms: C_20  and  N_21
REMARK   10  A    between atoms: C_33  and  O_35
REMARK   11  A    between atoms: O_35  and  C_36
REMARK   12  A    between atoms: C_36  and  C_37
REMARK                            x       y       z     vdW  Elec       q    Type
REMARK                         _______ _______ _______ _____ _____    ______ ____
ROOT
ATOM      1  C   UNL     1       1.822  -5.867  -2.156  0.00  0.00    +0.144 C 
ATOM      2  C   UNL     1       3.006  -6.245  -1.289  0.00  0.00    +0.079 C 
ATOM      3  C   UNL     1       2.852  -7.275  -0.429  0.00  0.00    +0.038 C 
ATOM      4  N   UNL     1       1.669  -7.952  -0.345  0.00  0.00    -0.271 N 
ATOM      5  C   UNL     1       0.592  -7.661  -1.086  0.00  0.00    +0.304 C 
ATOM      6  O   UNL     1      -0.418  -8.321  -0.940  0.00  0.00    -0.252 OA
ATOM      7  N   UNL     1       0.592  -6.660  -1.987  0.00  0.00    -0.288 N 
ATOM      8  H   UNL     1       1.605  -8.685   0.287  0.00  0.00    +0.156 HD
ATOM      9  H   UNL     1      -0.199  -6.466  -2.513  0.00  0.00    +0.151 HD
ENDROOT
BRANCH   1  13
ATOM     10  C   UNL     1       0.871  -1.771  -1.377  0.00  0.00    +0.162 A 
ATOM     11  C   UNL     1       1.605  -2.113  -2.502  0.00  0.00    +0.050 A 
ATOM     12  C   UNL     1       1.911  -3.438  -2.751  0.00  0.00    +0.009 A 
ATOM     13  C   UNL     1       1.486  -4.424  -1.880  0.00  0.00    -0.019 A 
ATOM     14  C   UNL     1       0.753  -4.090  -0.756  0.00  0.00    +0.055 A 
ATOM     15  C   UNL     1       0.449  -2.763  -0.498  0.00  0.00    +0.162 A 
BRANCH  15  16
ATOM     16  O   UNL     1      -0.267  -2.431   0.611  0.00  0.00    -0.491 OA
ATOM     17  C   UNL     1      -0.577  -3.487   1.522  0.00  0.00    +0.277 C 
ENDBRANCH  15  16
BRANCH  10  18
ATOM     18  O   UNL     1       0.570  -0.468  -1.131  0.00  0.00    -0.489 OA
BRANCH  18  20
ATOM     19  C   UNL     1       0.604   1.895  -1.635  0.00  0.00    +0.048 C 
ATOM     20  C   UNL     1       1.036   0.496  -2.077  0.00  0.00    +0.226 C 
ENDBRANCH  18  20
ENDBRANCH  10  18
ENDBRANCH   1  13
BRANCH   2  21
ATOM     21  C   UNL     1       4.231  -5.543  -1.378  0.00  0.00    +0.339 C 
ATOM     22  O   UNL     1       4.369  -4.485  -0.794  0.00  0.00    -0.245 OA
BRANCH  21  23
ATOM     23  O   UNL     1       5.246  -6.048  -2.110  0.00  0.00    -0.462 OA
BRANCH  23  24
ATOM     24  C   UNL     1       6.486  -5.338  -2.075  0.00  0.00    +0.229 C 
ATOM     25  C   UNL     1       7.476  -5.994  -3.040  0.00  0.00    +0.048 C 
ENDBRANCH  23  24
ENDBRANCH  21  23
ENDBRANCH   2  21
BRANCH   3  26
ATOM     26  C   UNL     1       4.005  -7.684   0.451  0.00  0.00    +0.136 C 
BRANCH  26  27
ATOM     27  N   UNL     1       3.652  -7.452   1.858  0.00  0.00    -0.294 NA
ATOM     28  C   UNL     1       3.488  -6.018   2.130  0.00  0.00    +0.103 C 
ATOM     29  C   UNL     1       2.947  -5.830   3.552  0.00  0.00    +0.122 C 
ATOM     30  N   UNL     1       3.832  -6.543   4.486  0.00  0.00    -0.314 N 
ATOM     31  C   UNL     1       4.154  -7.950   4.203  0.00  0.00    +0.122 C 
ATOM     32  C   UNL     1       4.647  -8.054   2.756  0.00  0.00    +0.103 C 
ATOM     33  C   UNL     1       4.348  -5.904   5.607  0.00  0.00    +0.099 A 
ATOM     34  C   UNL     1       3.939  -4.610   5.913  0.00  0.00    +0.042 A 
ATOM     35  C   UNL     1       4.461  -3.986   7.032  0.00  0.00    +0.005 A 
ATOM     36  C   UNL     1       5.379  -4.680   7.809  0.00  0.00    +0.018 A 
ATOM     37  C   UNL     1       5.741  -5.961   7.447  0.00  0.00    +0.084 A 
ATOM     38  N   UNL     1       5.222  -6.534   6.377  0.00  0.00    -0.350 N 
ATOM     39  H   UNL     1       5.490  -7.437   6.147  0.00  0.00    +0.166 HD
ENDBRANCH  26  27
ENDBRANCH   3  26
TORSDOF 9
