REMARK  Name = ZINC03627459
REMARK  7 active torsions:
REMARK  status: ('A' for Active; 'I' for Inactive)
REMARK    1  A    between atoms: C_1  and  C_2
REMARK    2  A    between atoms: C_2  and  C_29
REMARK    3  A    between atoms: C_6  and  C_17
REMARK    4  A    between atoms: C_11  and  O_15
REMARK    5  A    between atoms: C_23  and  S_25
REMARK    6  A    between atoms: S_25  and  C_26
REMARK    7  A    between atoms: C_26  and  C_27
REMARK                            x       y       z     vdW  Elec       q    Type
REMARK                         _______ _______ _______ _____ _____    ______ ____
ROOT
ATOM      1  C   UNL     1       3.841   6.536   1.606  0.00  0.00    +0.036 C 
ATOM      2  C   UNL     1       2.624   7.269   2.175  0.00  0.00    +0.064 C 
ATOM      3  C   UNL     1       1.390   6.372   2.048  0.00  0.00    +0.098 C 
ATOM      4  C   UNL     1       1.000   6.288   0.568  0.00  0.00    +0.180 C 
ATOM      5  C   UNL     1       2.152   5.682  -0.237  0.00  0.00    +0.082 C 
ATOM      6  C   UNL     1       2.486   4.311   0.357  0.00  0.00    +0.065 C 
ATOM      7  C   UNL     1       1.218   3.517   0.546  0.00  0.00    +0.004 A 
ATOM      8  C   UNL     1       1.311   2.143   0.701  0.00  0.00    +0.031 A 
ATOM      9  C   UNL     1       0.174   1.382   0.881  0.00  0.00    +0.083 A 
ATOM     10  C   UNL     1      -1.073   1.994   0.902  0.00  0.00    +0.139 A 
ATOM     11  C   UNL     1      -1.169   3.367   0.752  0.00  0.00    +0.093 A 
ATOM     12  C   UNL     1      -0.022   4.132   0.569  0.00  0.00    +0.131 A 
ATOM     13  O   UNL     1      -0.158   5.475   0.412  0.00  0.00    -0.468 OA
ATOM     14 CL   UNL     1       0.301  -0.339   1.073  0.00  0.00    -0.080 Cl
ATOM     15  N   UNL     1       0.728   7.651   0.095  0.00  0.00    -0.287 N 
ATOM     16  C   UNL     1       1.567   8.667   0.493  0.00  0.00    +0.153 C 
ATOM     17  N   UNL     1       2.430   8.516   1.444  0.00  0.00    -0.257 NA
ATOM     18  C   UNL     1       2.870   7.582   3.652  0.00  0.00    +0.036 C 
ATOM     19  H   UNL     1      -0.028   7.831  -0.486  0.00  0.00    +0.152 HD
ENDROOT
BRANCH   6  20
ATOM     20  C   UNL     1       3.407   3.571  -0.579  0.00  0.00    -0.003 A 
ATOM     21  C   UNL     1       4.660   3.106  -0.353  0.00  0.00    +0.012 A 
ATOM     22  C   UNL     1       5.324   2.447  -1.370  0.00  0.00    +0.008 A 
ATOM     23  C   UNL     1       4.703   2.285  -2.564  0.00  0.00    +0.045 A 
ATOM     24  S   UNL     1       3.127   3.072  -2.270  0.00  0.00    -0.101 S 
ENDBRANCH   6  20
BRANCH  10  25
ATOM     25  O   UNL     1      -2.196   1.247   1.074  0.00  0.00    -0.505 OA
ATOM     26  H   UNL     1      -2.455   1.135   1.998  0.00  0.00    +0.292 HD
ENDBRANCH  10  25
BRANCH  16  27
ATOM     27  S   UNL     1       1.461  10.227  -0.321  0.00  0.00    -0.087 S 
BRANCH  27  28
ATOM     28  C   UNL     1       2.742  11.137   0.576  0.00  0.00    +0.103 C 
BRANCH  28  29
ATOM     29  C   UNL     1       2.833  12.541   0.035  0.00  0.00    -0.023 C 
ATOM     30  C   UNL     1       2.522  13.559   0.798  0.00  0.00    +0.005 C 
ENDBRANCH  28  29
ENDBRANCH  27  28
ENDBRANCH  16  27
TORSDOF 5
