REMARK  Name = ZINC20558657
REMARK  9 active torsions:
REMARK  status: ('A' for Active; 'I' for Inactive)
REMARK    1  A    between atoms: C_1  and  C_2
REMARK    2  A    between atoms: C_2  and  O_3
REMARK    3  A    between atoms: O_3  and  C_4
REMARK    4  A    between atoms: C_7  and  C_10
REMARK    5  A    between atoms: C_12  and  C_36
REMARK    6  A    between atoms: C_13  and  N_35
REMARK    7  A    between atoms: N_20  and  C_27
REMARK    8  A    between atoms: C_27  and  C_28
REMARK    9  A    between atoms: C_32  and  C_34
REMARK                            x       y       z     vdW  Elec       q    Type
REMARK                         _______ _______ _______ _____ _____    ______ ____
ROOT
ATOM      1  C   UNL     1       4.902   0.781   0.280  0.00  0.00    +0.118 C 
ATOM      2  C   UNL     1       4.607  -0.694   0.279  0.00  0.00    +0.099 C 
ATOM      3  C   UNL     1       3.372  -1.143  -0.056  0.00  0.00    +0.199 C 
ATOM      4  O   UNL     1       2.390  -0.292  -0.396  0.00  0.00    -0.439 OA
ATOM      5  C   UNL     1       2.456   1.014  -0.025  0.00  0.00    +0.162 C 
ATOM      6  C   UNL     1       3.620   1.566   0.301  0.00  0.00    +0.141 C 
ATOM      7  S   UNL     1       3.655   3.272   0.768  0.00  0.00    +0.076 S 
ATOM      8  O   UNL     1       3.411   3.325   2.167  0.00  0.00    -0.150 OA
ATOM      9  O   UNL     1       4.809   3.844   0.167  0.00  0.00    -0.150 OA
ATOM     10  N   UNL     1       2.329   3.942   0.016  0.00  0.00    -0.198 N 
ATOM     11  C   UNL     1       1.152   3.185   0.010  0.00  0.00    +0.062 A 
ATOM     12  C   UNL     1       1.192   1.790   0.000  0.00  0.00    +0.042 A 
ATOM     13  C   UNL     1      -0.013   1.076   0.008  0.00  0.00    +0.013 A 
ATOM     14  C   UNL     1      -1.217   1.746   0.017  0.00  0.00    +0.001 A 
ATOM     15  C   UNL     1      -1.248   3.129   0.027  0.00  0.00    +0.002 A 
ATOM     16  C   UNL     1      -0.068   3.848   0.020  0.00  0.00    +0.025 A 
ENDROOT
BRANCH   1  20
ATOM     17  C   UNL     1       7.111   1.785  -3.238  0.00  0.00    +0.121 A 
ATOM     18  C   UNL     1       7.657   2.018  -1.984  0.00  0.00    +0.046 A 
ATOM     19  C   UNL     1       6.941   1.692  -0.848  0.00  0.00    +0.008 A 
ATOM     20  C   UNL     1       5.681   1.135  -0.960  0.00  0.00    -0.033 A 
ATOM     21  C   UNL     1       5.136   0.896  -2.209  0.00  0.00    +0.008 A 
ATOM     22  C   UNL     1       5.846   1.226  -3.347  0.00  0.00    +0.046 A 
BRANCH  17  23
ATOM     23  O   UNL     1       7.814   2.103  -4.356  0.00  0.00    -0.492 OA
BRANCH  23  25
ATOM     24  C   UNL     1       8.124   2.257  -6.748  0.00  0.00    +0.048 C 
ATOM     25  C   UNL     1       7.189   1.835  -5.613  0.00  0.00    +0.225 C 
ENDBRANCH  23  25
ENDBRANCH  17  23
ENDBRANCH   1  20
BRANCH   3  26
ATOM     26  N   UNL     1       3.120  -2.493  -0.049  0.00  0.00    -0.328 N 
ATOM     27  H   UNL     1       2.122  -2.868  -0.319  0.00  0.00    +0.145 HD
ATOM     28  H   UNL     1       3.917  -3.199   0.228  0.00  0.00    +0.145 HD
ENDBRANCH   3  26
BRANCH   2  29
ATOM     29  C   UNL     1       5.634  -1.628   0.635  0.00  0.00    +0.101 C 
ATOM     30  N   UNL     1       6.448  -2.368   0.916  0.00  0.00    -0.191 NA
ENDBRANCH   2  29
BRANCH  10  31
ATOM     31  C   UNL     1       2.392   5.265  -0.611  0.00  0.00    +0.166 C 
BRANCH  31  32
ATOM     32  C   UNL     1       2.686   5.111  -2.081  0.00  0.00    -0.028 A 
ATOM     33  C   UNL     1       3.994   5.098  -2.527  0.00  0.00    +0.005 A 
ATOM     34  C   UNL     1       4.263   4.953  -3.875  0.00  0.00    +0.001 A 
ATOM     35  C   UNL     1       3.224   4.828  -4.778  0.00  0.00    +0.003 A 
ATOM     36  C   UNL     1       1.916   4.845  -4.332  0.00  0.00    -0.050 A 
ATOM     37  C   UNL     1       1.646   4.987  -2.984  0.00  0.00    +0.008 A 
ATOM     38  C   UNL     1       0.783   4.710  -5.317  0.00  0.00    +0.044 C 
ENDBRANCH  31  32
ENDBRANCH  10  31
TORSDOF 7
