REMARK  Name = ZINC65001655
REMARK  14 active torsions:
REMARK  status: ('A' for Active; 'I' for Inactive)
REMARK    1  A    between atoms: C_1  and  C_2
REMARK    2  A    between atoms: C_2  and  C_3
REMARK    3  A    between atoms: C_2  and  C_4
REMARK    4  A    between atoms: C_2  and  C_5
REMARK    5  A    between atoms: C_8  and  N_12
REMARK    6  A    between atoms: C_13  and  C_15
REMARK    7  A    between atoms: C_15  and  C_16
REMARK    8  A    between atoms: C_16  and  C_17
REMARK    9  A    between atoms: C_17  and  O_18
REMARK   10  A    between atoms: O_18  and  C_19
REMARK   11  A    between atoms: C_22  and  C_26
REMARK   12  A    between atoms: C_26  and  C_27
REMARK   13  A    between atoms: C_26  and  C_28
REMARK   14  A    between atoms: C_26  and  C_29
REMARK                            x       y       z     vdW  Elec       q    Type
REMARK                         _______ _______ _______ _____ _____    ______ ____
ROOT
ATOM      1  N   UNL     1       2.657  -1.836  -4.666  0.00  0.00    -0.285 N 
ATOM      2  C   UNL     1       2.036  -2.692  -5.502  0.00  0.00    +0.217 C 
ATOM      3  O   UNL     1       0.879  -3.000  -5.306  0.00  0.00    -0.275 OA
ATOM      4  H   UNL     1       3.554  -1.527  -4.866  0.00  0.00    +0.155 HD
ENDROOT
BRANCH   1   8
ATOM      5  C   UNL     1       0.720  -0.515  -1.221  0.00  0.00    -0.041 A 
ATOM      6  C   UNL     1       0.362  -1.721  -1.795  0.00  0.00    +0.006 A 
ATOM      7  C   UNL     1       1.002  -2.161  -2.937  0.00  0.00    +0.025 A 
ATOM      8  C   UNL     1       2.006  -1.392  -3.509  0.00  0.00    +0.047 A 
ATOM      9  C   UNL     1       2.364  -0.181  -2.930  0.00  0.00    +0.039 A 
ATOM     10  C   UNL     1       1.716   0.256  -1.790  0.00  0.00    +0.021 A 
ATOM     11 BR   UNL     1       3.732   0.871  -3.704  0.00  0.00    -0.048 Br
BRANCH   5  13
ATOM     12  C   UNL     1      -0.663   1.302  -0.255  0.00  0.00    +0.015 C 
ATOM     13  C   UNL     1       0.020  -0.038   0.025  0.00  0.00    -0.013 C 
ATOM     14  C   UNL     1       1.043   0.136   1.150  0.00  0.00    +0.015 C 
ATOM     15  C   UNL     1      -1.030  -1.068   0.446  0.00  0.00    +0.015 C 
ENDBRANCH   5  13
ENDBRANCH   1   8
BRANCH   2  16
ATOM     16  C   UNL     1       2.780  -3.267  -6.680  0.00  0.00    +0.099 C 
BRANCH  16  17
ATOM     17  C   UNL     1       1.853  -4.202  -7.460  0.00  0.00    +0.050 C 
BRANCH  17  18
ATOM     18  C   UNL     1       2.608  -4.786  -8.657  0.00  0.00    +0.229 C 
BRANCH  18  19
ATOM     19  O   UNL     1       1.743  -5.659  -9.386  0.00  0.00    -0.491 OA
BRANCH  19  20
ATOM     20  C   UNL     1       2.263  -6.264 -10.486  0.00  0.00    +0.134 A 
ATOM     21  C   UNL     1       3.579  -6.027 -10.853  0.00  0.00    +0.047 A 
ATOM     22  C   UNL     1       4.105  -6.644 -11.972  0.00  0.00    +0.008 A 
ATOM     23  C   UNL     1       3.320  -7.497 -12.726  0.00  0.00    -0.041 A 
ATOM     24  C   UNL     1       2.007  -7.735 -12.363  0.00  0.00    +0.023 A 
ATOM     25  C   UNL     1       1.478  -7.125 -11.241  0.00  0.00    +0.060 A 
ATOM     26 BR   UNL     1      -0.315  -7.457 -10.740  0.00  0.00    -0.047 Br
BRANCH  23  27
ATOM     27  C   UNL     1       3.896  -8.167 -13.947  0.00  0.00    -0.013 C 
ATOM     28  C   UNL     1       5.092  -9.029 -13.538  0.00  0.00    +0.015 C 
ATOM     29  C   UNL     1       2.828  -9.051 -14.595  0.00  0.00    +0.015 C 
ATOM     30  C   UNL     1       4.352  -7.103 -14.946  0.00  0.00    +0.015 C 
ENDBRANCH  23  27
ENDBRANCH  19  20
ENDBRANCH  18  19
ENDBRANCH  17  18
ENDBRANCH  16  17
ENDBRANCH   2  16
TORSDOF 8
