REMARK  Name = ZINC09165265
REMARK  8 active torsions:
REMARK  status: ('A' for Active; 'I' for Inactive)
REMARK    1  A    between atoms: C_1  and  C_2
REMARK    2  A    between atoms: C_7  and  N_8
REMARK    3  A    between atoms: C_9  and  C_11
REMARK    4  A    between atoms: N_13  and  C_14
REMARK    5  A    between atoms: C_14  and  C_15
REMARK    6  A    between atoms: C_15  and  C_17
REMARK    7  A    between atoms: C_15  and  N_66
REMARK    8  A    between atoms: N_26  and  C_27
REMARK                            x       y       z     vdW  Elec       q    Type
REMARK                         _______ _______ _______ _____ _____    ______ ____
ROOT
ATOM      1  C   UNL     1      -0.065   0.211   0.577  0.00  0.00    -0.020 C 
ENDROOT
BRANCH   1   2
ATOM      2  C   UNL     1       0.681  -0.600  -0.451  0.00  0.00    -0.059 A 
ATOM      3  C   UNL     1       2.054  -0.473  -0.569  0.00  0.00    +0.004 A 
ATOM      4  C   UNL     1       2.734  -1.214  -1.511  0.00  0.00    +0.023 A 
ATOM      5  C   UNL     1       2.047  -2.094  -2.349  0.00  0.00    +0.033 A 
ATOM      6  C   UNL     1       0.675  -2.221  -2.223  0.00  0.00    -0.026 A 
ATOM      7  C   UNL     1      -0.002  -1.474  -1.271  0.00  0.00    +0.007 A 
ATOM      8  C   UNL     1      -0.124  -3.161  -3.089  0.00  0.00    +0.038 C 
ATOM      9  C   UNL     1       0.715  -3.587  -4.296  0.00  0.00    +0.024 C 
ATOM     10  C   UNL     1       2.102  -3.997  -3.787  0.00  0.00    +0.105 C 
ATOM     11  N   UNL     1       2.791  -2.804  -3.291  0.00  0.00    -0.333 N 
ATOM     12  C   UNL     1       4.120  -3.144  -2.765  0.00  0.00    +0.129 C 
ENDBRANCH   1   2
BRANCH   1  18
ATOM     13  C   UNL     1      -0.255   0.155   2.990  0.00  0.00    -0.078 C 
ATOM     14  C   UNL     1       0.539  -0.017   4.286  0.00  0.00    -0.019 C 
ATOM     15  C   UNL     1       1.523   1.147   4.435  0.00  0.00    -0.004 C 
ATOM     16  C   UNL     1       2.442   1.187   3.211  0.00  0.00    -0.019 C 
ATOM     17  C   UNL     1       1.593   1.324   1.945  0.00  0.00    -0.078 C 
ATOM     18  N   UNL     1       0.685   0.161   1.849  0.00  0.00    +0.385 N 
ATOM     19  H   UNL     1       1.243  -0.700   1.873  0.00  0.00    -0.081 HD
ENDBRANCH   1  18
BRANCH   1  20
ATOM     20  C   UNL     1      -0.194   1.657   0.090  0.00  0.00    +0.094 C 
BRANCH  20  23
ATOM     21  C   UNL     1      -1.294   3.714   0.793  0.00  0.00    +0.299 C 
ATOM     22  O   UNL     1      -0.886   4.243  -0.220  0.00  0.00    -0.265 OA
ATOM     23  N   UNL     1      -1.003   2.422   1.042  0.00  0.00    -0.309 N 
ATOM     24  H   UNL     1      -1.329   1.999   1.852  0.00  0.00    +0.149 HD
BRANCH  21  26
ATOM     25  N   UNL     1      -2.410   5.786   1.513  0.00  0.00    -0.277 N 
ATOM     26  C   UNL     1      -2.119   4.494   1.763  0.00  0.00    +0.303 C 
ATOM     27  O   UNL     1      -2.527   3.965   2.776  0.00  0.00    -0.265 OA
ATOM     28  H   UNL     1      -2.139   6.191   0.675  0.00  0.00    +0.155 HD
BRANCH  25  35
ATOM     29  C   UNL     1      -2.004   8.602   1.544  0.00  0.00    +0.045 C 
ATOM     30  C   UNL     1      -2.935   7.920   2.513  0.00  0.00    -0.029 A 
ATOM     31  C   UNL     1      -3.621   8.665   3.452  0.00  0.00    +0.006 A 
ATOM     32  C   UNL     1      -4.475   8.041   4.342  0.00  0.00    +0.020 A 
ATOM     33  C   UNL     1      -4.646   6.668   4.295  0.00  0.00    +0.043 A 
ATOM     34  C   UNL     1      -3.966   5.918   3.354  0.00  0.00    +0.043 A 
ATOM     35  C   UNL     1      -3.103   6.542   2.463  0.00  0.00    +0.038 A 
ATOM     36 CL   UNL     1      -5.720   5.889   5.415  0.00  0.00    -0.083 Cl
ENDBRANCH  25  35
ENDBRANCH  21  26
ENDBRANCH  20  23
ENDBRANCH   1  20
TORSDOF 6
