REMARK  Name = ZINC44560163
REMARK  17 active torsions:
REMARK  status: ('A' for Active; 'I' for Inactive)
REMARK    1  A    between atoms: C_3  and  N_41
REMARK    2  A    between atoms: C_6  and  C_7
REMARK    3  A    between atoms: C_7  and  O_8
REMARK    4  A    between atoms: O_8  and  C_9
REMARK    5  A    between atoms: C_11  and  O_40
REMARK    6  A    between atoms: C_13  and  O_39
REMARK    7  A    between atoms: C_15  and  O_22
REMARK    8  A    between atoms: C_17  and  C_20
REMARK    9  A    between atoms: C_20  and  O_21
REMARK   10  A    between atoms: O_22  and  C_23
REMARK   11  A    between atoms: C_25  and  O_38
REMARK   12  A    between atoms: C_27  and  O_37
REMARK   13  A    between atoms: C_29  and  O_36
REMARK   14  A    between atoms: C_31  and  C_34
REMARK   15  A    between atoms: C_34  and  O_35
REMARK   16  A    between atoms: N_41  and  C_42
REMARK   17  A    between atoms: C_42  and  N_44
REMARK                            x       y       z     vdW  Elec       q    Type
REMARK                         _______ _______ _______ _____ _____    ______ ____
ROOT
ATOM      1  C   UNL     1      -3.126  -1.409  -1.433  0.00  0.00    +0.282 C 
ATOM      2  C   UNL     1      -3.703  -1.210  -2.837  0.00  0.00    +0.201 C 
ATOM      3  C   UNL     1      -2.741  -1.812  -3.866  0.00  0.00    +0.179 C 
ATOM      4  C   UNL     1      -2.517  -3.291  -3.535  0.00  0.00    +0.183 C 
ATOM      5  C   UNL     1      -1.986  -3.410  -2.104  0.00  0.00    +0.178 C 
ATOM      6  O   UNL     1      -2.913  -2.803  -1.201  0.00  0.00    -0.341 OA
ENDROOT
BRANCH   2   7
ATOM      7  O   UNL     1      -3.864   0.187  -3.093  0.00  0.00    -0.384 OA
ATOM      8  H   UNL     1      -4.458   0.634  -2.475  0.00  0.00    +0.210 HD
ENDBRANCH   2   7
BRANCH   3   9
ATOM      9  O   UNL     1      -3.305  -1.694  -5.174  0.00  0.00    -0.386 OA
ATOM     10  H   UNL     1      -3.479  -0.783  -5.447  0.00  0.00    +0.210 HD
ENDBRANCH   3   9
BRANCH   4  11
ATOM     11  O   UNL     1      -3.753  -3.998  -3.647  0.00  0.00    -0.340 OA
BRANCH  11  12
ATOM     12  C   UNL     1      -4.003  -4.530  -4.950  0.00  0.00    +0.282 C 
ATOM     13  C   UNL     1      -5.443  -5.043  -5.025  0.00  0.00    +0.201 C 
ATOM     14  C   UNL     1      -5.684  -5.665  -6.404  0.00  0.00    +0.179 C 
ATOM     15  C   UNL     1      -4.658  -6.778  -6.636  0.00  0.00    +0.177 C 
ATOM     16  C   UNL     1      -3.248  -6.198  -6.498  0.00  0.00    +0.178 C 
ATOM     17  O   UNL     1      -3.100  -5.608  -5.205  0.00  0.00    -0.341 OA
BRANCH  13  18
ATOM     18  O   UNL     1      -5.653  -6.028  -4.012  0.00  0.00    -0.384 OA
ATOM     19  H   UNL     1      -5.513  -5.703  -3.112  0.00  0.00    +0.210 HD
ENDBRANCH  13  18
BRANCH  14  20
ATOM     20  O   UNL     1      -7.004  -6.210  -6.458  0.00  0.00    -0.386 OA
ATOM     21  H   UNL     1      -7.705  -5.559  -6.313  0.00  0.00    +0.210 HD
ENDBRANCH  14  20
BRANCH  15  22
ATOM     22  O   UNL     1      -4.847  -7.811  -5.667  0.00  0.00    -0.386 OA
ATOM     23  H   UNL     1      -5.723  -8.221  -5.695  0.00  0.00    +0.210 HD
ENDBRANCH  15  22
BRANCH  16  24
ATOM     24  C   UNL     1      -2.218  -7.316  -6.670  0.00  0.00    +0.190 C 
BRANCH  24  25
ATOM     25  O   UNL     1      -0.902  -6.758  -6.658  0.00  0.00    -0.392 OA
ATOM     26  H   UNL     1      -0.197  -7.411  -6.762  0.00  0.00    +0.210 HD
ENDBRANCH  24  25
ENDBRANCH  16  24
ENDBRANCH  11  12
ENDBRANCH   4  11
BRANCH   5  27
ATOM     27  C   UNL     1      -1.816  -4.887  -1.744  0.00  0.00    +0.190 C 
BRANCH  27  28
ATOM     28  O   UNL     1      -1.212  -4.997  -0.453  0.00  0.00    -0.392 OA
ATOM     29  H   UNL     1      -1.073  -5.908  -0.160  0.00  0.00    +0.210 HD
ENDBRANCH  27  28
ENDBRANCH   5  27
BRANCH   1  30
ATOM     30  O   UNL     1      -1.883  -0.713  -1.325  0.00  0.00    -0.344 OA
BRANCH  30  31
ATOM     31  C   UNL     1      -1.313  -0.741  -0.015  0.00  0.00    +0.198 C 
BRANCH  31  37
ATOM     32  C   UNL     1      -0.005   1.375   0.260  0.00  0.00    +0.008 A 
ATOM     33  C   UNL     1       1.185   2.075   0.259  0.00  0.00    +0.023 A 
ATOM     34  C   UNL     1       2.376   1.417  -0.020  0.00  0.00    +0.033 A 
ATOM     35  C   UNL     1       2.366   0.056  -0.297  0.00  0.00    +0.023 A 
ATOM     36  C   UNL     1       1.172  -0.638  -0.295  0.00  0.00    +0.008 A 
ATOM     37  C   UNL     1      -0.012   0.020  -0.017  0.00  0.00    -0.022 A 
BRANCH  34  38
ATOM     38  N   UNL     1       3.584   2.123  -0.021  0.00  0.00    -0.297 N 
ATOM     39  H   UNL     1       4.243   1.955  -0.712  0.00  0.00    +0.154 HD
BRANCH  38  40
ATOM     40  C   UNL     1       3.831   3.038   0.937  0.00  0.00    +0.132 C 
ATOM     41  S   UNL     1       2.732   3.236   2.235  0.00  0.00    -0.019 S 
BRANCH  40  42
ATOM     42  N   UNL     1       4.942   3.797   0.874  0.00  0.00    -0.340 N 
ATOM     43  H   UNL     1       5.565   3.686   0.138  0.00  0.00    +0.144 HD
ATOM     44  H   UNL     1       5.120   4.456   1.563  0.00  0.00    +0.144 HD
ENDBRANCH  40  42
ENDBRANCH  38  40
ENDBRANCH  34  38
ENDBRANCH  31  37
ENDBRANCH  30  31
ENDBRANCH   1  30
TORSDOF 17
