REMARK  Name = ZINC06198517
REMARK  13 active torsions:
REMARK  status: ('A' for Active; 'I' for Inactive)
REMARK    1  A    between atoms: C_1  and  N_66
REMARK    2  A    between atoms: C_2  and  N_66
REMARK    3  A    between atoms: C_3  and  C_4
REMARK    4  A    between atoms: C_3  and  N_66
REMARK    5  A    between atoms: C_4  and  C_5
REMARK    6  A    between atoms: C_5  and  N_6
REMARK    7  A    between atoms: N_6  and  C_7
REMARK    8  A    between atoms: C_7  and  N_9
REMARK    9  A    between atoms: N_9  and  C_10
REMARK   10  A    between atoms: N_9  and  C_18
REMARK   11  A    between atoms: C_10  and  C_11
REMARK   12  A    between atoms: C_11  and  C_12
REMARK   13  A    between atoms: C_18  and  C_19
REMARK                            x       y       z     vdW  Elec       q    Type
REMARK                         _______ _______ _______ _____ _____    ______ ____
ROOT
ATOM      1  N   UNL     1      -0.111   7.330  -1.400  0.00  0.00    -0.308 N 
ENDROOT
BRANCH   1   2
ATOM      2  C   UNL     1       1.047   8.019  -1.408  0.00  0.00    +0.133 C 
ATOM      3  S   UNL     1       1.024   9.731  -1.398  0.00  0.00    -0.019 S 
BRANCH   2   4
ATOM      4  N   UNL     1       2.223   7.361  -1.423  0.00  0.00    -0.326 N 
ATOM      5  H   UNL     1       2.236   6.391  -1.428  0.00  0.00    +0.148 HD
BRANCH   4   6
ATOM      6  C   UNL     1       3.482   8.111  -1.431  0.00  0.00    +0.101 C 
BRANCH   6   7
ATOM      7  C   UNL     1       4.658   7.133  -1.447  0.00  0.00    +0.000 C 
BRANCH   7   8
ATOM      8  C   UNL     1       5.972   7.916  -1.455  0.00  0.00    -0.078 C 
BRANCH   8  11
ATOM      9  C   UNL     1       7.138   6.218  -2.729  0.00  0.00    -0.097 C 
ATOM     10  C   UNL     1       8.372   7.677  -1.242  0.00  0.00    -0.097 C 
ATOM     11  N   UNL     1       7.098   6.958  -1.450  0.00  0.00    +0.376 N 
ATOM     12  H   UNL     1       6.963   6.289  -0.682  0.00  0.00    -0.083 HD
ENDBRANCH   8  11
ENDBRANCH   7   8
ENDBRANCH   6   7
ENDBRANCH   4   6
ENDBRANCH   2   4
ENDBRANCH   1   2
BRANCH   1  13
ATOM     13  C   UNL     1      -0.091   5.865  -1.409  0.00  0.00    +0.112 C 
BRANCH  13  14
ATOM     14  C   UNL     1      -0.070   5.347   0.031  0.00  0.00    +0.054 C 
BRANCH  14  15
ATOM     15  C   UNL     1      -0.050   3.840   0.023  0.00  0.00    -0.046 A 
ATOM     16  C   UNL     1       1.156   3.165   0.008  0.00  0.00    +0.004 A 
ATOM     17  C   UNL     1       1.175   1.783   0.000  0.00  0.00    +0.000 A 
ATOM     18  C   UNL     1      -0.013   1.076   0.008  0.00  0.00    +0.000 A 
ATOM     19  C   UNL     1      -1.219   1.751   0.017  0.00  0.00    +0.000 A 
ATOM     20  C   UNL     1      -1.238   3.133   0.030  0.00  0.00    +0.004 A 
ENDBRANCH  14  15
ENDBRANCH  13  14
ENDBRANCH   1  13
BRANCH   1  21
ATOM     21  C   UNL     1      -1.390   8.045  -1.384  0.00  0.00    +0.147 C 
BRANCH  21  22
ATOM     22  C   UNL     1      -1.814   8.282   0.042  0.00  0.00    +0.035 A 
ATOM     23  C   UNL     1      -1.512   9.457   0.651  0.00  0.00    +0.020 A 
ATOM     24  C   UNL     1      -1.943   9.660   2.033  0.00  0.00    +0.003 A 
ATOM     25  C   UNL     1      -1.663  10.853   2.710  0.00  0.00    +0.059 A 
ATOM     26  C   UNL     1      -2.078  11.014   4.016  0.00  0.00    +0.163 A 
ATOM     27  C   UNL     1      -2.776   9.990   4.663  0.00  0.00    +0.164 A 
ATOM     28  C   UNL     1      -3.056   8.806   4.002  0.00  0.00    +0.075 A 
ATOM     29  C   UNL     1      -2.645   8.629   2.688  0.00  0.00    +0.053 A 
ATOM     30  N   UNL     1      -2.915   7.455   2.014  0.00  0.00    -0.322 N 
ATOM     31  H   UNL     1      -3.413   6.723   2.479  0.00  0.00    +0.169 HD
ATOM     32  C   UNL     1      -2.519   7.281   0.741  0.00  0.00    +0.254 A 
ATOM     33  O   UNL     1      -2.775   6.231   0.177  0.00  0.00    -0.268 OA
ATOM     34  O   UNL     1      -3.192  10.142   5.950  0.00  0.00    -0.485 OA
ATOM     35  C   UNL     1      -2.573  11.186   6.708  0.00  0.00    +0.270 C 
ATOM     36  C   UNL     1      -2.549  12.456   5.847  0.00  0.00    +0.270 C 
ATOM     37  O   UNL     1      -1.796  12.179   4.661  0.00  0.00    -0.485 OA
ENDBRANCH  21  22
ENDBRANCH   1  21
TORSDOF 11
