REMARK  Name = ZINC63182704
REMARK  10 active torsions:
REMARK  status: ('A' for Active; 'I' for Inactive)
REMARK    1  A    between atoms: C_1  and  C_2
REMARK    2  A    between atoms: C_2  and  C_3
REMARK    3  A    between atoms: C_3  and  C_4
REMARK    4  A    between atoms: C_8  and  S_10
REMARK    5  A    between atoms: S_10  and  C_11
REMARK    6  A    between atoms: C_11  and  C_12
REMARK    7  A    between atoms: N_14  and  C_15
REMARK    8  A    between atoms: C_15  and  C_16
REMARK    9  A    between atoms: C_16  and  C_18
REMARK   10  A    between atoms: C_16  and  C_26
REMARK                            x       y       z     vdW  Elec       q    Type
REMARK                         _______ _______ _______ _____ _____    ______ ____
ROOT
ATOM      1  C   UNL     1      -1.329  -5.973   8.213  0.00  0.00    +0.066 C 
ENDROOT
BRANCH   1   2
ATOM      2  C   UNL     1      -1.434  -7.066   9.246  0.00  0.00    -0.033 C 
ATOM      3  C   UNL     1      -2.415  -7.226  10.163  0.00  0.00    -0.000 A 
ATOM      4  C   UNL     1      -3.630  -6.460  10.463  0.00  0.00    +0.010 A 
ATOM      5  C   UNL     1      -4.437  -6.875  11.466  0.00  0.00    +0.001 A 
ATOM      6  C   UNL     1      -4.143  -8.017  12.223  0.00  0.00    +0.002 A 
ATOM      7  C   UNL     1      -3.046  -8.773  12.007  0.00  0.00    +0.026 A 
ATOM      8  C   UNL     1      -2.127  -8.428  10.977  0.00  0.00    +0.043 A 
ATOM      9  N   UNL     1      -1.012  -8.990  10.579  0.00  0.00    -0.380 N 
ATOM     10  C   UNL     1      -0.468  -8.210   9.461  0.00  0.00    +0.145 C 
ATOM     11  H   UNL     1      -0.614  -9.790  10.957  0.00  0.00    +0.160 HD
ENDBRANCH   1   2
BRANCH   1  12
ATOM     12  C   UNL     1      -0.050  -5.204   8.425  0.00  0.00    -0.020 A 
ATOM     13  C   UNL     1       1.168  -5.853   8.344  0.00  0.00    +0.007 A 
ATOM     14  C   UNL     1       2.341  -5.148   8.538  0.00  0.00    +0.020 A 
ATOM     15  C   UNL     1       2.296  -3.792   8.813  0.00  0.00    +0.042 A 
ATOM     16  C   UNL     1       1.078  -3.143   8.894  0.00  0.00    +0.040 A 
ATOM     17  C   UNL     1      -0.096  -3.848   8.695  0.00  0.00    +0.046 A 
ATOM     18 CL   UNL     1      -1.625  -3.033   8.790  0.00  0.00    -0.083 Cl
ATOM     19 CL   UNL     1       3.770  -2.907   9.057  0.00  0.00    -0.083 Cl
ENDBRANCH   1  12
BRANCH   1  20
ATOM     20  C   UNL     1      -1.326  -6.592   6.814  0.00  0.00    +0.116 C 
BRANCH  20  23
ATOM     21  C   UNL     1      -1.345  -5.838   4.497  0.00  0.00    +0.223 C 
ATOM     22  O   UNL     1      -1.331  -6.999   4.149  0.00  0.00    -0.275 OA
ATOM     23  N   UNL     1      -1.344  -5.527   5.809  0.00  0.00    -0.314 N 
ATOM     24  H   UNL     1      -1.355  -4.598   6.087  0.00  0.00    +0.149 HD
BRANCH  21  25
ATOM     25  C   UNL     1      -1.363  -4.742   3.463  0.00  0.00    +0.173 C 
BRANCH  25  26
ATOM     26  S   UNL     1      -1.360  -5.475   1.804  0.00  0.00    -0.077 S 
BRANCH  26  31
ATOM     27  C   UNL     1      -1.413  -2.041   0.005  0.00  0.00    +0.152 A 
ATOM     28  N   UNL     1      -1.407  -2.792  -1.064  0.00  0.00    -0.157 NA
ATOM     29  H   UNL     1      -1.378  -4.920  -1.185  0.00  0.00    +0.191 HD
ATOM     30  N   UNL     1      -1.387  -4.126  -0.627  0.00  0.00    -0.254 N 
ATOM     31  C   UNL     1      -1.382  -4.084   0.723  0.00  0.00    +0.185 A 
ATOM     32  N   UNL     1      -1.392  -2.819   1.087  0.00  0.00    -0.206 NA
BRANCH  27  33
ATOM     33  C   UNL     1      -1.433  -0.534   0.013  0.00  0.00    +0.078 C 
BRANCH  33  35
ATOM     34  C   UNL     1      -0.019   1.526   0.010  0.00  0.00    +0.004 C 
ATOM     35  C   UNL     1       0.002  -0.004   0.002  0.00  0.00    +0.004 C 
ENDBRANCH  33  35
ENDBRANCH  27  33
ENDBRANCH  26  31
ENDBRANCH  25  26
ENDBRANCH  21  25
ENDBRANCH  20  23
ENDBRANCH   1  20
TORSDOF 9
