REMARK  Name = ZINC63280123
REMARK  10 active torsions:
REMARK  status: ('A' for Active; 'I' for Inactive)
REMARK    1  A    between atoms: C_1  and  O_2
REMARK    2  A    between atoms: O_2  and  C_3
REMARK    3  A    between atoms: C_5  and  C_22
REMARK    4  A    between atoms: C_8  and  O_9
REMARK    5  A    between atoms: O_9  and  C_10
REMARK    6  A    between atoms: N_15  and  C_16
REMARK    7  A    between atoms: C_22  and  N_23
REMARK    8  A    between atoms: N_23  and  C_24
REMARK    9  A    between atoms: C_24  and  C_25
REMARK   10  A    between atoms: C_25  and  C_26
REMARK                            x       y       z     vdW  Elec       q    Type
REMARK                         _______ _______ _______ _____ _____    ______ ____
ROOT
ATOM      1  C   UNL     1      -1.213  -0.649  -0.156  0.00  0.00    +0.162 A 
ATOM      2  C   UNL     1      -2.384   0.077  -0.304  0.00  0.00    +0.051 A 
ATOM      3  C   UNL     1      -3.592  -0.581  -0.441  0.00  0.00    -0.061 A 
ATOM      4  C   UNL     1      -3.635  -1.963  -0.431  0.00  0.00    +0.005 A 
ATOM      5  C   UNL     1      -2.471  -2.693  -0.283  0.00  0.00    +0.050 A 
ATOM      6  C   UNL     1      -1.256  -2.040  -0.151  0.00  0.00    +0.166 A 
ENDROOT
BRANCH   1   8
ATOM      7  C   UNL     1      -0.056   1.425  -0.034  0.00  0.00    +0.277 C 
ATOM      8  O   UNL     1      -0.024  -0.003  -0.021  0.00  0.00    -0.491 OA
ENDBRANCH   1   8
BRANCH   6   9
ATOM      9  O   UNL     1      -0.108  -2.756  -0.012  0.00  0.00    -0.454 OA
BRANCH   9  10
ATOM     10  C   UNL     1      -0.238  -4.176   0.093  0.00  0.00    +0.340 C 
ATOM     11  N   UNL     1      -0.397  -4.776  -1.254  0.00  0.00    -0.295 NA
ATOM     12  N   UNL     1       0.409  -6.005  -1.157  0.00  0.00    +0.413 N 
ATOM     13  N   UNL     1       1.532  -5.592  -0.304  0.00  0.00    -0.263 NA
ATOM     14  N   UNL     1       0.994  -4.759   0.650  0.00  0.00    -0.230 N 
ATOM     15  H   UNL     1      -1.364  -4.992  -1.442  0.00  0.00    +0.109 HD
ATOM     16  H   UNL     1      -0.118  -6.745  -0.719  0.00  0.00    -0.031 HD
ATOM     17  H   UNL     1       2.240  -5.116  -0.843  0.00  0.00    +0.125 HD
ATOM     18  H   UNL     1       0.739  -6.290  -2.068  0.00  0.00    -0.031 HD
BRANCH  14  19
ATOM     19  C   UNL     1       1.521  -4.511   1.919  0.00  0.00    +0.048 A 
ATOM     20  C   UNL     1       0.867  -3.646   2.788  0.00  0.00    +0.024 A 
ATOM     21  C   UNL     1       1.390  -3.403   4.042  0.00  0.00    +0.002 A 
ATOM     22  C   UNL     1       2.564  -4.019   4.434  0.00  0.00    +0.000 A 
ATOM     23  C   UNL     1       3.218  -4.880   3.572  0.00  0.00    +0.002 A 
ATOM     24  C   UNL     1       2.697  -5.132   2.319  0.00  0.00    +0.024 A 
ENDBRANCH  14  19
ENDBRANCH   9  10
ENDBRANCH   6   9
BRANCH   3  25
ATOM     25  C   UNL     1      -4.865   0.209  -0.602  0.00  0.00    -0.047 C 
BRANCH  25  26
ATOM     26  N   UNL     1      -5.114   0.451  -2.029  0.00  0.00    +0.382 N 
ATOM     27  H   UNL     1      -4.343   0.971  -2.422  0.00  0.00    -0.085 HD
ATOM     28  H   UNL     1      -5.204  -0.431  -2.510  0.00  0.00    -0.085 HD
BRANCH  26  29
ATOM     29  C   UNL     1      -6.355   1.222  -2.186  0.00  0.00    -0.078 C 
BRANCH  29  30
ATOM     30  C   UNL     1      -6.614   1.474  -3.673  0.00  0.00    +0.014 C 
BRANCH  30  31
ATOM     31  C   UNL     1      -7.887   2.265  -3.834  0.00  0.00    -0.043 C 
ATOM     32  C   UNL     1      -8.000   3.607  -3.962  0.00  0.00    -0.001 A 
ATOM     33  C   UNL     1      -7.010   4.690  -3.988  0.00  0.00    +0.010 A 
ATOM     34  C   UNL     1      -7.436   5.965  -4.133  0.00  0.00    +0.001 A 
ATOM     35  C   UNL     1      -8.797   6.277  -4.257  0.00  0.00    +0.002 A 
ATOM     36  C   UNL     1      -9.766   5.337  -4.242  0.00  0.00    +0.026 A 
ATOM     37  C   UNL     1      -9.431   3.963  -4.096  0.00  0.00    +0.043 A 
ATOM     38  N   UNL     1     -10.173   2.883  -4.052  0.00  0.00    -0.380 N 
ATOM     39  C   UNL     1      -9.296   1.718  -3.891  0.00  0.00    +0.144 C 
ATOM     40  H   UNL     1     -11.140   2.858  -4.118  0.00  0.00    +0.160 HD
ENDBRANCH  30  31
ENDBRANCH  29  30
ENDBRANCH  26  29
ENDBRANCH  25  26
ENDBRANCH   3  25
TORSDOF 9
