REMARK  Name = ZINC41515226
REMARK  8 active torsions:
REMARK  status: ('A' for Active; 'I' for Inactive)
REMARK    1  A    between atoms: C_1  and  C_2
REMARK    2  A    between atoms: C_4  and  O_33
REMARK    3  A    between atoms: C_5  and  C_22
REMARK    4  A    between atoms: C_11  and  C_12
REMARK    5  A    between atoms: C_16  and  N_18
REMARK    6  A    between atoms: C_22  and  N_23
REMARK    7  A    between atoms: C_25  and  C_32
REMARK    8  A    between atoms: C_28  and  C_31
REMARK                            x       y       z     vdW  Elec       q    Type
REMARK                         _______ _______ _______ _____ _____    ______ ____
ROOT
ATOM      1  C   UNL     1       1.078   1.376   0.034  0.00  0.00    +0.045 C 
ATOM      2  C   UNL     1       0.691  -0.080   0.016  0.00  0.00    -0.033 A 
ATOM      3  C   UNL     1       0.571  -0.742  -1.173  0.00  0.00    +0.050 A 
ATOM      4  C   UNL     1       0.214  -2.087  -1.192  0.00  0.00    +0.122 A 
ATOM      5  C   UNL     1      -0.022  -2.771  -0.009  0.00  0.00    +0.020 A 
ATOM      6  C   UNL     1       0.096  -2.113   1.208  0.00  0.00    +0.145 A 
ATOM      7  C   UNL     1       0.461  -0.757   1.214  0.00  0.00    +0.071 A 
ATOM      8  C   UNL     1       0.511  -0.346   2.630  0.00  0.00    +0.232 C 
ATOM      9  O   UNL     1       0.783   0.754   3.078  0.00  0.00    -0.283 OA
ATOM     10  C   UNL     1       0.156  -1.562   3.379  0.00  0.00    +0.176 C 
ATOM     11  C   UNL     1       0.069  -1.676   4.727  0.00  0.00    +0.058 C 
ATOM     12  O   UNL     1      -0.078  -2.544   2.477  0.00  0.00    -0.451 OA
ENDROOT
BRANCH  11  13
ATOM     13  C   UNL     1       0.171  -0.479   5.574  0.00  0.00    -0.019 A 
ATOM     14  C   UNL     1      -0.449   0.714   5.184  0.00  0.00    +0.008 A 
ATOM     15  C   UNL     1      -0.349   1.832   5.984  0.00  0.00    +0.003 A 
ATOM     16  C   UNL     1       0.363   1.778   7.170  0.00  0.00    +0.033 A 
ATOM     17  C   UNL     1       0.979   0.602   7.563  0.00  0.00    +0.127 A 
ATOM     18  C   UNL     1       0.884  -0.527   6.777  0.00  0.00    +0.040 A 
BRANCH  17  19
ATOM     19  N   UNL     1       1.738   0.556   8.833  0.00  0.00    +0.056 N 
ATOM     20  O   UNL     1       1.819   1.543   9.525  0.00  0.00    -0.126 OA
ATOM     21  O   UNL     1       2.277  -0.470   9.178  0.00  0.00    -0.126 OA
ENDBRANCH  17  19
ENDBRANCH  11  13
BRANCH   4  22
ATOM     22  O   UNL     1       0.097  -2.736  -2.378  0.00  0.00    -0.506 OA
ATOM     23  H   UNL     1       0.916  -3.150  -2.683  0.00  0.00    +0.292 HD
ENDBRANCH   4  22
BRANCH   5  24
ATOM     24  C   UNL     1      -0.408  -4.227  -0.045  0.00  0.00    -0.036 C 
BRANCH  24  25
ATOM     25  N   UNL     1       0.804  -5.056   0.006  0.00  0.00    +0.383 N 
ATOM     26  C   UNL     1       1.602  -4.827  -1.205  0.00  0.00    -0.075 C 
ATOM     27  C   UNL     1       2.904  -5.626  -1.120  0.00  0.00    -0.031 C 
ATOM     28  C   UNL     1       2.575  -7.117  -0.998  0.00  0.00    +0.003 C 
ATOM     29  C   UNL     1       1.681  -7.333   0.227  0.00  0.00    -0.031 C 
ATOM     30  C   UNL     1       0.424  -6.471   0.092  0.00  0.00    -0.075 C 
ATOM     31  C   UNL     1       2.442  -6.934   1.492  0.00  0.00    +0.005 C 
ATOM     32  C   UNL     1       3.734  -5.387  -2.383  0.00  0.00    +0.005 C 
ATOM     33  H   UNL     1       1.348  -4.805   0.817  0.00  0.00    -0.081 HD
ENDBRANCH  24  25
ENDBRANCH   5  24
TORSDOF 5
