REMARK  Name = ZINC12881212
REMARK  5 active torsions:
REMARK  status: ('A' for Active; 'I' for Inactive)
REMARK    1  A    between atoms: C_4  and  C_7
REMARK    2  A    between atoms: C_7  and  C_8
REMARK    3  A    between atoms: C_8  and  N_9
REMARK    4  A    between atoms: C_14  and  C_30
REMARK    5  A    between atoms: C_30  and  C_31
REMARK                            x       y       z     vdW  Elec       q    Type
REMARK                         _______ _______ _______ _____ _____    ______ ____
ROOT
ATOM      1  N   UNL     1       3.881  -0.970   2.227  0.00  0.00    -0.241 N 
ATOM      2  C   UNL     1       4.096  -2.004   1.406  0.00  0.00    +0.224 C 
ATOM      3  O   UNL     1       5.147  -2.594   1.283  0.00  0.00    -0.275 OA
ATOM      4  C   UNL     1       2.822  -2.322   0.655  0.00  0.00    +0.073 C 
ATOM      5  C   UNL     1       3.006  -1.954  -0.833  0.00  0.00    -0.053 C 
ATOM      6  C   UNL     1       1.449  -0.416  -0.016  0.00  0.00    +0.050 C 
ATOM      7  C   UNL     1       1.799  -1.286   1.197  0.00  0.00    +0.088 C 
ATOM      8  C   UNL     1       2.635  -0.482   2.191  0.00  0.00    +0.225 C 
ATOM      9  O   UNL     1       2.230   0.452   2.849  0.00  0.00    -0.275 OA
ATOM     10  C   UNL     1       2.222   0.872  -0.015  0.00  0.00    -0.028 A 
ATOM     11  C   UNL     1       3.566   1.171  -0.024  0.00  0.00    +0.004 A 
ATOM     12  C   UNL     1       3.982   2.490  -0.021  0.00  0.00    +0.000 A 
ATOM     13  C   UNL     1       3.045   3.507  -0.008  0.00  0.00    +0.002 A 
ATOM     14  C   UNL     1       1.697   3.213   0.002  0.00  0.00    +0.023 A 
ATOM     15  C   UNL     1       1.270   1.887   0.000  0.00  0.00    +0.036 A 
ATOM     16  N   UNL     1      -0.016   1.343   0.009  0.00  0.00    -0.286 N 
ATOM     17  C   UNL     1       0.002  -0.004   0.002  0.00  0.00    +0.211 C 
ATOM     18  O   UNL     1      -0.961  -0.741   0.009  0.00  0.00    -0.277 OA
ATOM     19  H   UNL     1      -0.828   1.873   0.016  0.00  0.00    +0.155 HD
ATOM     20  N   UNL     1       1.779  -1.231  -1.173  0.00  0.00    +0.394 N 
ATOM     21  H   UNL     1       1.019  -1.893  -1.369  0.00  0.00    -0.083 HD
ATOM     22  H   UNL     1       1.934  -0.634  -1.994  0.00  0.00    -0.083 HD
ENDROOT
BRANCH   1  23
ATOM     23  C   UNL     1       4.924  -0.417   3.095  0.00  0.00    +0.121 C 
BRANCH  23  24
ATOM     24  C   UNL     1       5.674   0.688   2.349  0.00  0.00    +0.054 C 
BRANCH  24  28
ATOM     25  C   UNL     1       8.716   2.300   4.878  0.00  0.00    +0.000 A 
ATOM     26  C   UNL     1       9.000   1.230   4.051  0.00  0.00    +0.000 A 
ATOM     27  C   UNL     1       8.016   0.708   3.233  0.00  0.00    +0.004 A 
ATOM     28  C   UNL     1       6.747   1.257   3.242  0.00  0.00    -0.046 A 
ATOM     29  C   UNL     1       6.464   2.330   4.065  0.00  0.00    +0.004 A 
ATOM     30  C   UNL     1       7.447   2.849   4.887  0.00  0.00    +0.000 A 
ENDBRANCH  24  28
ENDBRANCH  23  24
ENDBRANCH   1  23
BRANCH   5  31
ATOM     31  C   UNL     1       3.161  -3.220  -1.679  0.00  0.00    +0.020 C 
BRANCH  31  32
ATOM     32  C   UNL     1       3.385  -2.836  -3.120  0.00  0.00    -0.049 A 
ATOM     33  C   UNL     1       2.306  -2.684  -3.970  0.00  0.00    +0.003 A 
ATOM     34  C   UNL     1       2.511  -2.328  -5.290  0.00  0.00    +0.000 A 
ATOM     35  C   UNL     1       3.796  -2.134  -5.762  0.00  0.00    +0.000 A 
ATOM     36  C   UNL     1       4.875  -2.291  -4.912  0.00  0.00    +0.000 A 
ATOM     37  C   UNL     1       4.670  -2.643  -3.591  0.00  0.00    +0.003 A 
ENDBRANCH  31  32
ENDBRANCH   5  31
TORSDOF 5
