REMARK  Name = ZINC01308548
REMARK  13 active torsions:
REMARK  status: ('A' for Active; 'I' for Inactive)
REMARK    1  A    between atoms: C_1  and  C_2
REMARK    2  A    between atoms: C_5  and  C_7
REMARK    3  A    between atoms: C_9  and  C_39
REMARK    4  A    between atoms: C_10  and  S_26
REMARK    5  A    between atoms: C_12  and  C_25
REMARK    6  A    between atoms: C_13  and  C_14
REMARK    7  A    between atoms: N_16  and  C_17
REMARK    8  A    between atoms: C_22  and  O_23
REMARK    9  A    between atoms: O_23  and  C_24
REMARK   10  A    between atoms: S_26  and  C_27
REMARK   11  A    between atoms: C_27  and  C_28
REMARK   12  A    between atoms: N_30  and  C_31
REMARK   13  A    between atoms: C_36  and  C_37
REMARK                            x       y       z     vdW  Elec       q    Type
REMARK                         _______ _______ _______ _____ _____    ______ ____
ROOT
ATOM      1  C   UNL     1       2.397  -3.239  -1.039  0.00  0.00    +0.134 C 
ATOM      2  C   UNL     1       3.266  -3.157  -2.262  0.00  0.00    +0.072 C 
ATOM      3  C   UNL     1       4.551  -2.717  -2.186  0.00  0.00    +0.080 C 
ATOM      4  N   UNL     1       5.090  -2.342  -0.975  0.00  0.00    -0.312 N 
ATOM      5  C   UNL     1       4.494  -2.732   0.194  0.00  0.00    +0.015 C 
ATOM      6  C   UNL     1       3.225  -3.166   0.211  0.00  0.00    +0.047 C 
ATOM      7  C   UNL     1       5.276  -2.671   1.480  0.00  0.00    +0.061 C 
ATOM      8  H   UNL     1       5.894  -1.800  -0.951  0.00  0.00    +0.152 HD
ENDROOT
BRANCH   1  13
ATOM      9  C   UNL     1       0.534   1.448  -1.050  0.00  0.00    +0.086 C 
ATOM     10  C   UNL     1       0.606  -0.057  -1.055  0.00  0.00    +0.102 A 
ATOM     11  C   UNL     1      -0.447  -0.894  -1.076  0.00  0.00    +0.044 A 
ATOM     12  C   UNL     1       0.075  -2.208  -1.073  0.00  0.00    +0.046 A 
ATOM     13  C   UNL     1       1.416  -2.095  -1.051  0.00  0.00    +0.118 A 
ATOM     14  O   UNL     1       1.731  -0.790  -1.046  0.00  0.00    -0.464 OA
ENDBRANCH   1  13
BRANCH   6  15
ATOM     15  C   UNL     1       2.653  -3.568   1.442  0.00  0.00    +0.247 C 
ATOM     16  O   UNL     1       3.311  -3.515   2.465  0.00  0.00    -0.270 OA
ATOM     17  N   UNL     1       1.380  -4.008   1.481  0.00  0.00    -0.279 N 
ATOM     18  H   UNL     1       0.835  -3.990   0.678  0.00  0.00    +0.155 HD
BRANCH  17  19
ATOM     19  C   UNL     1       0.843  -4.493   2.680  0.00  0.00    +0.076 A 
ATOM     20  C   UNL     1       1.222  -3.930   3.890  0.00  0.00    +0.027 A 
ATOM     21  C   UNL     1       0.691  -4.410   5.072  0.00  0.00    +0.002 A 
ATOM     22  C   UNL     1      -0.218  -5.451   5.053  0.00  0.00    +0.004 A 
ATOM     23  C   UNL     1      -0.601  -6.018   3.851  0.00  0.00    +0.047 A 
ATOM     24  C   UNL     1      -0.077  -5.539   2.661  0.00  0.00    +0.141 A 
BRANCH  24  25
ATOM     25  O   UNL     1      -0.457  -6.092   1.478  0.00  0.00    -0.493 OA
ATOM     26  C   UNL     1      -1.404  -7.160   1.535  0.00  0.00    +0.277 C 
ENDBRANCH  24  25
ENDBRANCH  17  19
ENDBRANCH   6  15
BRANCH   2  27
ATOM     27  C   UNL     1       2.732  -3.550  -3.531  0.00  0.00    +0.098 C 
ATOM     28  N   UNL     1       2.309  -3.861  -4.538  0.00  0.00    -0.191 NA
ENDBRANCH   2  27
BRANCH   3  29
ATOM     29  S   UNL     1       5.532  -2.627  -3.646  0.00  0.00    -0.100 S 
BRANCH  29  30
ATOM     30  C   UNL     1       7.131  -2.000  -3.062  0.00  0.00    +0.171 C 
BRANCH  30  31
ATOM     31  C   UNL     1       8.078  -1.874  -4.228  0.00  0.00    +0.227 C 
ATOM     32  O   UNL     1       7.710  -2.177  -5.343  0.00  0.00    -0.275 OA
ATOM     33  N   UNL     1       9.333  -1.424  -4.031  0.00  0.00    -0.285 N 
ATOM     34  H   UNL     1       9.648  -1.243  -3.132  0.00  0.00    +0.155 HD
BRANCH  33  35
ATOM     35  C   UNL     1      10.181  -1.218  -5.125  0.00  0.00    +0.038 A 
ATOM     36  C   UNL     1      10.110  -2.057  -6.229  0.00  0.00    +0.023 A 
ATOM     37  C   UNL     1      10.947  -1.851  -7.308  0.00  0.00    +0.003 A 
ATOM     38  C   UNL     1      11.858  -0.810  -7.288  0.00  0.00    +0.020 A 
ATOM     39  C   UNL     1      11.933   0.028  -6.190  0.00  0.00    +0.046 A 
ATOM     40  C   UNL     1      11.093  -0.170  -5.110  0.00  0.00    -0.011 A 
ATOM     41  C   UNL     1      11.170   0.746  -3.916  0.00  0.00    +0.047 C 
ATOM     42 CL   UNL     1      13.079   1.332  -6.170  0.00  0.00    -0.083 Cl
ENDBRANCH  33  35
ENDBRANCH  30  31
ENDBRANCH  29  30
ENDBRANCH   3  29
TORSDOF 9
