REMARK  Name = ZINC20508210
REMARK  8 active torsions:
REMARK  status: ('A' for Active; 'I' for Inactive)
REMARK    1  A    between atoms: C_5  and  O_7
REMARK    2  A    between atoms: O_7  and  C_8
REMARK    3  A    between atoms: C_8  and  C_9
REMARK    4  A    between atoms: C_12  and  C_14
REMARK    5  A    between atoms: N_16  and  N_17
REMARK    6  A    between atoms: N_17  and  C_18
REMARK    7  A    between atoms: C_18  and  N_20
REMARK    8  A    between atoms: N_20  and  C_21
REMARK                            x       y       z     vdW  Elec       q    Type
REMARK                         _______ _______ _______ _____ _____    ______ ____
ROOT
ATOM      1  C   UNL     1      -2.573   1.352   0.062  0.00  0.00    +0.295 C 
ATOM      2  O   UNL     1      -2.812   0.209   0.407  0.00  0.00    -0.265 OA
ATOM      3  N   UNL     1      -3.557   2.272   0.052  0.00  0.00    -0.229 N 
ATOM      4  H   UNL     1      -3.341   3.305  -0.260  0.00  0.00    +0.173 HD
ENDROOT
BRANCH   1   8
ATOM      5  C   UNL     1       0.490   2.920  -1.041  0.00  0.00    +0.143 A 
ATOM      6  C   UNL     1       0.953   1.668  -0.830  0.00  0.00    +0.049 A 
ATOM      7  C   UNL     1      -0.130   0.897  -0.380  0.00  0.00    +0.055 A 
ATOM      8  C   UNL     1      -1.214   1.726  -0.344  0.00  0.00    +0.191 A 
ATOM      9  O   UNL     1      -0.816   2.952  -0.744  0.00  0.00    -0.452 OA
BRANCH   5  10
ATOM     10  C   UNL     1       1.308   4.088  -1.529  0.00  0.00    +0.303 C 
BRANCH  10  11
ATOM     11  O   UNL     1       1.269   4.133  -2.957  0.00  0.00    -0.483 OA
BRANCH  11  16
ATOM     12  C   UNL     1       3.366   7.071  -3.413  0.00  0.00    +0.004 A 
ATOM     13  C   UNL     1       3.371   7.172  -4.792  0.00  0.00    +0.002 A 
ATOM     14  C   UNL     1       2.672   6.257  -5.558  0.00  0.00    +0.023 A 
ATOM     15  C   UNL     1       1.968   5.237  -4.946  0.00  0.00    +0.083 A 
ATOM     16  C   UNL     1       1.962   5.134  -3.561  0.00  0.00    +0.139 A 
ATOM     17  C   UNL     1       2.658   6.057  -2.796  0.00  0.00    +0.047 A 
ATOM     18 CL   UNL     1       1.091   4.088  -5.907  0.00  0.00    -0.080 Cl
ENDBRANCH  11  16
ENDBRANCH  10  11
ENDBRANCH   5  10
ENDBRANCH   1   8
BRANCH   3  19
ATOM     19  N   UNL     1      -4.855   1.915   0.439  0.00  0.00    -0.245 N 
ATOM     20  H   UNL     1      -5.071   0.882   0.751  0.00  0.00    +0.172 HD
BRANCH  19  21
ATOM     21  C   UNL     1      -5.839   2.835   0.429  0.00  0.00    +0.151 C 
ATOM     22  S   UNL     1      -7.425   2.398   0.903  0.00  0.00    -0.017 S 
BRANCH  21  23
ATOM     23  N   UNL     1      -5.575   4.100   0.047  0.00  0.00    -0.296 N 
ATOM     24  H   UNL     1      -4.543   4.399  -0.189  0.00  0.00    +0.154 HD
BRANCH  23  25
ATOM     25  C   UNL     1      -6.613   5.033  -0.049  0.00  0.00    +0.035 A 
ATOM     26  C   UNL     1      -6.699   5.866  -1.157  0.00  0.00    +0.043 A 
ATOM     27  C   UNL     1      -7.728   6.784  -1.252  0.00  0.00    +0.044 A 
ATOM     28  C   UNL     1      -8.666   6.881  -0.239  0.00  0.00    +0.040 A 
ATOM     29  C   UNL     1      -8.579   6.056   0.868  0.00  0.00    +0.044 A 
ATOM     30  C   UNL     1      -7.555   5.133   0.966  0.00  0.00    +0.043 A 
ATOM     31 CL   UNL     1      -9.758   6.180   2.136  0.00  0.00    -0.083 Cl
ATOM     32 CL   UNL     1      -7.840   7.821  -2.640  0.00  0.00    -0.083 Cl
ENDBRANCH  23  25
ENDBRANCH  21  23
ENDBRANCH  19  21
ENDBRANCH   3  19
TORSDOF 8
