REMARK  Name = ZINC12377958
REMARK  5 active torsions:
REMARK  status: ('A' for Active; 'I' for Inactive)
REMARK    1  A    between atoms: C_1  and  C_2
REMARK    2  A    between atoms: C_2  and  C_32
REMARK    3  A    between atoms: C_6  and  C_22
REMARK    4  A    between atoms: C_11  and  C_13
REMARK    5  A    between atoms: C_25  and  O_28
REMARK                            x       y       z     vdW  Elec       q    Type
REMARK                         _______ _______ _______ _____ _____    ______ ____
ROOT
ATOM      1  C   UNL     1      -0.019   1.526   0.010  0.00  0.00    +0.011 C 
ATOM      2  C   UNL     1       0.002  -0.004   0.002  0.00  0.00    -0.023 C 
ATOM      3  C   UNL     1      -1.431  -0.539   0.041  0.00  0.00    +0.058 C 
ATOM      4  C   UNL     1      -1.409  -2.049   0.077  0.00  0.00    +0.020 C 
ATOM      5  C   UNL     1      -0.393  -2.714   0.667  0.00  0.00    +0.041 C 
ATOM      6  C   UNL     1      -0.342  -4.226   0.717  0.00  0.00    +0.175 C 
ATOM      7  N   UNL     1      -1.642  -4.780   0.361  0.00  0.00    -0.220 N 
ATOM      8  C   UNL     1      -2.630  -4.054  -0.221  0.00  0.00    +0.219 A 
ATOM      9  N   UNL     1      -3.652  -4.839  -0.415  0.00  0.00    -0.193 NA
ATOM     10  C   UNL     1      -3.361  -6.073   0.032  0.00  0.00    +0.185 A 
ATOM     11  N   UNL     1      -2.136  -6.075   0.517  0.00  0.00    -0.147 NA
ATOM     12  N   UNL     1      -2.464  -2.708  -0.507  0.00  0.00    -0.287 N 
ATOM     13  C   UNL     1       0.675  -2.019   1.262  0.00  0.00    +0.164 C 
ATOM     14  O   UNL     1       1.563  -2.646   1.806  0.00  0.00    -0.292 OA
ATOM     15  C   UNL     1       0.742  -0.517   1.242  0.00  0.00    +0.086 C 
ATOM     16  C   UNL     1       0.706  -0.503  -1.262  0.00  0.00    +0.011 C 
ATOM     17  H   UNL     1      -3.074  -2.245  -1.102  0.00  0.00    +0.155 HD
ENDROOT
BRANCH  10  18
ATOM     18  C   UNL     1      -4.273  -7.243  -0.012  0.00  0.00    +0.039 A 
ATOM     19  C   UNL     1      -3.856  -8.474   0.491  0.00  0.00    +0.014 A 
ATOM     20  C   UNL     1      -4.707  -9.559   0.448  0.00  0.00    +0.021 A 
ATOM     21  C   UNL     1      -5.974  -9.427  -0.096  0.00  0.00    +0.042 A 
ATOM     22  C   UNL     1      -6.394  -8.208  -0.598  0.00  0.00    +0.040 A 
ATOM     23  C   UNL     1      -5.552  -7.113  -0.553  0.00  0.00    +0.053 A 
ATOM     24 CL   UNL     1      -6.082  -5.582  -1.175  0.00  0.00    -0.083 Cl
ATOM     25 CL   UNL     1      -7.039 -10.797  -0.148  0.00  0.00    -0.083 Cl
ENDBRANCH  10  18
BRANCH   6  26
ATOM     26  C   UNL     1       0.696  -4.724  -0.256  0.00  0.00    -0.018 A 
ATOM     27  C   UNL     1       0.576  -4.431  -1.602  0.00  0.00    +0.009 A 
ATOM     28  C   UNL     1       1.526  -4.887  -2.496  0.00  0.00    +0.046 A 
ATOM     29  C   UNL     1       2.600  -5.638  -2.042  0.00  0.00    +0.117 A 
ATOM     30  C   UNL     1       2.718  -5.930  -0.691  0.00  0.00    +0.046 A 
ATOM     31  C   UNL     1       1.768  -5.467   0.200  0.00  0.00    +0.009 A 
BRANCH  29  32
ATOM     32  O   UNL     1       3.535  -6.088  -2.920  0.00  0.00    -0.507 OA
ATOM     33  H   UNL     1       4.273  -5.479  -3.055  0.00  0.00    +0.292 HD
ENDBRANCH  29  32
ENDBRANCH   6  26
TORSDOF 3
