REMARK  Name = ZINC40451927
REMARK  6 active torsions:
REMARK  status: ('A' for Active; 'I' for Inactive)
REMARK    1  A    between atoms: C_1  and  C_2
REMARK    2  A    between atoms: C_5  and  N_8
REMARK    3  A    between atoms: N_8  and  C_9
REMARK    4  A    between atoms: N_8  and  S_10
REMARK    5  A    between atoms: S_10  and  C_13
REMARK    6  A    between atoms: C_18  and  N_19
REMARK                            x       y       z     vdW  Elec       q    Type
REMARK                         _______ _______ _______ _____ _____    ______ ____
ROOT
ATOM      1  S   UNL     1       3.997  -3.143  -0.020  0.00  0.00    +0.063 S 
ATOM      2  O   UNL     1       5.143  -2.457   0.465  0.00  0.00    -0.153 OA
ATOM      3  O   UNL     1       3.367  -4.186   0.712  0.00  0.00    -0.153 OA
ENDROOT
BRANCH   1   4
ATOM      4  C   UNL     1       4.442  -3.824  -1.583  0.00  0.00    +0.127 A 
ATOM      5  C   UNL     1       5.694  -3.578  -2.113  0.00  0.00    +0.050 A 
ATOM      6  C   UNL     1       6.044  -4.113  -3.340  0.00  0.00    +0.043 A 
ATOM      7  C   UNL     1       5.142  -4.894  -4.040  0.00  0.00    +0.022 A 
ATOM      8  C   UNL     1       3.889  -5.143  -3.516  0.00  0.00    +0.026 A 
ATOM      9  C   UNL     1       3.537  -4.612  -2.281  0.00  0.00    +0.051 A 
ATOM     10 CL   UNL     1       7.618  -3.802  -4.003  0.00  0.00    -0.083 Cl
BRANCH   9  11
ATOM     11  N   UNL     1       2.272  -4.867  -1.745  0.00  0.00    -0.356 N 
ATOM     12  H   UNL     1       2.011  -4.462  -0.903  0.00  0.00    +0.142 HD
ATOM     13  H   UNL     1       1.654  -5.449  -2.215  0.00  0.00    +0.142 HD
ENDBRANCH   9  11
ENDBRANCH   1   4
BRANCH   1  14
ATOM     14  N   UNL     1       2.838  -1.993  -0.298  0.00  0.00    -0.177 NA
ATOM     15  C   UNL     1       3.229  -0.650  -0.732  0.00  0.00    +0.132 C 
BRANCH  14  20
ATOM     16  C   UNL     1       1.112   0.762   2.911  0.00  0.00    +0.007 C 
ATOM     17  C   UNL     1       0.723  -0.379   1.969  0.00  0.00    -0.014 C 
ATOM     18  C   UNL     1       0.959   0.053   0.520  0.00  0.00    +0.005 C 
ATOM     19  C   UNL     1       0.570  -1.088  -0.422  0.00  0.00    +0.021 C 
ATOM     20  C   UNL     1       1.423  -2.320  -0.111  0.00  0.00    +0.080 C 
ATOM     21  C   UNL     1       1.186  -2.751   1.337  0.00  0.00    +0.021 C 
ATOM     22  C   UNL     1       1.575  -1.611   2.280  0.00  0.00    +0.005 C 
ENDBRANCH  14  20
ENDBRANCH   1  14
TORSDOF 4
