REMARK  Name = ZINC40066260
REMARK  12 active torsions:
REMARK  status: ('A' for Active; 'I' for Inactive)
REMARK    1  A    between atoms: C_1  and  C_2
REMARK    2  A    between atoms: C_2  and  C_3
REMARK    3  A    between atoms: C_3  and  C_4
REMARK    4  A    between atoms: C_4  and  C_5
REMARK    5  A    between atoms: C_5  and  C_6
REMARK    6  A    between atoms: C_6  and  O_7
REMARK    7  A    between atoms: O_7  and  C_8
REMARK    8  A    between atoms: C_11  and  C_16
REMARK    9  A    between atoms: C_13  and  O_14
REMARK   10  A    between atoms: O_14  and  C_15
REMARK   11  A    between atoms: C_24  and  C_38
REMARK   12  A    between atoms: C_25  and  C_37
REMARK                            x       y       z     vdW  Elec       q    Type
REMARK                         _______ _______ _______ _____ _____    ______ ____
ROOT
ATOM      1  C   UNL     1       2.581 -10.091  -4.378  0.00  0.00    +0.152 C 
ATOM      2  C   UNL     1       1.294 -10.650  -4.889  0.00  0.00    +0.072 A 
ATOM      3  C   UNL     1       0.546 -10.383  -6.122  0.00  0.00    +0.199 A 
ATOM      4  O   UNL     1       0.996  -9.730  -7.046  0.00  0.00    -0.287 OA
ATOM      5  C   UNL     1      -0.812 -10.984  -6.135  0.00  0.00    +0.065 A 
ATOM      6  C   UNL     1      -1.718 -10.658  -7.144  0.00  0.00    +0.015 A 
ATOM      7  C   UNL     1      -2.967 -11.216  -7.139  0.00  0.00    +0.004 A 
ATOM      8  C   UNL     1      -3.332 -12.103  -6.136  0.00  0.00    -0.044 A 
ATOM      9  C   UNL     1      -2.449 -12.438  -5.135  0.00  0.00    -0.005 A 
ATOM     10  C   UNL     1      -1.169 -11.884  -5.118  0.00  0.00    +0.143 A 
ATOM     11  O   UNL     1      -0.314 -12.234  -4.130  0.00  0.00    -0.449 OA
ATOM     12  C   UNL     1       0.832 -11.545  -3.965  0.00  0.00    +0.199 A 
ATOM     13  C   UNL     1       1.787 -11.585  -2.844  0.00  0.00    +0.289 C 
ATOM     14  O   UNL     1       1.668 -12.280  -1.854  0.00  0.00    -0.266 OA
ATOM     15  N   UNL     1       2.814 -10.740  -3.077  0.00  0.00    -0.232 N 
ATOM     16  C   UNL     1       3.898 -10.521  -2.239  0.00  0.00    +0.168 A 
ATOM     17  N   UNL     1       4.917  -9.708  -2.416  0.00  0.00    -0.233 NA
ATOM     18  C   UNL     1       5.878  -9.612  -1.516  0.00  0.00    +0.120 A 
ATOM     19  C   UNL     1       5.764 -10.386  -0.409  0.00  0.00    +0.068 A 
ATOM     20  S   UNL     1       4.225 -11.226  -0.746  0.00  0.00    -0.060 S 
ATOM     21  C   UNL     1      -2.866 -13.403  -4.055  0.00  0.00    +0.048 C 
ATOM     22  C   UNL     1      -4.712 -12.708  -6.144  0.00  0.00    +0.044 C 
ENDROOT
BRANCH   1  26
ATOM     23  C   UNL     1       2.251  -5.857  -3.871  0.00  0.00    +0.162 A 
ATOM     24  C   UNL     1       1.717  -6.715  -2.922  0.00  0.00    +0.050 A 
ATOM     25  C   UNL     1       1.825  -8.084  -3.089  0.00  0.00    +0.009 A 
ATOM     26  C   UNL     1       2.465  -8.599  -4.201  0.00  0.00    -0.018 A 
ATOM     27  C   UNL     1       3.000  -7.748  -5.151  0.00  0.00    +0.055 A 
ATOM     28  C   UNL     1       2.890  -6.376  -4.993  0.00  0.00    +0.162 A 
BRANCH  28  29
ATOM     29  O   UNL     1       3.410  -5.538  -5.929  0.00  0.00    -0.491 OA
ATOM     30  C   UNL     1       4.052  -6.141  -7.054  0.00  0.00    +0.277 C 
ENDBRANCH  28  29
BRANCH  23  31
ATOM     31  O   UNL     1       2.145  -4.511  -3.708  0.00  0.00    -0.488 OA
BRANCH  31  32
ATOM     32  C   UNL     1       1.476  -4.051  -2.532  0.00  0.00    +0.229 C 
BRANCH  32  33
ATOM     33  C   UNL     1       1.455  -2.521  -2.524  0.00  0.00    +0.041 C 
BRANCH  33  34
ATOM     34  C   UNL     1       0.739  -2.027  -1.265  0.00  0.00    +0.003 C 
BRANCH  34  35
ATOM     35  C   UNL     1       0.718  -0.497  -1.257  0.00  0.00    -0.000 C 
BRANCH  35  37
ATOM     36  C   UNL     1      -0.019   1.526   0.010  0.00  0.00    +0.004 C 
ATOM     37  C   UNL     1       0.002  -0.004   0.002  0.00  0.00    -0.003 C 
ENDBRANCH  35  37
ENDBRANCH  34  35
ENDBRANCH  33  34
ENDBRANCH  32  33
ENDBRANCH  31  32
ENDBRANCH  23  31
ENDBRANCH   1  26
TORSDOF 8
