REMARK  Name = ZINC09816148
REMARK  10 active torsions:
REMARK  status: ('A' for Active; 'I' for Inactive)
REMARK    1  A    between atoms: C_1  and  C_2
REMARK    2  A    between atoms: C_6  and  N_8
REMARK    3  A    between atoms: C_9  and  C_33
REMARK    4  A    between atoms: C_12  and  S_13
REMARK    5  A    between atoms: S_13  and  C_14
REMARK    6  A    between atoms: C_14  and  C_16
REMARK    7  A    between atoms: C_14  and  C_17
REMARK    8  A    between atoms: N_19  and  C_20
REMARK    9  A    between atoms: C_23  and  N_30
REMARK   10  A    between atoms: C_25  and  C_26
REMARK                            x       y       z     vdW  Elec       q    Type
REMARK                         _______ _______ _______ _____ _____    ______ ____
ROOT
ATOM      1  C   UNL     1      -0.014   1.209   0.005  0.00  0.00    +0.230 C 
ATOM      2  O   UNL     1       0.003  -0.004   0.005  0.00  0.00    -0.274 OA
ATOM      3  N   UNL     1      -1.191   1.867   0.018  0.00  0.00    -0.284 N 
ATOM      4  H   UNL     1      -1.205   2.833   0.099  0.00  0.00    +0.155 HD
ENDROOT
BRANCH   3   5
ATOM      5  C   UNL     1      -2.391   1.155  -0.086  0.00  0.00    +0.045 A 
ATOM      6  C   UNL     1      -2.411  -0.091  -0.699  0.00  0.00    +0.026 A 
ATOM      7  C   UNL     1      -3.597  -0.791  -0.800  0.00  0.00    +0.034 A 
ATOM      8  C   UNL     1      -4.765  -0.252  -0.291  0.00  0.00    +0.127 A 
ATOM      9  C   UNL     1      -4.748   0.989   0.320  0.00  0.00    +0.047 A 
ATOM     10  C   UNL     1      -3.564   1.691   0.428  0.00  0.00    +0.078 A 
BRANCH  10  11
ATOM     11  C   UNL     1      -3.546   3.040   1.100  0.00  0.00    +0.419 C 
ATOM     12  F   UNL     1      -4.837   3.363   1.532  0.00  0.00    -0.166 F 
ATOM     13  F   UNL     1      -2.682   3.002   2.200  0.00  0.00    -0.166 F 
ATOM     14  F   UNL     1      -3.103   4.007   0.192  0.00  0.00    -0.166 F 
ENDBRANCH  10  11
BRANCH   8  15
ATOM     15  N   UNL     1      -6.035  -1.004  -0.401  0.00  0.00    +0.056 N 
ATOM     16  O   UNL     1      -6.050  -2.097  -0.939  0.00  0.00    -0.126 OA
ATOM     17  O   UNL     1      -7.064  -0.530   0.046  0.00  0.00    -0.126 OA
ENDBRANCH   8  15
ENDBRANCH   3   5
BRANCH   1  18
ATOM     18  C   UNL     1       1.280   1.980  -0.015  0.00  0.00    +0.137 C 
ATOM     19  C   UNL     1       1.568   2.457  -1.440  0.00  0.00    +0.029 C 
BRANCH  18  20
ATOM     20  S   UNL     1       2.628   0.912   0.548  0.00  0.00    -0.073 S 
BRANCH  20  25
ATOM     21  N   UNL     1       5.247   1.826   0.932  0.00  0.00    -0.274 N 
ATOM     22  C   UNL     1       5.906   3.019   0.790  0.00  0.00    +0.135 A 
ATOM     23  N   UNL     1       5.033   3.897   0.382  0.00  0.00    -0.133 NA
ATOM     24  N   UNL     1       3.880   3.346   0.251  0.00  0.00    -0.122 NA
ATOM     25  C   UNL     1       3.951   2.075   0.571  0.00  0.00    +0.197 A 
ATOM     26  C   UNL     1       7.366   3.271   1.063  0.00  0.00    +0.088 C 
BRANCH  21  32
ATOM     27  C   UNL     1       5.440  -1.798   4.252  0.00  0.00    +0.044 C 
ATOM     28  C   UNL     1       5.900  -1.174   2.960  0.00  0.00    -0.048 A 
ATOM     29  C   UNL     1       6.859  -1.807   2.190  0.00  0.00    +0.003 A 
ATOM     30  C   UNL     1       7.285  -1.237   1.004  0.00  0.00    +0.002 A 
ATOM     31  C   UNL     1       6.753  -0.033   0.585  0.00  0.00    +0.026 A 
ATOM     32  C   UNL     1       5.790   0.604   1.355  0.00  0.00    +0.050 A 
ATOM     33  C   UNL     1       5.369   0.032   2.548  0.00  0.00    +0.029 A 
ENDBRANCH  21  32
ENDBRANCH  20  25
ENDBRANCH  18  20
ENDBRANCH   1  18
TORSDOF 7
