REMARK  Name = ZINC49117593
REMARK  6 active torsions:
REMARK  status: ('A' for Active; 'I' for Inactive)
REMARK    1  A    between atoms: C_1  and  C_2
REMARK    2  A    between atoms: C_2  and  C_3
REMARK    3  A    between atoms: C_9  and  N_11
REMARK    4  A    between atoms: N_11  and  S_12
REMARK    5  A    between atoms: S_12  and  C_15
REMARK    6  A    between atoms: C_19  and  N_21
REMARK                            x       y       z     vdW  Elec       q    Type
REMARK                         _______ _______ _______ _____ _____    ______ ____
ROOT
ATOM      1  S   UNL     1       0.158  -3.801  -1.463  0.00  0.00    +0.059 S 
ATOM      2  O   UNL     1       0.619  -3.900  -2.804  0.00  0.00    -0.153 OA
ATOM      3  O   UNL     1       1.044  -3.760  -0.354  0.00  0.00    -0.153 OA
ENDROOT
BRANCH   1   4
ATOM      4  C   UNL     1      -0.918  -5.171  -1.199  0.00  0.00    +0.107 A 
ATOM      5  C   UNL     1      -1.139  -5.637   0.084  0.00  0.00    +0.030 A 
ATOM      6  C   UNL     1      -1.982  -6.713   0.297  0.00  0.00    +0.024 A 
ATOM      7  C   UNL     1      -2.606  -7.326  -0.773  0.00  0.00    +0.062 A 
ATOM      8  C   UNL     1      -2.385  -6.859  -2.064  0.00  0.00    +0.045 A 
ATOM      9  C   UNL     1      -1.543  -5.775  -2.272  0.00  0.00    +0.052 A 
ATOM     10 CL   UNL     1      -3.663  -8.677  -0.506  0.00  0.00    -0.082 Cl
BRANCH   8  11
ATOM     11  N   UNL     1      -3.014  -7.476  -3.149  0.00  0.00    -0.357 N 
ATOM     12  H   UNL     1      -3.606  -8.231  -3.001  0.00  0.00    +0.142 HD
ATOM     13  H   UNL     1      -2.860  -7.149  -4.049  0.00  0.00    +0.142 HD
ENDBRANCH   8  11
ENDBRANCH   1   4
BRANCH   1  14
ATOM     14  N   UNL     1      -0.767  -2.429  -1.381  0.00  0.00    -0.187 NA
ATOM     15  H   UNL     1      -0.880  -1.873  -2.167  0.00  0.00    +0.148 HD
BRANCH  14  21
ATOM     16  C   UNL     1      -1.433  -0.534   0.013  0.00  0.00    +0.007 C 
ATOM     17  C   UNL     1      -2.110  -0.145   1.329  0.00  0.00    +0.005 C 
ATOM     18  C   UNL     1      -3.546  -0.675   1.340  0.00  0.00    +0.000 C 
ATOM     19  C   UNL     1      -3.528  -2.199   1.206  0.00  0.00    +0.002 C 
ATOM     20  C   UNL     1      -2.851  -2.587  -0.110  0.00  0.00    +0.020 C 
ATOM     21  C   UNL     1      -1.416  -2.058  -0.121  0.00  0.00    +0.080 C 
BRANCH  16  23
ATOM     22  C   UNL     1      -0.019   1.526   0.010  0.00  0.00    +0.004 C 
ATOM     23  C   UNL     1       0.002  -0.004   0.002  0.00  0.00    +0.002 C 
ENDBRANCH  16  23
ENDBRANCH  14  21
ENDBRANCH   1  14
TORSDOF 5
