REMARK  Name = ZINC12767470
REMARK  15 active torsions:
REMARK  status: ('A' for Active; 'I' for Inactive)
REMARK    1  A    between atoms: C_1  and  C_2
REMARK    2  A    between atoms: C_2  and  C_3
REMARK    3  A    between atoms: C_2  and  C_4
REMARK    4  A    between atoms: C_4  and  C_6
REMARK    5  A    between atoms: C_4  and  N_22
REMARK    6  A    between atoms: N_8  and  C_9
REMARK    7  A    between atoms: C_9  and  C_10
REMARK    8  A    between atoms: C_10  and  C_12
REMARK    9  A    between atoms: C_10  and  N_61
REMARK   10  A    between atoms: C_17  and  O_18
REMARK   11  A    between atoms: O_18  and  C_19
REMARK   12  A    between atoms: C_20  and  N_61
REMARK   13  A    between atoms: C_21  and  N_61
REMARK   14  A    between atoms: N_22  and  S_23
REMARK   15  A    between atoms: S_23  and  C_26
REMARK                            x       y       z     vdW  Elec       q    Type
REMARK                         _______ _______ _______ _____ _____    ______ ____
ROOT
ATOM      1  C   UNL     1      -1.968   2.097  -0.331  0.00  0.00    +0.232 C 
ATOM      2  O   UNL     1      -2.913   1.342  -0.407  0.00  0.00    -0.274 OA
ATOM      3  N   UNL     1      -0.717   1.604  -0.234  0.00  0.00    -0.315 N 
ATOM      4  H   UNL     1       0.032   2.204  -0.098  0.00  0.00    +0.149 HD
ENDROOT
BRANCH   1   5
ATOM      5  C   UNL     1      -2.190   3.588  -0.343  0.00  0.00    +0.165 C 
BRANCH   5   7
ATOM      6  C   UNL     1      -2.539   3.519  -2.816  0.00  0.00    +0.009 C 
ATOM      7  C   UNL     1      -1.732   4.161  -1.686  0.00  0.00    +0.010 C 
ATOM      8  C   UNL     1      -1.953   5.675  -1.696  0.00  0.00    +0.009 C 
ENDBRANCH   5   7
BRANCH   5   9
ATOM      9  N   UNL     1      -3.615   3.870  -0.153  0.00  0.00    -0.178 NA
ATOM     10  H   UNL     1      -4.215   3.873  -0.915  0.00  0.00    +0.149 HD
BRANCH   9  11
ATOM     11  S   UNL     1      -4.202   4.184   1.364  0.00  0.00    +0.059 S 
ATOM     12  O   UNL     1      -5.581   4.489   1.211  0.00  0.00    -0.153 OA
ATOM     13  O   UNL     1      -3.742   3.134   2.203  0.00  0.00    -0.153 OA
BRANCH  11  14
ATOM     14  C   UNL     1      -3.420   5.659   1.929  0.00  0.00    +0.105 A 
ATOM     15  C   UNL     1      -2.293   5.582   2.725  0.00  0.00    +0.030 A 
ATOM     16  C   UNL     1      -1.676   6.738   3.164  0.00  0.00    +0.022 A 
ATOM     17  C   UNL     1      -2.194   7.973   2.816  0.00  0.00    +0.041 A 
ATOM     18  C   UNL     1      -3.325   8.050   2.024  0.00  0.00    +0.022 A 
ATOM     19  C   UNL     1      -3.938   6.893   1.581  0.00  0.00    +0.030 A 
ATOM     20 CL   UNL     1      -1.423   9.426   3.373  0.00  0.00    -0.084 Cl
ENDBRANCH  11  14
ENDBRANCH   9  11
ENDBRANCH   5   9
ENDBRANCH   1   5
BRANCH   3  21
ATOM     21  C   UNL     1      -0.489   0.161  -0.342  0.00  0.00    +0.093 C 
BRANCH  21  22
ATOM     22  C   UNL     1       1.015  -0.121  -0.318  0.00  0.00    -0.017 C 
BRANCH  22  23
ATOM     23  C   UNL     1       1.575   0.261   1.028  0.00  0.00    -0.018 A 
ATOM     24  C   UNL     1       2.146   1.506   1.212  0.00  0.00    +0.005 A 
ATOM     25  C   UNL     1       2.656   1.858   2.447  0.00  0.00    +0.000 A 
ATOM     26  C   UNL     1       2.606   0.962   3.500  0.00  0.00    +0.004 A 
ATOM     27  C   UNL     1       2.041  -0.285   3.320  0.00  0.00    +0.046 A 
ATOM     28  C   UNL     1       1.524  -0.640   2.082  0.00  0.00    +0.122 A 
BRANCH  28  29
ATOM     29  O   UNL     1       0.968  -1.867   1.903  0.00  0.00    -0.495 OA
ATOM     30  C   UNL     1       0.950  -2.742   3.032  0.00  0.00    +0.277 C 
ENDBRANCH  28  29
ENDBRANCH  22  23
BRANCH  22  33
ATOM     31  C   UNL     1       3.092   0.289  -1.492  0.00  0.00    -0.096 C 
ATOM     32  C   UNL     1       0.979   0.528  -2.650  0.00  0.00    -0.096 C 
ATOM     33  N   UNL     1       1.677   0.694  -1.358  0.00  0.00    +0.382 N 
ATOM     34  H   UNL     1       1.638   1.682  -1.082  0.00  0.00    -0.082 HD
ENDBRANCH  22  33
ENDBRANCH  21  22
ENDBRANCH   3  21
TORSDOF 10
