REMARK  Name = ZINC58943881
REMARK  9 active torsions:
REMARK  status: ('A' for Active; 'I' for Inactive)
REMARK    1  A    between atoms: C_1  and  O_2
REMARK    2  A    between atoms: O_2  and  C_3
REMARK    3  A    between atoms: C_6  and  N_9
REMARK    4  A    between atoms: N_11  and  C_29
REMARK    5  A    between atoms: C_15  and  C_18
REMARK    6  A    between atoms: N_20  and  C_21
REMARK    7  A    between atoms: C_29  and  C_30
REMARK    8  A    between atoms: C_30  and  O_32
REMARK    9  A    between atoms: O_32  and  C_33
REMARK                            x       y       z     vdW  Elec       q    Type
REMARK                         _______ _______ _______ _____ _____    ______ ____
ROOT
ATOM      1  N   UNL     1      -4.853  -2.550   0.015  0.00  0.00    -0.226 NA
ATOM      2  C   UNL     1      -5.069  -3.570  -0.780  0.00  0.00    +0.164 C 
ATOM      3  N   UNL     1      -6.285  -4.231  -0.791  0.00  0.00    -0.240 N 
ATOM      4  C   UNL     1      -6.477  -5.429  -1.321  0.00  0.00    +0.223 C 
ATOM      5  O   UNL     1      -7.569  -5.921  -1.127  0.00  0.00    -0.275 OA
ATOM      6  C   UNL     1      -5.531  -6.253  -2.124  0.00  0.00    +0.120 C 
ATOM      7  C   UNL     1      -4.068  -5.962  -1.785  0.00  0.00    +0.149 C 
ATOM      8  S   UNL     1      -3.818  -4.155  -1.892  0.00  0.00    -0.077 S 
ENDROOT
BRANCH   1  12
ATOM      9  C   UNL     1      -1.187  -0.623  -0.036  0.00  0.00    +0.120 A 
ATOM     10  C   UNL     1      -2.359   0.120  -0.028  0.00  0.00    +0.048 A 
ATOM     11  C   UNL     1      -3.582  -0.517  -0.011  0.00  0.00    +0.031 A 
ATOM     12  C   UNL     1      -3.640  -1.912  -0.003  0.00  0.00    +0.067 A 
ATOM     13  C   UNL     1      -2.458  -2.655  -0.011  0.00  0.00    +0.031 A 
ATOM     14  C   UNL     1      -1.240  -2.010  -0.034  0.00  0.00    +0.048 A 
BRANCH   9  16
ATOM     15  C   UNL     1      -0.001   1.438  -0.054  0.00  0.00    +0.277 C 
ATOM     16  O   UNL     1       0.017   0.010  -0.052  0.00  0.00    -0.495 OA
ENDBRANCH   9  16
ENDBRANCH   1  12
BRANCH   7  17
ATOM     17  C   UNL     1      -3.167  -6.660  -2.770  0.00  0.00    +0.231 C 
ATOM     18  O   UNL     1      -3.508  -6.773  -3.929  0.00  0.00    -0.274 OA
ATOM     19  N   UNL     1      -1.983  -7.160  -2.364  0.00  0.00    -0.284 N 
ATOM     20  H   UNL     1      -1.680  -7.011  -1.455  0.00  0.00    +0.155 HD
BRANCH  19  21
ATOM     21  C   UNL     1      -1.190  -7.892  -3.255  0.00  0.00    +0.036 A 
ATOM     22  C   UNL     1      -0.438  -8.965  -2.795  0.00  0.00    +0.043 A 
ATOM     23  C   UNL     1       0.344  -9.687  -3.677  0.00  0.00    +0.044 A 
ATOM     24  C   UNL     1       0.378  -9.342  -5.016  0.00  0.00    +0.040 A 
ATOM     25  C   UNL     1      -0.370  -8.272  -5.477  0.00  0.00    +0.044 A 
ATOM     26  C   UNL     1      -1.158  -7.550  -4.600  0.00  0.00    +0.043 A 
ATOM     27 CL   UNL     1      -0.324  -7.842  -7.158  0.00  0.00    -0.083 Cl
ATOM     28 CL   UNL     1       1.285 -11.029  -3.103  0.00  0.00    -0.083 Cl
ENDBRANCH  19  21
ENDBRANCH   7  17
BRANCH   3  29
ATOM     29  C   UNL     1      -7.434  -3.562  -0.175  0.00  0.00    +0.236 C 
BRANCH  29  30
ATOM     30  C   UNL     1      -8.145  -2.729  -1.210  0.00  0.00    +0.325 C 
ATOM     31  O   UNL     1      -7.734  -2.698  -2.346  0.00  0.00    -0.249 OA
BRANCH  30  32
ATOM     32  O   UNL     1      -9.234  -2.022  -0.871  0.00  0.00    -0.467 OA
ATOM     33  C   UNL     1      -9.858  -1.256  -1.903  0.00  0.00    +0.280 C 
ENDBRANCH  30  32
ENDBRANCH  29  30
ENDBRANCH   3  29
TORSDOF 7
