REMARK  Name = ZINC04113663
REMARK  7 active torsions:
REMARK  status: ('A' for Active; 'I' for Inactive)
REMARK    1  A    between atoms: C_1  and  C_2
REMARK    2  A    between atoms: C_3  and  C_4
REMARK    3  A    between atoms: C_4  and  O_5
REMARK    4  A    between atoms: O_5  and  C_6
REMARK    5  A    between atoms: C_6  and  C_8
REMARK    6  A    between atoms: C_9  and  C_23
REMARK    7  A    between atoms: C_14  and  C_16
REMARK                            x       y       z     vdW  Elec       q    Type
REMARK                         _______ _______ _______ _____ _____    ______ ____
ROOT
ATOM      1  C   UNL     1      -0.025   1.700   2.400  0.00  0.00    +0.078 C 
ATOM      2  C   UNL     1      -0.719   1.569   1.249  0.00  0.00    +0.021 C 
ATOM      3  N   UNL     1      -2.047   1.878   1.188  0.00  0.00    -0.273 N 
ATOM      4  C   UNL     1      -2.757   2.314   2.236  0.00  0.00    +0.304 C 
ATOM      5  O   UNL     1      -3.938   2.559   2.086  0.00  0.00    -0.252 OA
ATOM      6  N   UNL     1      -2.203   2.495   3.452  0.00  0.00    -0.288 N 
ATOM      7  C   UNL     1      -0.772   2.195   3.621  0.00  0.00    +0.143 C 
ATOM      8  C   UNL     1      -0.014   1.080   0.009  0.00  0.00    +0.061 C 
ATOM      9  H   UNL     1      -2.504   1.772   0.339  0.00  0.00    +0.156 HD
ATOM     10  H   UNL     1      -2.735   2.816   4.197  0.00  0.00    +0.151 HD
ENDROOT
BRANCH   7  11
ATOM     11  C   UNL     1      -0.641   1.151   4.700  0.00  0.00    -0.022 A 
ATOM     12  C   UNL     1      -1.454   0.033   4.682  0.00  0.00    +0.007 A 
ATOM     13  C   UNL     1      -1.332  -0.927   5.668  0.00  0.00    +0.020 A 
ATOM     14  C   UNL     1      -0.403  -0.764   6.680  0.00  0.00    +0.041 A 
ATOM     15  C   UNL     1       0.407   0.358   6.701  0.00  0.00    +0.020 A 
ATOM     16  C   UNL     1       0.287   1.315   5.711  0.00  0.00    +0.007 A 
ATOM     17 CL   UNL     1      -0.253  -1.966   7.924  0.00  0.00    -0.084 Cl
ENDBRANCH   7  11
BRANCH   1  18
ATOM     18  C   UNL     1       1.353   1.384   2.463  0.00  0.00    +0.339 C 
ATOM     19  O   UNL     1       1.954   1.078   1.450  0.00  0.00    -0.245 OA
BRANCH  18  20
ATOM     20  O   UNL     1       2.000   1.423   3.646  0.00  0.00    -0.457 OA
BRANCH  20  21
ATOM     21  C   UNL     1       3.391   1.093   3.636  0.00  0.00    +0.260 C 
BRANCH  21  24
ATOM     22  C   UNL     1       5.271   0.344   6.900  0.00  0.00    +0.035 C 
ATOM     23  C   UNL     1       4.721   0.247   5.500  0.00  0.00    -0.031 C 
ATOM     24  C   UNL     1       3.940   1.190   5.036  0.00  0.00    +0.009 C 
ENDBRANCH  21  24
ENDBRANCH  20  21
ENDBRANCH  18  20
ENDBRANCH   1  18
TORSDOF 5
