REMARK  Name = ZINC24875814
REMARK  9 active torsions:
REMARK  status: ('A' for Active; 'I' for Inactive)
REMARK    1  A    between atoms: C_4  and  O_33
REMARK    2  A    between atoms: C_5  and  C_7
REMARK    3  A    between atoms: C_7  and  N_8
REMARK    4  A    between atoms: C_11  and  N_14
REMARK    5  A    between atoms: N_14  and  C_15
REMARK    6  A    between atoms: C_15  and  C_16
REMARK    7  A    between atoms: C_16  and  N_17
REMARK    8  A    between atoms: C_22  and  C_24
REMARK    9  A    between atoms: O_33  and  C_34
REMARK                            x       y       z     vdW  Elec       q    Type
REMARK                         _______ _______ _______ _____ _____    ______ ____
ROOT
ATOM      1  N   UNL     1       2.516  -0.827   2.705  0.00  0.00    -0.296 N 
ATOM      2  C   UNL     1       2.335   0.025   3.734  0.00  0.00    +0.250 C 
ATOM      3  O   UNL     1       3.182   0.118   4.601  0.00  0.00    -0.270 OA
ENDROOT
BRANCH   2   4
ATOM      4  C   UNL     1       1.110   0.844   3.807  0.00  0.00    +0.075 A 
ATOM      5  C   UNL     1       0.478   1.268   2.635  0.00  0.00    +0.057 A 
ATOM      6  C   UNL     1      -0.667   2.033   2.709  0.00  0.00    +0.159 A 
ATOM      7  C   UNL     1      -1.193   2.382   3.947  0.00  0.00    +0.161 A 
ATOM      8  C   UNL     1      -0.572   1.966   5.112  0.00  0.00    +0.080 A 
ATOM      9  C   UNL     1       0.573   1.194   5.050  0.00  0.00    +0.138 A 
ATOM     10  F   UNL     1       1.175   0.783   6.188  0.00  0.00    -0.205 F 
ATOM     11  F   UNL     1      -2.315   3.131   4.014  0.00  0.00    -0.202 F 
ATOM     12  F   UNL     1      -1.278   2.444   1.577  0.00  0.00    -0.202 F 
ENDBRANCH   2   4
BRANCH   1  16
ATOM     13  N   UNL     1       0.523   1.213  -0.396  0.00  0.00    +0.383 N 
ATOM     14  C   UNL     1       1.955   1.497  -0.236  0.00  0.00    -0.077 C 
ATOM     15  C   UNL     1       2.406   1.071   1.163  0.00  0.00    +0.004 C 
ATOM     16  C   UNL     1       2.140  -0.425   1.347  0.00  0.00    +0.073 C 
ATOM     17  C   UNL     1       0.650  -0.701   1.127  0.00  0.00    +0.004 C 
ATOM     18  C   UNL     1       0.249  -0.224  -0.271  0.00  0.00    -0.077 C 
ATOM     19  H   UNL     1      -0.014   1.729   0.413  0.00  0.00    -0.081 HD
BRANCH  13  20
ATOM     20  C   UNL     1       0.023   1.735  -1.676  0.00  0.00    -0.039 C 
BRANCH  20  25
ATOM     21  C   UNL     1      -0.969   5.368  -1.404  0.00  0.00    +0.000 A 
ATOM     22  C   UNL     1       0.233   6.005  -1.654  0.00  0.00    +0.004 A 
ATOM     23  C   UNL     1       1.369   5.263  -1.912  0.00  0.00    +0.046 A 
ATOM     24  C   UNL     1       1.304   3.877  -1.919  0.00  0.00    +0.128 A 
ATOM     25  C   UNL     1       0.097   3.240  -1.668  0.00  0.00    -0.022 A 
ATOM     26  C   UNL     1      -1.037   3.987  -1.416  0.00  0.00    +0.005 A 
BRANCH  24  27
ATOM     27  O   UNL     1       2.420   3.144  -2.173  0.00  0.00    -0.434 OA
BRANCH  27  28
ATOM     28  C   UNL     1       3.627   3.867  -2.423  0.00  0.00    +0.541 C 
ATOM     29  F   UNL     1       3.455   4.690  -3.542  0.00  0.00    -0.166 F 
ATOM     30  F   UNL     1       3.939   4.654  -1.309  0.00  0.00    -0.166 F 
ENDBRANCH  27  28
ENDBRANCH  24  27
ENDBRANCH  20  25
ENDBRANCH  13  20
ENDBRANCH   1  16
BRANCH   1  31
ATOM     31  C   UNL     1       3.090  -2.153   2.944  0.00  0.00    +0.090 C 
BRANCH  31  32
ATOM     32  C   UNL     1       4.617  -2.058   2.938  0.00  0.00    -0.060 C 
BRANCH  32  33
ATOM     33  N   UNL     1       5.191  -3.388   3.177  0.00  0.00    +0.381 N 
ATOM     34  C   UNL     1       4.632  -4.388   2.232  0.00  0.00    -0.079 C 
ATOM     35  C   UNL     1       5.681  -5.529   2.261  0.00  0.00    -0.020 C 
ATOM     36  C   UNL     1       7.020  -4.764   2.366  0.00  0.00    -0.020 C 
ATOM     37  C   UNL     1       6.652  -3.385   2.943  0.00  0.00    -0.079 C 
ATOM     38  H   UNL     1       4.951  -3.634   4.222  0.00  0.00    -0.082 HD
ENDBRANCH  32  33
ENDBRANCH  31  32
ENDBRANCH   1  31
TORSDOF 9
