REMARK  Name = ZINC40824995
REMARK  5 active torsions:
REMARK  status: ('A' for Active; 'I' for Inactive)
REMARK    1  A    between atoms: C_1  and  C_2
REMARK    2  A    between atoms: C_5  and  N_9
REMARK    3  A    between atoms: C_10  and  C_12
REMARK    4  A    between atoms: C_13  and  C_26
REMARK    5  A    between atoms: N_21  and  N_22
REMARK                            x       y       z     vdW  Elec       q    Type
REMARK                         _______ _______ _______ _____ _____    ______ ____
ROOT
ATOM      1  C   UNL     1      -0.130  -6.302  -1.190  0.00  0.00    +0.193 A 
ATOM      2  C   UNL     1      -0.228  -7.096  -2.299  0.00  0.00    +0.009 A 
ATOM      3  C   UNL     1      -0.289  -8.414  -1.833  0.00  0.00    +0.042 A 
ATOM      4  C   UNL     1      -0.228  -8.370  -0.460  0.00  0.00    +0.115 A 
ATOM      5  O   UNL     1      -0.124  -7.095  -0.094  0.00  0.00    -0.454 OA
ATOM      6  C   UNL     1      -0.273  -9.605   0.403  0.00  0.00    +0.075 C 
ATOM      7  C   UNL     1      -0.893 -10.758  -0.391  0.00  0.00    +0.014 C 
ATOM      8  C   UNL     1      -0.171 -10.943  -1.730  0.00  0.00    +0.058 C 
ATOM      9  C   UNL     1      -0.398  -9.694  -2.569  0.00  0.00    +0.072 C 
ATOM     10  N   UNL     1      -0.666  -9.747  -3.837  0.00  0.00    -0.175 NA
ATOM     11  C   UNL     1      -0.263  -6.641  -3.736  0.00  0.00    +0.048 C 
ENDROOT
BRANCH  10  12
ATOM     12  N   UNL     1      -0.756 -10.987  -4.482  0.00  0.00    -0.248 N 
ATOM     13  C   UNL     1      -1.039 -11.043  -5.821  0.00  0.00    +0.187 C 
ATOM     14  N   UNL     1      -1.125 -12.223  -6.435  0.00  0.00    -0.370 N 
ATOM     15  N   UNL     1      -1.229  -9.918  -6.509  0.00  0.00    -0.370 N 
ATOM     16  H   UNL     1      -0.619 -11.806  -3.981  0.00  0.00    +0.192 HD
ATOM     17  H   UNL     1      -1.326 -12.262  -7.383  0.00  0.00    +0.159 HD
ATOM     18  H   UNL     1      -1.166  -9.059  -6.062  0.00  0.00    +0.159 HD
ATOM     19  H   UNL     1      -1.429  -9.957  -7.458  0.00  0.00    +0.159 HD
ATOM     20  H   UNL     1      -0.988 -13.041  -5.934  0.00  0.00    +0.159 HD
ENDBRANCH  10  12
BRANCH   1  22
ATOM     21  N   UNL     1       0.059  -4.170  -0.023  0.00  0.00    -0.278 N 
ATOM     22  C   UNL     1      -0.039  -4.838  -1.189  0.00  0.00    +0.284 C 
ATOM     23  O   UNL     1      -0.053  -4.227  -2.241  0.00  0.00    -0.266 OA
ATOM     24  H   UNL     1       0.136  -4.659   0.811  0.00  0.00    +0.155 HD
BRANCH  21  29
ATOM     25  C   UNL     1       0.025   1.503   0.006  0.00  0.00    +0.044 C 
ATOM     26  C   UNL     1       0.033  -0.004  -0.001  0.00  0.00    -0.049 A 
ATOM     27  C   UNL     1       0.631  -0.685  -1.046  0.00  0.00    +0.005 A 
ATOM     28  C   UNL     1       0.642  -2.066  -1.056  0.00  0.00    +0.025 A 
ATOM     29  C   UNL     1       0.051  -2.771  -0.015  0.00  0.00    +0.048 A 
ATOM     30  C   UNL     1      -0.549  -2.084   1.033  0.00  0.00    +0.039 A 
ATOM     31  C   UNL     1      -0.551  -0.702   1.039  0.00  0.00    +0.020 A 
ATOM     32 BR   UNL     1      -1.356  -3.038   2.452  0.00  0.00    -0.048 Br
ENDBRANCH  21  29
ENDBRANCH   1  22
TORSDOF 3
