REMARK  Name = ZINC60582943
REMARK  10 active torsions:
REMARK  status: ('A' for Active; 'I' for Inactive)
REMARK    1  A    between atoms: C_1  and  C_2
REMARK    2  A    between atoms: C_2  and  C_3
REMARK    3  A    between atoms: C_2  and  N_10
REMARK    4  A    between atoms: C_11  and  C_13
REMARK    5  A    between atoms: C_13  and  C_14
REMARK    6  A    between atoms: C_13  and  S_15
REMARK    7  A    between atoms: S_15  and  C_16
REMARK    8  A    between atoms: C_17  and  C_25
REMARK    9  A    between atoms: C_19  and  C_23
REMARK   10  A    between atoms: C_20  and  N_22
REMARK                            x       y       z     vdW  Elec       q    Type
REMARK                         _______ _______ _______ _____ _____    ______ ____
ROOT
ATOM      1  C   UNL     1       1.128  -0.682   3.598  0.00  0.00    +0.135 C 
ATOM      2  C   UNL     1       1.483  -2.170   3.641  0.00  0.00    +0.029 C 
ENDROOT
BRANCH   1   4
ATOM      3  N   UNL     1       0.837  -0.272   1.176  0.00  0.00    -0.312 N 
ATOM      4  C   UNL     1       0.269  -0.407   2.390  0.00  0.00    +0.226 C 
ATOM      5  O   UNL     1      -0.934  -0.306   2.512  0.00  0.00    -0.275 OA
ATOM      6  H   UNL     1       1.799  -0.353   1.078  0.00  0.00    +0.149 HD
BRANCH   3   8
ATOM      7  C   UNL     1      -0.250   1.501  -0.111  0.00  0.00    +0.028 C 
ATOM      8  C   UNL     1       0.002  -0.004   0.002  0.00  0.00    +0.073 C 
BRANCH   8   9
ATOM      9  C   UNL     1       0.718  -0.497  -1.257  0.00  0.00    +0.012 C 
ATOM     10  C   UNL     1       0.756  -2.043  -1.284  0.00  0.00    +0.009 C 
ATOM     11  C   UNL     1      -0.030  -2.433  -2.573  0.00  0.00    -0.010 C 
ATOM     12  C   UNL     1      -1.513  -2.082  -2.247  0.00  0.00    +0.004 C 
ATOM     13  C   UNL     1      -1.552  -0.536  -2.220  0.00  0.00    +0.004 C 
ATOM     14  C   UNL     1      -0.087  -0.100  -2.531  0.00  0.00    -0.006 C 
ATOM     15  C   UNL     1       0.351  -1.239  -3.518  0.00  0.00    +0.007 C 
ENDBRANCH   8   9
ENDBRANCH   3   8
ENDBRANCH   1   4
BRANCH   1  16
ATOM     16  S   UNL     1       0.218  -0.234   5.102  0.00  0.00    -0.092 S 
BRANCH  16  17
ATOM     17  C   UNL     1       1.391  -0.469   6.395  0.00  0.00    +0.117 A 
ATOM     18  C   UNL     1       1.017  -0.215   7.730  0.00  0.00    +0.085 A 
ATOM     19  C   UNL     1       1.955  -0.405   8.747  0.00  0.00    +0.043 A 
ATOM     20  C   UNL     1       3.234  -0.843   8.395  0.00  0.00    +0.092 A 
ATOM     21  C   UNL     1       3.530  -1.076   7.038  0.00  0.00    +0.135 A 
ATOM     22  N   UNL     1       2.613  -0.889   6.102  0.00  0.00    -0.224 NA
BRANCH  21  23
ATOM     23  N   UNL     1       4.791  -1.508   6.679  0.00  0.00    -0.342 N 
ATOM     24  H   UNL     1       5.467  -1.651   7.361  0.00  0.00    +0.144 HD
ATOM     25  H   UNL     1       5.001  -1.670   5.746  0.00  0.00    +0.144 HD
ENDBRANCH  21  23
BRANCH  20  26
ATOM     26  C   UNL     1       4.231  -1.053   9.402  0.00  0.00    +0.103 C 
ATOM     27  N   UNL     1       5.022  -1.219  10.200  0.00  0.00    -0.191 NA
ENDBRANCH  20  26
BRANCH  18  28
ATOM     28  C   UNL     1      -0.308   0.234   8.039  0.00  0.00    +0.102 C 
ATOM     29  N   UNL     1      -1.358   0.590   8.284  0.00  0.00    -0.191 NA
ENDBRANCH  18  28
ENDBRANCH  16  17
ENDBRANCH   1  16
TORSDOF 8
