REMARK  Name = ZINC22454921
REMARK  2 active torsions:
REMARK  status: ('A' for Active; 'I' for Inactive)
REMARK    1  A    between atoms: C_3  and  C_6
REMARK    2  A    between atoms: N_20  and  C_21
REMARK                            x       y       z     vdW  Elec       q    Type
REMARK                         _______ _______ _______ _____ _____    ______ ____
ROOT
ATOM      1  C   UNL     1      -4.311   6.382   0.001  0.00  0.00    +0.068 C 
ATOM      2  C   UNL     1      -2.912   6.792   0.472  0.00  0.00    +0.068 C 
ATOM      3  C   UNL     1      -1.980   5.616   0.338  0.00  0.00    +0.061 A 
ATOM      4  C   UNL     1      -2.429   4.301   0.252  0.00  0.00    +0.080 A 
ATOM      5  C   UNL     1      -1.255   3.457   0.132  0.00  0.00    +0.156 A 
ATOM      6  N   UNL     1      -0.212   4.259   0.144  0.00  0.00    -0.148 NA
ATOM      7  N   UNL     1      -0.648   5.585   0.272  0.00  0.00    -0.200 N 
ATOM      8  C   UNL     1       0.185   6.702   0.321  0.00  0.00    +0.252 A 
ATOM      9  N   UNL     1      -0.355   7.905   0.439  0.00  0.00    -0.219 NA
ATOM     10  C   UNL     1       0.406   8.986   0.495  0.00  0.00    +0.116 A 
ATOM     11  C   UNL     1       1.783   8.847   0.417  0.00  0.00    +0.039 A 
ATOM     12  C   UNL     1       2.314   7.573   0.289  0.00  0.00    +0.116 A 
ATOM     13  N   UNL     1       1.495   6.535   0.245  0.00  0.00    -0.219 NA
ATOM     14  N   UNL     1      -1.236   2.069   0.019  0.00  0.00    -0.297 N 
ATOM     15  C   UNL     1      -3.857   3.966   0.306  0.00  0.00    +0.169 C 
ATOM     16  O   UNL     1      -4.276   2.859   0.038  0.00  0.00    -0.292 OA
ATOM     17  C   UNL     1      -4.773   5.109   0.718  0.00  0.00    +0.091 C 
ATOM     18  H   UNL     1      -2.171   1.497   0.106  0.00  0.00    +0.154 HD
ENDROOT
BRANCH  14  19
ATOM     19  C   UNL     1      -0.028   1.403  -0.205  0.00  0.00    +0.034 A 
ATOM     20  C   UNL     1       0.145   0.102   0.253  0.00  0.00    +0.025 A 
ATOM     21  C   UNL     1       1.337  -0.556   0.026  0.00  0.00    +0.023 A 
ATOM     22  C   UNL     1       2.360   0.077  -0.658  0.00  0.00    +0.059 A 
ATOM     23  C   UNL     1       2.191   1.373  -1.116  0.00  0.00    +0.061 A 
ATOM     24  C   UNL     1       1.000   2.037  -0.891  0.00  0.00    +0.044 A 
ATOM     25 CL   UNL     1       3.477   2.165  -1.973  0.00  0.00    -0.082 Cl
ATOM     26 CL   UNL     1       3.858  -0.754  -0.942  0.00  0.00    -0.082 Cl
ENDBRANCH  14  19
BRANCH   1  29
ATOM     27  C   UNL     1      -6.780   9.116   0.098  0.00  0.00    +0.041 A 
ATOM     28  C   UNL     1      -6.016   8.162  -0.612  0.00  0.00    +0.045 A 
ATOM     29  C   UNL     1      -5.280   7.497   0.297  0.00  0.00    +0.109 A 
ATOM     30  O   UNL     1      -5.560   7.992   1.514  0.00  0.00    -0.468 OA
ATOM     31  C   UNL     1      -6.465   8.979   1.399  0.00  0.00    +0.195 A 
ENDBRANCH   1  29
TORSDOF 2
