REMARK  Name = ZINC20530099
REMARK  7 active torsions:
REMARK  status: ('A' for Active; 'I' for Inactive)
REMARK    1  A    between atoms: C_1  and  C_2
REMARK    2  A    between atoms: C_8  and  S_13
REMARK    3  A    between atoms: S_13  and  N_16
REMARK    4  A    between atoms: N_16  and  C_17
REMARK    5  A    between atoms: C_20  and  O_23
REMARK    6  A    between atoms: O_23  and  C_24
REMARK    7  A    between atoms: C_28  and  C_30
REMARK                            x       y       z     vdW  Elec       q    Type
REMARK                         _______ _______ _______ _____ _____    ______ ____
ROOT
ATOM      1  S   UNL     1       2.026  -0.872   6.225  0.00  0.00    +0.072 S 
ATOM      2  O   UNL     1       2.359  -1.040   7.596  0.00  0.00    -0.150 OA
ATOM      3  O   UNL     1       0.823  -1.380   5.665  0.00  0.00    -0.150 OA
ENDROOT
BRANCH   1  10
ATOM      4  C   UNL     1       7.427  -4.282   1.190  0.00  0.00    +0.053 C 
ATOM      5  C   UNL     1       6.153  -4.004   1.991  0.00  0.00    +0.188 C 
ATOM      6  C   UNL     1       5.149  -3.243   1.114  0.00  0.00    +0.158 C 
ATOM      7  N   UNL     1       3.964  -2.957   1.940  0.00  0.00    -0.265 N 
ATOM      8  C   UNL     1       4.177  -2.533   3.263  0.00  0.00    +0.080 A 
ATOM      9  C   UNL     1       3.134  -1.987   3.994  0.00  0.00    +0.056 A 
ATOM     10  C   UNL     1       3.349  -1.571   5.295  0.00  0.00    +0.110 A 
ATOM     11  C   UNL     1       4.599  -1.708   5.869  0.00  0.00    +0.032 A 
ATOM     12  C   UNL     1       5.642  -2.254   5.145  0.00  0.00    +0.049 A 
ATOM     13  C   UNL     1       5.438  -2.670   3.837  0.00  0.00    +0.142 A 
ATOM     14  O   UNL     1       6.470  -3.202   3.131  0.00  0.00    -0.486 OA
ATOM     15  C   UNL     1       2.719  -3.096   1.444  0.00  0.00    +0.217 C 
ATOM     16  O   UNL     1       1.758  -2.961   2.172  0.00  0.00    -0.276 OA
ATOM     17  C   UNL     1       2.520  -3.421  -0.014  0.00  0.00    +0.109 C 
ENDBRANCH   1  10
BRANCH   1  18
ATOM     18  N   UNL     1       2.031   0.759   5.934  0.00  0.00    -0.216 N 
ATOM     19  H   UNL     1       2.267   1.462   6.747  0.00  0.00    +0.174 HD
BRANCH  18  20
ATOM     20  C   UNL     1       1.735   1.242   4.654  0.00  0.00    +0.048 A 
ATOM     21  C   UNL     1       0.421   1.265   4.207  0.00  0.00    +0.028 A 
ATOM     22  C   UNL     1       0.130   1.743   2.944  0.00  0.00    +0.048 A 
ATOM     23  C   UNL     1       1.150   2.199   2.123  0.00  0.00    +0.130 A 
ATOM     24  C   UNL     1       2.464   2.172   2.567  0.00  0.00    +0.048 A 
ATOM     25  C   UNL     1       2.756   1.699   3.831  0.00  0.00    +0.028 A 
BRANCH  23  26
ATOM     26  O   UNL     1       0.863   2.670   0.880  0.00  0.00    -0.406 OA
BRANCH  26  27
ATOM     27  C   UNL     1       1.962   3.124   0.088  0.00  0.00    +0.575 C 
ATOM     28  F   UNL     1       2.863   2.071  -0.107  0.00  0.00    -0.133 F 
ATOM     29  F   UNL     1       2.609   4.175   0.747  0.00  0.00    -0.133 F 
ATOM     30  F   UNL     1       1.491   3.570  -1.152  0.00  0.00    -0.133 F 
ENDBRANCH  26  27
ENDBRANCH  23  26
ENDBRANCH  18  20
ENDBRANCH   1  18
TORSDOF 5
