REMARK  Name = ZINC51288670
REMARK  7 active torsions:
REMARK  status: ('A' for Active; 'I' for Inactive)
REMARK    1  A    between atoms: C_1  and  C_2
REMARK    2  A    between atoms: C_5  and  C_30
REMARK    3  A    between atoms: C_6  and  C_8
REMARK    4  A    between atoms: N_17  and  C_19
REMARK    5  A    between atoms: C_19  and  C_20
REMARK    6  A    between atoms: C_20  and  C_22
REMARK    7  A    between atoms: C_20  and  O_29
REMARK                            x       y       z     vdW  Elec       q    Type
REMARK                         _______ _______ _______ _____ _____    ______ ____
ROOT
ATOM      1  C   UNL     1      -0.068  -2.641   2.569  0.00  0.00    +0.100 A 
ATOM      2  C   UNL     1      -0.153  -1.819   3.785  0.00  0.00    +0.015 A 
ATOM      3  C   UNL     1      -0.193  -0.426   3.728  0.00  0.00    +0.011 A 
ATOM      4  C   UNL     1      -0.273   0.300   4.896  0.00  0.00    +0.001 A 
ATOM      5  C   UNL     1      -0.314  -0.340   6.128  0.00  0.00    +0.001 A 
ATOM      6  C   UNL     1      -0.277  -1.714   6.208  0.00  0.00    +0.014 A 
ATOM      7  C   UNL     1      -0.196  -2.469   5.038  0.00  0.00    +0.050 A 
ATOM      8  C   UNL     1      -0.153  -3.937   5.062  0.00  0.00    +0.275 A 
ATOM      9  O   UNL     1      -0.188  -4.539   6.120  0.00  0.00    -0.266 OA
ATOM     10  N   UNL     1      -0.075  -4.607   3.894  0.00  0.00    -0.226 N 
ATOM     11  N   UNL     1      -0.039  -3.946   2.667  0.00  0.00    -0.167 NA
ENDROOT
BRANCH   1  17
ATOM     12  C   UNL     1      -2.167  -1.738  -1.869  0.00  0.00    +0.044 C 
ATOM     13  C   UNL     1      -1.028  -1.558  -0.899  0.00  0.00    -0.050 A 
ATOM     14  C   UNL     1       0.064  -0.786  -1.253  0.00  0.00    +0.003 A 
ATOM     15  C   UNL     1       1.113  -0.616  -0.368  0.00  0.00    +0.004 A 
ATOM     16  C   UNL     1       1.076  -1.215   0.875  0.00  0.00    -0.041 A 
ATOM     17  C   UNL     1      -0.022  -1.994   1.237  0.00  0.00    +0.006 A 
ATOM     18  C   UNL     1      -1.079  -2.158   0.342  0.00  0.00    +0.013 A 
ATOM     19  C   UNL     1       2.220  -1.029   1.838  0.00  0.00    +0.044 C 
ENDBRANCH   1  17
BRANCH  10  20
ATOM     20  C   UNL     1      -0.032  -6.071   3.916  0.00  0.00    +0.183 C 
BRANCH  20  21
ATOM     21  C   UNL     1      -1.457  -6.625   3.852  0.00  0.00    +0.166 C 
BRANCH  21  22
ATOM     22  C   UNL     1      -1.421  -8.124   3.997  0.00  0.00    -0.015 A 
ATOM     23  C   UNL     1      -1.096  -8.916   2.912  0.00  0.00    +0.006 A 
ATOM     24  C   UNL     1      -1.062 -10.291   3.043  0.00  0.00    +0.003 A 
ATOM     25  C   UNL     1      -1.354 -10.877   4.261  0.00  0.00    +0.038 A 
ATOM     26  C   UNL     1      -1.679 -10.085   5.349  0.00  0.00    +0.124 A 
ATOM     27  C   UNL     1      -1.706  -8.707   5.217  0.00  0.00    +0.044 A 
ATOM     28  F   UNL     1      -1.965 -10.656   6.540  0.00  0.00    -0.205 F 
ENDBRANCH  21  22
BRANCH  21  29
ATOM     29  O   UNL     1      -2.045  -6.282   2.596  0.00  0.00    -0.385 OA
ATOM     30  H   UNL     1      -1.569  -6.631   1.830  0.00  0.00    +0.210 HD
ENDBRANCH  21  29
ENDBRANCH  20  21
ENDBRANCH  10  20
TORSDOF 5
