REMARK  Name = ZINC39324232
REMARK  9 active torsions:
REMARK  status: ('A' for Active; 'I' for Inactive)
REMARK    1  A    between atoms: C_1  and  C_2
REMARK    2  A    between atoms: C_2  and  O_3
REMARK    3  A    between atoms: O_3  and  C_4
REMARK    4  A    between atoms: C_4  and  C_6
REMARK    5  A    between atoms: C_6  and  C_7
REMARK    6  A    between atoms: C_14  and  N_31
REMARK    7  A    between atoms: C_15  and  C_29
REMARK    8  A    between atoms: C_16  and  C_18
REMARK    9  A    between atoms: C_21  and  N_24
REMARK                            x       y       z     vdW  Elec       q    Type
REMARK                         _______ _______ _______ _____ _____    ______ ____
ROOT
ATOM      1  C   UNL     1       1.450  -3.859  -2.489  0.00  0.00    +0.055 A 
ATOM      2  C   UNL     1       0.457  -4.657  -2.911  0.00  0.00    +0.050 A 
ATOM      3  C   UNL     1       0.839  -5.995  -2.676  0.00  0.00    +0.245 A 
ATOM      4  N   UNL     1       2.021  -5.987  -2.131  0.00  0.00    -0.135 NA
ATOM      5  N   UNL     1       2.434  -4.651  -2.006  0.00  0.00    -0.277 N 
ATOM      6  H   UNL     1       3.278  -4.349  -1.635  0.00  0.00    +0.189 HD
ATOM      7  O   UNL     1       0.035  -7.043  -3.003  0.00  0.00    -0.421 OA
ATOM      8  C   UNL     1      -1.019  -6.790  -3.804  0.00  0.00    +0.201 C 
ATOM      9  C   UNL     1      -1.483  -5.556  -4.091  0.00  0.00    +0.098 C 
ATOM     10  C   UNL     1      -0.867  -4.296  -3.535  0.00  0.00    +0.101 C 
ENDROOT
BRANCH  10  11
ATOM     11  C   UNL     1      -1.777  -3.702  -2.491  0.00  0.00    -0.034 A 
ATOM     12  C   UNL     1      -2.123  -4.442  -1.376  0.00  0.00    +0.006 A 
ATOM     13  C   UNL     1      -2.957  -3.901  -0.417  0.00  0.00    +0.023 A 
ATOM     14  C   UNL     1      -3.448  -2.612  -0.575  0.00  0.00    +0.030 A 
ATOM     15  C   UNL     1      -3.099  -1.871  -1.697  0.00  0.00    +0.023 A 
ATOM     16  C   UNL     1      -2.261  -2.416  -2.649  0.00  0.00    +0.006 A 
BRANCH  14  17
ATOM     17  N   UNL     1      -4.292  -2.061   0.393  0.00  0.00    -0.330 N 
ATOM     18  C   UNL     1      -4.734  -2.730   1.625  0.00  0.00    +0.105 C 
ATOM     19  C   UNL     1      -5.671  -1.753   2.366  0.00  0.00    +0.020 C 
ATOM     20  C   UNL     1      -6.153  -0.808   1.234  0.00  0.00    +0.020 C 
ATOM     21  C   UNL     1      -4.882  -0.711   0.350  0.00  0.00    +0.105 C 
ENDBRANCH  14  17
ENDBRANCH  10  11
BRANCH   8  22
ATOM     22  N   UNL     1      -1.666  -7.862  -4.366  0.00  0.00    -0.328 N 
ATOM     23  H   UNL     1      -1.360  -8.764  -4.182  0.00  0.00    +0.145 HD
ATOM     24  H   UNL     1      -2.429  -7.718  -4.947  0.00  0.00    +0.145 HD
ENDBRANCH   8  22
BRANCH   9  25
ATOM     25  C   UNL     1      -2.612  -5.437  -4.963  0.00  0.00    +0.101 C 
ATOM     26  N   UNL     1      -3.508  -5.342  -5.655  0.00  0.00    -0.191 NA
ENDBRANCH   9  25
BRANCH   1  27
ATOM     27  C   UNL     1       1.468  -2.353  -2.550  0.00  0.00    +0.175 C 
BRANCH  27  28
ATOM     28  C   UNL     1       0.775  -1.794  -1.334  0.00  0.00    +0.313 C 
ATOM     29  O   UNL     1       0.314  -2.540  -0.504  0.00  0.00    -0.250 OA
BRANCH  28  30
ATOM     30  O   UNL     1       0.671  -0.465  -1.174  0.00  0.00    -0.465 OA
BRANCH  30  32
ATOM     31  C   UNL     1      -0.019   1.526   0.010  0.00  0.00    +0.048 C 
ATOM     32  C   UNL     1       0.002  -0.004   0.002  0.00  0.00    +0.229 C 
ENDBRANCH  30  32
ENDBRANCH  28  30
ENDBRANCH  27  28
ENDBRANCH   1  27
TORSDOF 8
