REMARK  Name = ZINC10042659
REMARK  13 active torsions:
REMARK  status: ('A' for Active; 'I' for Inactive)
REMARK    1  A    between atoms: C_1  and  C_2
REMARK    2  A    between atoms: C_2  and  C_3
REMARK    3  A    between atoms: C_2  and  C_4
REMARK    4  A    between atoms: C_4  and  C_6
REMARK    5  A    between atoms: C_4  and  N_23
REMARK    6  A    between atoms: N_8  and  N_9
REMARK    7  A    between atoms: C_10  and  C_11
REMARK    8  A    between atoms: C_14  and  O_17
REMARK    9  A    between atoms: O_17  and  C_18
REMARK   10  A    between atoms: C_18  and  C_19
REMARK   11  A    between atoms: C_19  and  O_21
REMARK   12  A    between atoms: O_21  and  C_22
REMARK   13  A    between atoms: C_24  and  C_26
REMARK                            x       y       z     vdW  Elec       q    Type
REMARK                         _______ _______ _______ _____ _____    ______ ____
ROOT
ATOM      1  C   UNL     1       5.008   5.831  -0.286  0.00  0.00    +0.253 C 
ATOM      2  O   UNL     1       3.925   6.134  -0.740  0.00  0.00    -0.272 OA
ATOM      3  N   UNL     1       6.021   6.720  -0.310  0.00  0.00    -0.205 N 
ATOM      4  H   UNL     1       6.865   6.505   0.117  0.00  0.00    +0.177 HD
ENDROOT
BRANCH   3   5
ATOM      5  N   UNL     1       5.856   7.954  -0.952  0.00  0.00    -0.188 NA
ATOM      6  C   UNL     1       6.831   8.809  -0.975  0.00  0.00    +0.138 C 
BRANCH   6   7
ATOM      7  C   UNL     1       6.657  10.108  -1.650  0.00  0.00    -0.005 A 
ATOM      8  C   UNL     1       5.444  10.418  -2.272  0.00  0.00    +0.013 A 
ATOM      9  C   UNL     1       5.284  11.634  -2.898  0.00  0.00    +0.046 A 
ATOM     10  C   UNL     1       6.329  12.549  -2.921  0.00  0.00    +0.121 A 
ATOM     11  C   UNL     1       7.538  12.244  -2.309  0.00  0.00    +0.046 A 
ATOM     12  C   UNL     1       7.705  11.031  -1.676  0.00  0.00    +0.013 A 
BRANCH  10  13
ATOM     13  O   UNL     1       6.169  13.745  -3.544  0.00  0.00    -0.481 OA
BRANCH  13  14
ATOM     14  C   UNL     1       4.900  13.995  -4.153  0.00  0.00    +0.349 C 
BRANCH  14  15
ATOM     15  C   UNL     1       4.909  15.360  -4.790  0.00  0.00    +0.345 C 
ATOM     16  O   UNL     1       5.899  16.049  -4.729  0.00  0.00    -0.247 OA
BRANCH  15  17
ATOM     17  O   UNL     1       3.816  15.811  -5.426  0.00  0.00    -0.466 OA
ATOM     18  C   UNL     1       3.895  17.135  -6.016  0.00  0.00    +0.280 C 
ENDBRANCH  15  17
ENDBRANCH  14  15
ENDBRANCH  13  14
ENDBRANCH  10  13
ENDBRANCH   6   7
ENDBRANCH   3   5
BRANCH   1  19
ATOM     19  C   UNL     1       5.222   4.461   0.304  0.00  0.00    +0.163 C 
BRANCH  19  20
ATOM     20  N   UNL     1       4.167   3.558  -0.164  0.00  0.00    -0.300 N 
ATOM     21  C   UNL     1       4.388   2.229  -0.208  0.00  0.00    +0.245 C 
ATOM     22  O   UNL     1       5.463   1.780   0.140  0.00  0.00    -0.270 OA
ATOM     23  H   UNL     1       3.310   3.916  -0.442  0.00  0.00    +0.150 HD
BRANCH  21  24
ATOM     24  C   UNL     1       3.324   1.318  -0.680  0.00  0.00    +0.038 A 
ATOM     25  C   UNL     1       2.089   1.831  -1.081  0.00  0.00    +0.014 A 
ATOM     26  C   UNL     1       1.100   0.977  -1.520  0.00  0.00    +0.022 A 
ATOM     27  C   UNL     1       1.329  -0.388  -1.564  0.00  0.00    +0.059 A 
ATOM     28  C   UNL     1       2.553  -0.904  -1.169  0.00  0.00    +0.060 A 
ATOM     29  C   UNL     1       3.551  -0.058  -0.727  0.00  0.00    +0.034 A 
ATOM     30 CL   UNL     1       2.832  -2.616  -1.228  0.00  0.00    -0.082 Cl
ATOM     31 CL   UNL     1       0.078  -1.457  -2.118  0.00  0.00    -0.082 Cl
ENDBRANCH  21  24
ENDBRANCH  19  20
BRANCH  19  33
ATOM     32  C   UNL     1       3.776   4.979   2.275  0.00  0.00    +0.009 C 
ATOM     33  C   UNL     1       5.176   4.550   1.831  0.00  0.00    +0.012 C 
ATOM     34  C   UNL     1       5.505   3.182   2.432  0.00  0.00    +0.009 C 
ENDBRANCH  19  33
ENDBRANCH   1  19
TORSDOF 10
