REMARK  Name = ZINC28239083
REMARK  10 active torsions:
REMARK  status: ('A' for Active; 'I' for Inactive)
REMARK    1  A    between atoms: C_1  and  C_2
REMARK    2  A    between atoms: C_2  and  N_3
REMARK    3  A    between atoms: C_5  and  N_11
REMARK    4  A    between atoms: C_6  and  C_8
REMARK    5  A    between atoms: C_12  and  C_14
REMARK    6  A    between atoms: C_17  and  C_19
REMARK    7  A    between atoms: C_19  and  O_20
REMARK    8  A    between atoms: O_20  and  C_21
REMARK    9  A    between atoms: C_23  and  C_28
REMARK   10  A    between atoms: C_26  and  C_27
REMARK                            x       y       z     vdW  Elec       q    Type
REMARK                         _______ _______ _______ _____ _____    ______ ____
ROOT
ATOM      1  N   UNL     1      -0.983   5.608   0.041  0.00  0.00    -0.276 N 
ATOM      2  C   UNL     1      -1.552   4.386   0.041  0.00  0.00    +0.284 C 
ATOM      3  O   UNL     1      -2.764   4.279   0.052  0.00  0.00    -0.266 OA
ATOM      4  H   UNL     1       0.113   5.705   0.031  0.00  0.00    +0.155 HD
ENDROOT
BRANCH   1   7
ATOM      5  N   UNL     1      -3.494   8.122   0.078  0.00  0.00    -0.269 N 
ATOM      6  C   UNL     1      -3.147   6.809   0.063  0.00  0.00    +0.132 A 
ATOM      7  C   UNL     1      -1.789   6.756   0.055  0.00  0.00    +0.084 A 
ATOM      8  C   UNL     1      -1.358   8.108   0.058  0.00  0.00    +0.168 A 
ATOM      9  N   UNL     1      -2.443   8.859   0.072  0.00  0.00    -0.165 NA
BRANCH   8  10
ATOM     10  C   UNL     1       0.038   8.584   0.047  0.00  0.00    +0.263 C 
ATOM     11  O   UNL     1       0.953   7.784   0.034  0.00  0.00    -0.269 OA
ATOM     12  N   UNL     1       0.299   9.906   0.051  0.00  0.00    -0.324 N 
ATOM     13  H   UNL     1       1.340  10.261   0.043  0.00  0.00    +0.145 HD
ATOM     14  H   UNL     1      -0.529  10.631   0.062  0.00  0.00    +0.145 HD
ENDBRANCH   8  10
BRANCH   5  16
ATOM     15  C   UNL     1      -5.054   9.570   1.282  0.00  0.00    +0.029 C 
ATOM     16  C   UNL     1      -4.870   8.625   0.094  0.00  0.00    +0.140 C 
ENDBRANCH   5  16
ENDBRANCH   1   7
BRANCH   2  17
ATOM     17  C   UNL     1      -0.709   3.186   0.026  0.00  0.00    +0.190 A 
ATOM     18  C   UNL     1      -1.153   1.894   0.017  0.00  0.00    +0.055 A 
ATOM     19  C   UNL     1      -0.013   1.076   0.008  0.00  0.00    +0.049 A 
ATOM     20  C   UNL     1       1.063   1.893   0.002  0.00  0.00    +0.143 A 
ATOM     21  O   UNL     1       0.640   3.164   0.013  0.00  0.00    -0.452 OA
BRANCH  20  22
ATOM     22  C   UNL     1       2.503   1.448  -0.013  0.00  0.00    +0.303 C 
BRANCH  22  23
ATOM     23  O   UNL     1       2.946   1.315  -1.365  0.00  0.00    -0.484 OA
BRANCH  23  24
ATOM     24  C   UNL     1       4.232   0.918  -1.557  0.00  0.00    +0.124 A 
ATOM     25  C   UNL     1       5.052   0.668  -0.466  0.00  0.00    +0.049 A 
ATOM     26  C   UNL     1       6.357   0.260  -0.664  0.00  0.00    -0.047 A 
ATOM     27  C   UNL     1       6.848   0.110  -1.948  0.00  0.00    +0.004 A 
ATOM     28  C   UNL     1       6.035   0.364  -3.036  0.00  0.00    +0.007 A 
ATOM     29  C   UNL     1       4.728   0.767  -2.844  0.00  0.00    -0.009 A 
ATOM     30  C   UNL     1       3.841   1.044  -4.031  0.00  0.00    +0.047 C 
ATOM     31  C   UNL     1       7.246  -0.017   0.520  0.00  0.00    +0.044 C 
ENDBRANCH  23  24
ENDBRANCH  22  23
ENDBRANCH  20  22
ENDBRANCH   2  17
TORSDOF 7
