REMARK  Name = ZINC12788900
REMARK  4 active torsions:
REMARK  status: ('A' for Active; 'I' for Inactive)
REMARK    1  A    between atoms: C_6  and  C_7
REMARK    2  A    between atoms: C_12  and  C_13
REMARK    3  A    between atoms: C_12  and  N_50
REMARK    4  A    between atoms: N_15  and  C_16
REMARK                            x       y       z     vdW  Elec       q    Type
REMARK                         _______ _______ _______ _____ _____    ______ ____
ROOT
ATOM      1  C   UNL     1      -3.042   5.238   0.068  0.00  0.00    -0.037 C 
ATOM      2  C   UNL     1      -4.478   5.484  -0.443  0.00  0.00    -0.013 C 
ATOM      3  C   UNL     1      -4.782   4.294  -1.375  0.00  0.00    -0.020 C 
ATOM      4  C   UNL     1      -3.504   3.428  -1.349  0.00  0.00    -0.077 C 
ATOM      5  N   UNL     1      -2.870   3.788  -0.083  0.00  0.00    +0.390 N 
ATOM      6  H   UNL     1      -3.330   3.297   0.692  0.00  0.00    -0.080 HD
ENDROOT
BRANCH   1  12
ATOM      7  C   UNL     1      -3.459   4.868   2.507  0.00  0.00    +0.006 A 
ATOM      8  C   UNL     1      -3.349   5.247   3.833  0.00  0.00    +0.049 A 
ATOM      9  C   UNL     1      -2.694   6.422   4.159  0.00  0.00    +0.162 A 
ATOM     10  C   UNL     1      -2.151   7.216   3.158  0.00  0.00    +0.162 A 
ATOM     11  C   UNL     1      -2.258   6.831   1.833  0.00  0.00    +0.051 A 
ATOM     12  C   UNL     1      -2.918   5.658   1.510  0.00  0.00    -0.057 A 
ATOM     13  O   UNL     1      -1.507   8.373   3.489  0.00  0.00    -0.488 OA
ATOM     14  C   UNL     1      -2.329   9.416   4.017  0.00  0.00    +0.232 C 
ATOM     15  C   UNL     1      -2.537   9.235   5.512  0.00  0.00    +0.082 C 
ATOM     16  C   UNL     1      -3.316   7.971   5.839  0.00  0.00    +0.232 C 
ATOM     17  O   UNL     1      -2.576   6.807   5.463  0.00  0.00    -0.488 OA
ENDBRANCH   1  12
BRANCH   5  18
ATOM     18  C   UNL     1      -1.416   3.433  -0.096  0.00  0.00    +0.020 C 
BRANCH  18  19
ATOM     19  C   UNL     1      -1.250   1.940   0.018  0.00  0.00    +0.201 C 
ATOM     20  O   UNL     1      -2.227   1.227   0.118  0.00  0.00    -0.278 OA
ATOM     21  N   UNL     1      -0.017   1.396   0.010  0.00  0.00    -0.286 N 
ATOM     22  H   UNL     1       0.766   1.969  -0.008  0.00  0.00    +0.155 HD
BRANCH  21  23
ATOM     23  C   UNL     1       0.135   0.004   0.021  0.00  0.00    +0.052 A 
ATOM     24  C   UNL     1      -0.765  -0.788   0.723  0.00  0.00    +0.026 A 
ATOM     25  C   UNL     1      -0.614  -2.160   0.732  0.00  0.00    +0.017 A 
ATOM     26  C   UNL     1       0.433  -2.748   0.043  0.00  0.00    +0.019 A 
ATOM     27  C   UNL     1       1.331  -1.962  -0.657  0.00  0.00    +0.037 A 
ATOM     28  C   UNL     1       1.182  -0.588  -0.674  0.00  0.00    +0.063 A 
ATOM     29 CL   UNL     1       2.305   0.397  -1.557  0.00  0.00    -0.082 Cl
ATOM     30 BR   UNL     1       0.636  -4.628   0.059  0.00  0.00    -0.050 Br
ENDBRANCH  21  23
ENDBRANCH  18  19
ENDBRANCH   5  18
TORSDOF 4
