REMARK  Name = ZINC39559419
REMARK  6 active torsions:
REMARK  status: ('A' for Active; 'I' for Inactive)
REMARK    1  A    between atoms: C_4  and  C_7
REMARK    2  A    between atoms: C_8  and  C_9
REMARK    3  A    between atoms: N_11  and  C_12
REMARK    4  A    between atoms: C_16  and  N_18
REMARK    5  A    between atoms: N_18  and  S_19
REMARK    6  A    between atoms: S_19  and  N_22
REMARK                            x       y       z     vdW  Elec       q    Type
REMARK                         _______ _______ _______ _____ _____    ______ ____
ROOT
ATOM      1  C   UNL     1       6.232  -4.764  -0.190  0.00  0.00    +0.036 A 
ATOM      2  C   UNL     1       6.296  -5.958  -0.899  0.00  0.00    +0.023 A 
ATOM      3  C   UNL     1       7.497  -6.629  -1.018  0.00  0.00    +0.004 A 
ATOM      4  C   UNL     1       8.640  -6.117  -0.435  0.00  0.00    +0.027 A 
ATOM      5  C   UNL     1       8.583  -4.923   0.275  0.00  0.00    +0.077 A 
ATOM      6  C   UNL     1       7.379  -4.244   0.393  0.00  0.00    +0.050 A 
ENDROOT
BRANCH   1   9
ATOM      7  C   UNL     1       4.993  -2.739  -0.063  0.00  0.00    +0.241 C 
ATOM      8  O   UNL     1       6.037  -2.112  -0.079  0.00  0.00    -0.270 OA
ATOM      9  N   UNL     1       5.016  -4.086  -0.069  0.00  0.00    -0.282 N 
ATOM     10  H   UNL     1       4.188  -4.585   0.012  0.00  0.00    +0.155 HD
BRANCH   7  12
ATOM     11  C   UNL     1       3.691  -0.680  -0.033  0.00  0.00    +0.013 C 
ATOM     12  C   UNL     1       3.714  -2.028  -0.038  0.00  0.00    +0.068 C 
BRANCH  11  16
ATOM     13  C   UNL     1      -0.017   1.379   0.039  0.00  0.00    +0.000 A 
ATOM     14  C   UNL     1       1.167   2.095   0.021  0.00  0.00    +0.001 A 
ATOM     15  C   UNL     1       2.377   1.433  -0.002  0.00  0.00    +0.008 A 
ATOM     16  C   UNL     1       2.404   0.035  -0.008  0.00  0.00    -0.025 A 
ATOM     17  C   UNL     1       1.203  -0.681   0.011  0.00  0.00    +0.008 A 
ATOM     18  C   UNL     1       0.002  -0.005   0.034  0.00  0.00    +0.001 A 
ENDBRANCH  11  16
ENDBRANCH   7  12
ENDBRANCH   1   9
BRANCH   5  19
ATOM     19  N   UNL     1       9.739  -4.406   0.865  0.00  0.00    -0.087 NA
BRANCH  19  20
ATOM     20  S   UNL     1      11.177  -5.214   0.719  0.00  0.00    +0.126 S 
ATOM     21  O   UNL     1      11.030  -6.436   1.430  0.00  0.00    -0.137 OA
ATOM     22  O   UNL     1      11.529  -5.171  -0.657  0.00  0.00    -0.137 OA
BRANCH  20  23
ATOM     23  N   UNL     1      12.320  -4.330   1.528  0.00  0.00    -0.189 NA
ATOM     24  H   UNL     1      13.076  -4.777   1.940  0.00  0.00    +0.146 HD
ATOM     25  H   UNL     1      12.233  -3.366   1.590  0.00  0.00    +0.146 HD
ENDBRANCH  20  23
ENDBRANCH  19  20
ENDBRANCH   5  19
TORSDOF 6
