REMARK  Name = ZINC03911273
REMARK  5 active torsions:
REMARK  status: ('A' for Active; 'I' for Inactive)
REMARK    1  A    between atoms: C_1  and  C_2
REMARK    2  A    between atoms: C_5  and  N_8
REMARK    3  A    between atoms: N_8  and  S_9
REMARK    4  A    between atoms: S_9  and  C_12
REMARK    5  A    between atoms: C_19  and  C_22
REMARK                            x       y       z     vdW  Elec       q    Type
REMARK                         _______ _______ _______ _____ _____    ______ ____
ROOT
ATOM      1  C   UNL     1       0.439  -4.541   2.679  0.00  0.00    +0.111 A 
ATOM      2  C   UNL     1       0.791  -3.352   3.301  0.00  0.00    +0.031 A 
ATOM      3  C   UNL     1       0.312  -3.053   4.560  0.00  0.00    +0.030 A 
ATOM      4  C   UNL     1      -0.529  -3.949   5.207  0.00  0.00    +0.067 A 
ATOM      5  C   UNL     1      -0.885  -5.153   4.575  0.00  0.00    +0.091 A 
ATOM      6  C   UNL     1      -0.391  -5.432   3.297  0.00  0.00    +0.058 A 
ATOM      7  N   UNL     1      -1.702  -5.823   5.425  0.00  0.00    -0.228 NA
ATOM      8  C   UNL     1      -1.869  -5.122   6.519  0.00  0.00    +0.139 A 
ATOM      9  N   UNL     1      -1.163  -3.953   6.433  0.00  0.00    -0.338 N 
ATOM     10  H   UNL     1      -1.117  -3.258   7.108  0.00  0.00    +0.167 HD
ENDROOT
BRANCH   8  11
ATOM     11  C   UNL     1      -2.697  -5.534   7.674  0.00  0.00    +0.017 A 
ATOM     12  C   UNL     1      -2.808  -4.701   8.788  0.00  0.00    +0.011 A 
ATOM     13  C   UNL     1      -3.581  -5.090   9.863  0.00  0.00    +0.001 A 
ATOM     14  C   UNL     1      -4.246  -6.303   9.836  0.00  0.00    +0.000 A 
ATOM     15  C   UNL     1      -4.140  -7.133   8.735  0.00  0.00    +0.001 A 
ATOM     16  C   UNL     1      -3.375  -6.753   7.652  0.00  0.00    +0.011 A 
ENDBRANCH   8  11
BRANCH   1  17
ATOM     17  S   UNL     1       1.064  -4.901   1.071  0.00  0.00    +0.072 S 
ATOM     18  O   UNL     1       0.912  -6.301   0.881  0.00  0.00    -0.150 OA
ATOM     19  O   UNL     1       2.323  -4.251   0.970  0.00  0.00    -0.150 OA
BRANCH  17  20
ATOM     20  N   UNL     1       0.060  -4.164  -0.021  0.00  0.00    -0.216 N 
ATOM     21  H   UNL     1       0.408  -3.479  -0.613  0.00  0.00    +0.174 HD
BRANCH  20  26
ATOM     22  C   UNL     1      -5.407  -5.642  -0.296  0.00  0.00    +0.044 C 
ATOM     23  C   UNL     1      -3.954  -5.249  -0.223  0.00  0.00    -0.050 A 
ATOM     24  C   UNL     1      -3.601  -3.912  -0.211  0.00  0.00    +0.005 A 
ATOM     25  C   UNL     1      -2.270  -3.549  -0.144  0.00  0.00    +0.025 A 
ATOM     26  C   UNL     1      -1.286  -4.528  -0.088  0.00  0.00    +0.048 A 
ATOM     27  C   UNL     1      -1.645  -5.870  -0.101  0.00  0.00    +0.025 A 
ATOM     28  C   UNL     1      -2.978  -6.226  -0.162  0.00  0.00    +0.005 A 
ENDBRANCH  20  26
ENDBRANCH  17  20
ENDBRANCH   1  17
TORSDOF 4
