REMARK  Name = ZINC20610578
REMARK  6 active torsions:
REMARK  status: ('A' for Active; 'I' for Inactive)
REMARK    1  A    between atoms: C_1  and  C_2
REMARK    2  A    between atoms: C_2  and  C_3
REMARK    3  A    between atoms: C_6  and  N_9
REMARK    4  A    between atoms: C_12  and  C_19
REMARK    5  A    between atoms: C_25  and  O_31
REMARK    6  A    between atoms: O_31  and  C_32
REMARK                            x       y       z     vdW  Elec       q    Type
REMARK                         _______ _______ _______ _____ _____    ______ ____
ROOT
ATOM      1  N   UNL     1       2.747  -1.884   4.600  0.00  0.00    -0.229 N 
ATOM      2  C   UNL     1       2.080  -2.036   5.761  0.00  0.00    +0.267 A 
ATOM      3  O   UNL     1       0.892  -1.772   5.826  0.00  0.00    -0.267 OA
ATOM      4  C   UNL     1       2.764  -2.503   6.897  0.00  0.00    +0.073 A 
ATOM      5  C   UNL     1       4.093  -2.793   6.798  0.00  0.00    +0.260 A 
ATOM      6  N   UNL     1       4.733  -2.623   5.596  0.00  0.00    -0.274 N 
ATOM      7  H   UNL     1       5.678  -2.828   5.521  0.00  0.00    +0.173 HD
ATOM      8  C   UNL     1       4.057  -2.180   4.521  0.00  0.00    +0.337 A 
ATOM      9  O   UNL     1       4.640  -2.041   3.463  0.00  0.00    -0.246 OA
ATOM     10  O   UNL     1       4.773  -3.242   7.874  0.00  0.00    -0.267 OA
ENDROOT
BRANCH   4  11
ATOM     11  C   UNL     1       2.039  -2.681   8.206  0.00  0.00    +0.018 C 
ATOM     12  C   UNL     1       1.567  -1.338   8.710  0.00  0.00    +0.011 A 
ATOM     13  C   UNL     1       0.341  -1.144   9.249  0.00  0.00    -0.022 A 
ATOM     14  C   UNL     1       0.247   0.252   9.610  0.00  0.00    +0.006 A 
ATOM     15  C   UNL     1      -0.768   1.017  10.193  0.00  0.00    +0.056 A 
ATOM     16  C   UNL     1      -0.499   2.363  10.396  0.00  0.00    +0.121 A 
ATOM     17  C   UNL     1       0.719   2.929  10.039  0.00  0.00    +0.047 A 
ATOM     18  C   UNL     1       1.734   2.188   9.460  0.00  0.00    +0.030 A 
ATOM     19  C   UNL     1       1.490   0.833   9.246  0.00  0.00    +0.047 A 
ATOM     20  N   UNL     1       2.262  -0.160   8.707  0.00  0.00    -0.359 N 
ATOM     21  H   UNL     1       3.165  -0.045   8.373  0.00  0.00    +0.166 HD
ATOM     22  C   UNL     1      -0.675  -2.247   9.406  0.00  0.00    +0.018 C 
ATOM     23  C   UNL     1       0.054  -3.587   9.231  0.00  0.00    -0.076 C 
ATOM     24  N   UNL     1       0.869  -3.550   8.008  0.00  0.00    +0.388 N 
ATOM     25  H   UNL     1       0.311  -3.192   7.248  0.00  0.00    -0.084 HD
ATOM     26  H   UNL     1       1.179  -4.483   7.782  0.00  0.00    -0.084 HD
BRANCH  16  27
ATOM     27  O   UNL     1      -1.454   3.150  10.960  0.00  0.00    -0.495 OA
ATOM     28  C   UNL     1      -1.130   4.529  11.148  0.00  0.00    +0.277 C 
ENDBRANCH  16  27
ENDBRANCH   4  11
BRANCH   1  32
ATOM     29  C   UNL     1       0.730  -0.502   1.224  0.00  0.00    -0.047 A 
ATOM     30  C   UNL     1       0.794  -1.859   1.482  0.00  0.00    +0.005 A 
ATOM     31  C   UNL     1       1.462  -2.320   2.600  0.00  0.00    +0.026 A 
ATOM     32  C   UNL     1       2.069  -1.419   3.465  0.00  0.00    +0.054 A 
ATOM     33  C   UNL     1       2.004  -0.058   3.202  0.00  0.00    +0.026 A 
ATOM     34  C   UNL     1       1.339   0.397   2.080  0.00  0.00    +0.005 A 
BRANCH  29  36
ATOM     35  C   UNL     1       0.972   0.072  -1.176  0.00  0.00    +0.009 C 
ATOM     36  C   UNL     1       0.001  -0.002   0.004  0.00  0.00    +0.032 C 
ENDBRANCH  29  36
ENDBRANCH   1  32
TORSDOF 4
