REMARK  Name = ZINC58846090
REMARK  7 active torsions:
REMARK  status: ('A' for Active; 'I' for Inactive)
REMARK    1  A    between atoms: C_1  and  C_2
REMARK    2  A    between atoms: C_2  and  C_3
REMARK    3  A    between atoms: C_8  and  N_9
REMARK    4  A    between atoms: N_9  and  S_10
REMARK    5  A    between atoms: S_10  and  C_13
REMARK    6  A    between atoms: C_26  and  C_29
REMARK    7  A    between atoms: C_31  and  N_36
REMARK                            x       y       z     vdW  Elec       q    Type
REMARK                         _______ _______ _______ _____ _____    ______ ____
ROOT
ATOM      1  C   UNL     1      -4.534   1.823  -2.458  0.00  0.00    +0.109 A 
ATOM      2  C   UNL     1      -5.529   2.393  -1.684  0.00  0.00    +0.030 A 
ATOM      3  C   UNL     1      -5.556   3.761  -1.503  0.00  0.00    +0.025 A 
ATOM      4  C   UNL     1      -4.584   4.563  -2.092  0.00  0.00    +0.031 A 
ATOM      5  C   UNL     1      -3.579   3.992  -2.857  0.00  0.00    -0.018 A 
ATOM      6  C   UNL     1      -3.564   2.616  -3.036  0.00  0.00    +0.034 A 
ATOM      7  C   UNL     1      -2.498   4.814  -3.473  0.00  0.00    +0.049 C 
ATOM      8  C   UNL     1      -2.704   5.006  -4.953  0.00  0.00    -0.023 C 
ATOM      9  C   UNL     1      -2.315   6.204  -5.313  0.00  0.00    -0.030 C 
ATOM     10  C   UNL     1      -1.799   6.984  -4.124  0.00  0.00    +0.033 C 
ATOM     11  C   UNL     1      -2.377   6.228  -2.906  0.00  0.00    +0.029 C 
ATOM     12  C   UNL     1      -3.707   6.857  -2.546  0.00  0.00    +0.106 C 
ATOM     13  N   UNL     1      -4.635   5.941  -1.916  0.00  0.00    -0.336 N 
ATOM     14  H   UNL     1      -5.341   6.308  -1.361  0.00  0.00    +0.147 HD
ENDROOT
BRANCH  12  15
ATOM     15  C   UNL     1      -4.324   7.421  -3.800  0.00  0.00    -0.007 A 
ATOM     16  C   UNL     1      -5.068   6.606  -4.632  0.00  0.00    +0.039 A 
ATOM     17  C   UNL     1      -5.634   7.123  -5.782  0.00  0.00    +0.127 A 
ATOM     18  C   UNL     1      -5.457   8.457  -6.101  0.00  0.00    +0.034 A 
ATOM     19  C   UNL     1      -4.714   9.274  -5.269  0.00  0.00    +0.022 A 
ATOM     20  C   UNL     1      -4.152   8.757  -4.114  0.00  0.00    +0.046 A 
ATOM     21 CL   UNL     1      -3.225   9.784  -3.066  0.00  0.00    -0.083 Cl
BRANCH  17  22
ATOM     22  N   UNL     1      -6.429   6.249  -6.673  0.00  0.00    +0.056 N 
ATOM     23  O   UNL     1      -6.583   5.083  -6.395  0.00  0.00    -0.126 OA
ATOM     24  O   UNL     1      -6.924   6.702  -7.679  0.00  0.00    -0.126 OA
ENDBRANCH  17  22
ENDBRANCH  12  15
BRANCH   1  25
ATOM     25  S   UNL     1      -4.502   0.078  -2.700  0.00  0.00    +0.072 S 
ATOM     26  O   UNL     1      -3.785  -0.152  -3.905  0.00  0.00    -0.150 OA
ATOM     27  O   UNL     1      -5.832  -0.384  -2.505  0.00  0.00    -0.150 OA
BRANCH  25  28
ATOM     28  N   UNL     1      -3.592  -0.569  -1.477  0.00  0.00    -0.216 N 
ATOM     29  H   UNL     1      -2.790  -1.074  -1.684  0.00  0.00    +0.174 HD
BRANCH  28  35
ATOM     30  C   UNL     1      -3.018  -0.230   0.843  0.00  0.00    -0.025 A 
ATOM     31  C   UNL     1      -3.404  -0.045   2.156  0.00  0.00    +0.005 A 
ATOM     32  C   UNL     1      -4.746  -0.024   2.486  0.00  0.00    +0.000 A 
ATOM     33  C   UNL     1      -5.707  -0.186   1.504  0.00  0.00    +0.002 A 
ATOM     34  C   UNL     1      -5.327  -0.371   0.190  0.00  0.00    +0.025 A 
ATOM     35  C   UNL     1      -3.979  -0.388  -0.147  0.00  0.00    +0.051 A 
BRANCH  30  37
ATOM     36  C   UNL     1      -1.115   1.143   0.039  0.00  0.00    +0.009 C 
ATOM     37  C   UNL     1      -1.554  -0.254   0.483  0.00  0.00    +0.033 C 
ENDBRANCH  30  37
ENDBRANCH  28  35
ENDBRANCH  25  28
ENDBRANCH   1  25
TORSDOF 6
