REMARK  Name = ZINC00165827
REMARK  1 active torsions:
REMARK  status: ('A' for Active; 'I' for Inactive)
REMARK    1  A    between atoms: C_4  and  C_7
REMARK                            x       y       z     vdW  Elec       q    Type
REMARK                         _______ _______ _______ _____ _____    ______ ____
ROOT
ATOM      1  C   UNL     1       3.699  -0.689  -0.038  0.00  0.00    +0.095 A 
ATOM      2  C   UNL     1       3.859  -2.078  -0.053  0.00  0.00    +0.078 A 
ATOM      3  C   UNL     1       5.220  -2.343  -0.067  0.00  0.00    +0.160 A 
ATOM      4  N   UNL     1       5.924  -3.477  -0.083  0.00  0.00    -0.231 NA
ATOM      5  C   UNL     1       7.254  -3.489  -0.093  0.00  0.00    +0.063 A 
ATOM      6  C   UNL     1       7.945  -2.285  -0.089  0.00  0.00    +0.051 A 
ATOM      7  C   UNL     1       7.228  -1.107  -0.072  0.00  0.00    +0.279 A 
ATOM      8  O   UNL     1       7.879   0.079  -0.068  0.00  0.00    -0.265 OA
ATOM      9  N   UNL     1       5.866  -1.133  -0.061  0.00  0.00    -0.178 N 
ATOM     10  N   UNL     1       4.894  -0.126  -0.048  0.00  0.00    -0.162 NA
ATOM     11  C   UNL     1       9.470  -2.370  -0.102  0.00  0.00    +0.112 C 
ATOM     12  S   UNL     1       9.758  -4.125   0.367  0.00  0.00    -0.150 S 
ATOM     13  C   UNL     1       8.100  -4.762  -0.112  0.00  0.00    +0.125 C 
ENDROOT
BRANCH   1  17
ATOM     14  C   UNL     1      -0.017   1.379   0.010  0.00  0.00    +0.000 A 
ATOM     15  C   UNL     1       1.169   2.092   0.002  0.00  0.00    +0.001 A 
ATOM     16  C   UNL     1       2.377   1.425  -0.013  0.00  0.00    +0.010 A 
ATOM     17  C   UNL     1       2.402   0.033  -0.021  0.00  0.00    +0.002 A 
ATOM     18  C   UNL     1       1.205  -0.680  -0.013  0.00  0.00    +0.010 A 
ATOM     19  C   UNL     1       0.002  -0.004   0.002  0.00  0.00    +0.001 A 
ENDBRANCH   1  17
TORSDOF 1
