REMARK  Name = ZINC38652900
REMARK  10 active torsions:
REMARK  status: ('A' for Active; 'I' for Inactive)
REMARK    1  A    between atoms: C_1  and  C_2
REMARK    2  A    between atoms: C_2  and  C_3
REMARK    3  A    between atoms: C_3  and  C_4
REMARK    4  A    between atoms: C_4  and  O_5
REMARK    5  A    between atoms: O_5  and  C_6
REMARK    6  A    between atoms: C_9  and  C_13
REMARK    7  A    between atoms: C_14  and  C_24
REMARK    8  A    between atoms: N_16  and  C_18
REMARK    9  A    between atoms: C_25  and  C_26
REMARK   10  A    between atoms: C_25  and  C_28
REMARK                            x       y       z     vdW  Elec       q    Type
REMARK                         _______ _______ _______ _____ _____    ______ ____
ROOT
ATOM      1  C   UNL     1       0.770  -8.840  -3.321  0.00  0.00    +0.100 A 
ATOM      2  C   UNL     1       1.103  -9.241  -4.692  0.00  0.00    +0.022 A 
ATOM      3  C   UNL     1       1.065 -10.622  -4.714  0.00  0.00    +0.123 A 
ATOM      4  N   UNL     1       0.739 -11.044  -3.477  0.00  0.00    -0.239 N 
ATOM      5  N   UNL     1       0.568  -9.943  -2.635  0.00  0.00    -0.166 NA
ENDROOT
BRANCH   1   9
ATOM      6  C   UNL     1       0.523  -4.861  -1.839  0.00  0.00    +0.139 A 
ATOM      7  C   UNL     1      -0.338  -5.836  -1.354  0.00  0.00    +0.048 A 
ATOM      8  C   UNL     1      -0.260  -7.127  -1.832  0.00  0.00    +0.014 A 
ATOM      9  C   UNL     1       0.684  -7.453  -2.805  0.00  0.00    +0.004 A 
ATOM     10  C   UNL     1       1.548  -6.472  -3.291  0.00  0.00    +0.033 A 
ATOM     11  C   UNL     1       1.462  -5.181  -2.812  0.00  0.00    +0.083 A 
ATOM     12 CL   UNL     1       2.532  -3.957  -3.421  0.00  0.00    -0.080 Cl
BRANCH   6  13
ATOM     13  O   UNL     1       0.444  -3.590  -1.365  0.00  0.00    -0.491 OA
BRANCH  13  14
ATOM     14  C   UNL     1      -0.543  -3.330  -0.366  0.00  0.00    +0.229 C 
BRANCH  14  15
ATOM     15  C   UNL     1      -0.482  -1.856   0.041  0.00  0.00    +0.041 C 
BRANCH  15  17
ATOM     16  C   UNL     1      -1.478  -0.105   1.519  0.00  0.00    +0.004 C 
ATOM     17  C   UNL     1      -1.539  -1.578   1.112  0.00  0.00    -0.000 C 
ENDBRANCH  15  17
ENDBRANCH  14  15
ENDBRANCH  13  14
ENDBRANCH   6  13
ENDBRANCH   1   9
BRANCH   4  18
ATOM     18  C   UNL     1       0.599 -12.384  -3.093  0.00  0.00    +0.065 A 
ATOM     19  C   UNL     1       0.805 -13.399  -4.018  0.00  0.00    +0.028 A 
ATOM     20  C   UNL     1       0.667 -14.719  -3.636  0.00  0.00    +0.002 A 
ATOM     21  C   UNL     1       0.322 -15.030  -2.333  0.00  0.00    +0.000 A 
ATOM     22  C   UNL     1       0.115 -14.022  -1.410  0.00  0.00    +0.002 A 
ATOM     23  C   UNL     1       0.258 -12.700  -1.784  0.00  0.00    +0.028 A 
ENDBRANCH   4  18
BRANCH   2  24
ATOM     24  C   UNL     1       1.416  -8.352  -5.818  0.00  0.00    +0.030 C 
ATOM     25  C   UNL     1       2.278  -8.755  -6.778  0.00  0.00    +0.072 C 
BRANCH  25  26
ATOM     26  C   UNL     1       3.064 -10.027  -6.598  0.00  0.00    +0.216 C 
ATOM     27  N   UNL     1       4.480  -9.793  -6.909  0.00  0.00    -0.359 N 
ATOM     28  C   UNL     1       4.796 -10.571  -7.903  0.00  0.00    +0.060 A 
ATOM     29  C   UNL     1       6.046 -10.784  -8.646  0.00  0.00    +0.027 A 
ATOM     30  C   UNL     1       6.075 -11.678  -9.655  0.00  0.00    +0.002 A 
ATOM     31  C   UNL     1       4.948 -12.428 -10.036  0.00  0.00    +0.002 A 
ATOM     32  C   UNL     1       3.754 -12.309  -9.422  0.00  0.00    +0.027 A 
ATOM     33  C   UNL     1       3.603 -11.364  -8.307  0.00  0.00    +0.060 A 
ATOM     34  N   UNL     1       2.596 -11.047  -7.546  0.00  0.00    -0.359 N 
ATOM     35  H   UNL     1       5.072  -9.172  -6.455  0.00  0.00    +0.162 HD
ATOM     36  H   UNL     1       1.701 -11.416  -7.596  0.00  0.00    +0.162 HD
ENDBRANCH  25  26
BRANCH  25  37
ATOM     37  C   UNL     1       2.444  -7.972  -7.965  0.00  0.00    +0.099 C 
ATOM     38  N   UNL     1       2.575  -7.351  -8.907  0.00  0.00    -0.191 NA
ENDBRANCH  25  37
ENDBRANCH   2  24
TORSDOF 9
