REMARK  Name = ZINC44917332
REMARK  6 active torsions:
REMARK  status: ('A' for Active; 'I' for Inactive)
REMARK    1  A    between atoms: C_1  and  O_2
REMARK    2  A    between atoms: O_2  and  C_3
REMARK    3  A    between atoms: C_5  and  C_10
REMARK    4  A    between atoms: C_8  and  O_9
REMARK    5  A    between atoms: C_13  and  O_27
REMARK    6  A    between atoms: C_19  and  C_20
REMARK                            x       y       z     vdW  Elec       q    Type
REMARK                         _______ _______ _______ _____ _____    ______ ____
ROOT
ATOM      1  C   UNL     1       2.462   0.334   4.204  0.00  0.00    +0.068 C 
ATOM      2  C   UNL     1       1.825  -0.026   5.555  0.00  0.00    +0.109 C 
ATOM      3  C   UNL     1       2.709   0.392   6.693  0.00  0.00    +0.188 C 
ATOM      4  N   UNL     1       4.000   0.406   6.646  0.00  0.00    -0.214 NA
ATOM      5  C   UNL     1       4.647   0.066   5.469  0.00  0.00    +0.106 A 
ATOM      6  C   UNL     1       3.923   0.028   4.298  0.00  0.00    +0.044 A 
ATOM      7  S   UNL     1       5.023  -0.410   3.135  0.00  0.00    +0.010 S 
ATOM      8  N   UNL     1       6.407  -0.522   4.073  0.00  0.00    -0.208 NA
ATOM      9  C   UNL     1       6.003  -0.231   5.295  0.00  0.00    +0.106 A 
ENDROOT
BRANCH   9  10
ATOM     10  C   UNL     1       6.948  -0.215   6.437  0.00  0.00    +0.003 A 
ATOM     11  C   UNL     1       6.785   0.710   7.468  0.00  0.00    +0.011 A 
ATOM     12  C   UNL     1       7.667   0.721   8.528  0.00  0.00    +0.020 A 
ATOM     13  C   UNL     1       8.714  -0.185   8.570  0.00  0.00    +0.041 A 
ATOM     14  C   UNL     1       8.880  -1.105   7.550  0.00  0.00    +0.020 A 
ATOM     15  C   UNL     1       8.001  -1.128   6.487  0.00  0.00    +0.011 A 
ATOM     16 CL   UNL     1       9.821  -0.166   9.907  0.00  0.00    -0.084 Cl
ENDBRANCH   9  10
BRANCH   1  19
ATOM     17  C   UNL     1       0.626  -0.619   1.042  0.00  0.00    +0.162 A 
ATOM     18  C   UNL     1       1.202   0.137   2.051  0.00  0.00    +0.053 A 
ATOM     19  C   UNL     1       1.836  -0.490   3.108  0.00  0.00    -0.035 A 
ATOM     20  C   UNL     1       1.897  -1.870   3.161  0.00  0.00    +0.008 A 
ATOM     21  C   UNL     1       1.325  -2.630   2.158  0.00  0.00    +0.049 A 
ATOM     22  C   UNL     1       0.683  -2.008   1.099  0.00  0.00    +0.158 A 
BRANCH  17  24
ATOM     23  C   UNL     1      -0.017   1.425   0.010  0.00  0.00    +0.277 C 
ATOM     24  O   UNL     1       0.002  -0.004   0.002  0.00  0.00    -0.491 OA
ENDBRANCH  17  24
BRANCH  22  25
ATOM     25  O   UNL     1       0.115  -2.754   0.114  0.00  0.00    -0.503 OA
ATOM     26  H   UNL     1       0.711  -2.957  -0.620  0.00  0.00    +0.292 HD
ENDBRANCH  22  25
ENDBRANCH   1  19
BRANCH   3  27
ATOM     27  O   UNL     1       2.115   0.779   7.843  0.00  0.00    -0.495 OA
ATOM     28  H   UNL     1       2.736   1.037   8.539  0.00  0.00    +0.293 HD
ENDBRANCH   3  27
TORSDOF 5
