REMARK  Name = ZINC00375051
REMARK  7 active torsions:
REMARK  status: ('A' for Active; 'I' for Inactive)
REMARK    1  A    between atoms: C_1  and  C_2
REMARK    2  A    between atoms: C_2  and  C_3
REMARK    3  A    between atoms: C_2  and  C_4
REMARK    4  A    between atoms: C_2  and  C_5
REMARK    5  A    between atoms: C_10  and  C_15
REMARK    6  A    between atoms: N_17  and  N_18
REMARK    7  A    between atoms: C_19  and  C_20
REMARK                            x       y       z     vdW  Elec       q    Type
REMARK                         _______ _______ _______ _____ _____    ______ ____
ROOT
ATOM      1  C   UNL     1     -10.608   4.873  -0.307  0.00  0.00    -0.000 C 
ATOM      2  C   UNL     1      -9.437   5.399   0.528  0.00  0.00    +0.009 C 
ATOM      3  C   UNL     1      -8.132   4.750   0.062  0.00  0.00    +0.037 C 
ATOM      4  C   UNL     1      -8.313   3.238   0.054  0.00  0.00    -0.025 A 
ATOM      5  C   UNL     1      -7.214   2.290   0.045  0.00  0.00    +0.049 A 
ATOM      6  C   UNL     1      -7.523   0.948   0.033  0.00  0.00    +0.058 A 
ATOM      7  S   UNL     1      -9.255   0.939   0.046  0.00  0.00    -0.101 S 
ATOM      8  C   UNL     1      -9.548   2.685   0.056  0.00  0.00    -0.006 A 
ATOM      9  C   UNL     1     -10.860   3.405   0.065  0.00  0.00    +0.046 C 
ENDROOT
BRANCH   1  11
ATOM     10  C   UNL     1     -12.196   5.603   1.478  0.00  0.00    +0.011 C 
ATOM     11  C   UNL     1     -11.861   5.700  -0.011  0.00  0.00    -0.035 C 
ATOM     12  C   UNL     1     -11.606   7.162  -0.382  0.00  0.00    +0.011 C 
ATOM     13  C   UNL     1     -13.033   5.161  -0.834  0.00  0.00    +0.011 C 
ENDBRANCH   1  11
BRANCH   5  14
ATOM     14  C   UNL     1      -5.816   2.749   0.041  0.00  0.00    +0.264 C 
ATOM     15  O   UNL     1      -5.566   3.940   0.046  0.00  0.00    -0.268 OA
ATOM     16  N   UNL     1      -4.812   1.850   0.032  0.00  0.00    -0.203 N 
ATOM     17  H   UNL     1      -5.011   0.901   0.028  0.00  0.00    +0.178 HD
BRANCH  16  18
ATOM     18  N   UNL     1      -3.481   2.286   0.029  0.00  0.00    -0.184 NA
ATOM     19  C   UNL     1      -2.512   1.419   0.020  0.00  0.00    +0.176 C 
BRANCH  19  20
ATOM     20  C   UNL     1      -1.119   1.875   0.017  0.00  0.00    +0.147 A 
ATOM     21  C   UNL     1      -0.013   1.076   0.008  0.00  0.00    +0.051 A 
ATOM     22  C   UNL     1       1.105   1.931   0.002  0.00  0.00    +0.042 A 
ATOM     23  C   UNL     1       0.636   3.196   0.012  0.00  0.00    +0.196 A 
ATOM     24  O   UNL     1      -0.706   3.159   0.024  0.00  0.00    -0.462 OA
ENDBRANCH  19  20
ENDBRANCH  16  18
ENDBRANCH   5  14
TORSDOF 4
