REMARK  Name = ZINC03012222
REMARK  7 active torsions:
REMARK  status: ('A' for Active; 'I' for Inactive)
REMARK    1  A    between atoms: C_1  and  C_2
REMARK    2  A    between atoms: C_2  and  O_3
REMARK    3  A    between atoms: O_3  and  C_4
REMARK    4  A    between atoms: C_9  and  N_12
REMARK    5  A    between atoms: C_13  and  C_15
REMARK    6  A    between atoms: C_20  and  C_35
REMARK    7  A    between atoms: C_23  and  C_26
REMARK                            x       y       z     vdW  Elec       q    Type
REMARK                         _______ _______ _______ _____ _____    ______ ____
ROOT
ATOM      1  C   UNL     1      -7.713  -5.250   3.192  0.00  0.00    +0.149 A 
ATOM      2  C   UNL     1      -8.600  -6.351   3.199  0.00  0.00    +0.078 A 
ATOM      3  C   UNL     1      -9.229  -6.359   4.390  0.00  0.00    +0.119 A 
ATOM      4  N   UNL     1      -8.765  -5.305   5.125  0.00  0.00    -0.238 N 
ATOM      5  N   UNL     1      -7.817  -4.631   4.356  0.00  0.00    -0.164 NA
ATOM      6  C   UNL     1      -9.221  -4.996   6.483  0.00  0.00    +0.215 C 
ATOM      7  C   UNL     1      -9.872  -6.247   7.084  0.00  0.00    +0.063 C 
ATOM      8  C   UNL     1     -10.901  -6.822   6.104  0.00  0.00    +0.104 C 
ATOM      9  N   UNL     1     -10.197  -7.243   4.877  0.00  0.00    -0.322 N 
ATOM     10  H   UNL     1     -10.394  -8.083   4.434  0.00  0.00    +0.148 HD
ENDROOT
BRANCH   8  11
ATOM     11  C   UNL     1     -11.588  -8.008   6.730  0.00  0.00    -0.024 A 
ATOM     12  C   UNL     1     -10.960  -9.240   6.746  0.00  0.00    +0.009 A 
ATOM     13  C   UNL     1     -11.586 -10.331   7.319  0.00  0.00    +0.050 A 
ATOM     14  C   UNL     1     -12.845 -10.193   7.880  0.00  0.00    +0.166 A 
ATOM     15  C   UNL     1     -13.478  -8.952   7.864  0.00  0.00    +0.167 A 
ATOM     16  C   UNL     1     -12.842  -7.862   7.292  0.00  0.00    +0.055 A 
ATOM     17  O   UNL     1     -14.694  -9.075   8.470  0.00  0.00    -0.453 OA
ATOM     18  C   UNL     1     -14.972 -10.488   8.492  0.00  0.00    +0.466 C 
ATOM     19  O   UNL     1     -13.666 -11.093   8.496  0.00  0.00    -0.453 OA
ENDBRANCH   8  11
BRANCH   1  21
ATOM     20  N   UNL     1      -6.017  -3.787   2.206  0.00  0.00    -0.307 N 
ATOM     21  C   UNL     1      -6.821  -4.862   2.081  0.00  0.00    +0.264 C 
ATOM     22  O   UNL     1      -6.813  -5.511   1.053  0.00  0.00    -0.268 OA
ATOM     23  H   UNL     1      -6.024  -3.269   3.025  0.00  0.00    +0.149 HD
BRANCH  20  29
ATOM     24  C   UNL     1      -1.497  -1.836   0.006  0.00  0.00    +0.403 C 
ATOM     25  O   UNL     1      -0.523  -2.563  -0.007  0.00  0.00    -0.226 OA
ATOM     26  N   UNL     1      -2.735  -2.368   0.015  0.00  0.00    -0.267 N 
ATOM     27  C   UNL     1      -3.922  -1.502   0.025  0.00  0.00    +0.113 C 
ATOM     28  C   UNL     1      -4.819  -1.908   1.199  0.00  0.00    +0.041 C 
ATOM     29  C   UNL     1      -5.132  -3.402   1.103  0.00  0.00    +0.076 C 
ATOM     30  C   UNL     1      -3.832  -4.205   1.189  0.00  0.00    +0.041 C 
ATOM     31  C   UNL     1      -2.924  -3.825   0.009  0.00  0.00    +0.113 C 
BRANCH  24  32
ATOM     32  O   UNL     1      -1.339  -0.499   0.012  0.00  0.00    -0.451 OA
BRANCH  32  34
ATOM     33  C   UNL     1      -0.019   1.526   0.010  0.00  0.00    +0.048 C 
ATOM     34  C   UNL     1       0.002  -0.004   0.002  0.00  0.00    +0.230 C 
ENDBRANCH  32  34
ENDBRANCH  24  32
ENDBRANCH  20  29
ENDBRANCH   1  21
BRANCH   6  35
ATOM     35  C   UNL     1      -8.027  -4.574   7.341  0.00  0.00    +0.412 C 
ATOM     36  F   UNL     1      -7.429  -3.440   6.782  0.00  0.00    -0.168 F 
ATOM     37  F   UNL     1      -8.465  -4.280   8.637  0.00  0.00    -0.168 F 
ATOM     38  F   UNL     1      -7.095  -5.617   7.388  0.00  0.00    -0.168 F 
ENDBRANCH   6  35
TORSDOF 6
