REMARK  Name = ZINC09373064
REMARK  9 active torsions:
REMARK  status: ('A' for Active; 'I' for Inactive)
REMARK    1  A    between atoms: C_1  and  C_2
REMARK    2  A    between atoms: C_2  and  O_3
REMARK    3  A    between atoms: O_3  and  C_4
REMARK    4  A    between atoms: C_7  and  C_12
REMARK    5  A    between atoms: C_9  and  O_10
REMARK    6  A    between atoms: O_10  and  C_11
REMARK    7  A    between atoms: C_15  and  C_35
REMARK    8  A    between atoms: C_29  and  C_34
REMARK    9  A    between atoms: C_31  and  C_33
REMARK                            x       y       z     vdW  Elec       q    Type
REMARK                         _______ _______ _______ _____ _____    ______ ____
ROOT
ATOM      1  C   UNL     1       1.142  -6.064   1.761  0.00  0.00    +0.089 C 
ATOM      2  C   UNL     1       1.891  -6.633   0.589  0.00  0.00    +0.027 A 
ATOM      3  C   UNL     1       3.243  -6.564   0.280  0.00  0.00    +0.066 A 
ATOM      4  N   UNL     1       3.443  -7.205  -0.847  0.00  0.00    -0.167 NA
ATOM      5  N   UNL     1       2.212  -7.709  -1.298  0.00  0.00    -0.183 N 
ATOM      6  C   UNL     1       1.270  -7.348  -0.400  0.00  0.00    +0.134 A 
ATOM      7  N   UNL     1      -0.096  -7.596  -0.367  0.00  0.00    -0.302 N 
ATOM      8  C   UNL     1      -0.772  -7.383   0.809  0.00  0.00    +0.017 C 
ATOM      9  C   UNL     1      -0.241  -6.675   1.827  0.00  0.00    +0.024 C 
ATOM     10  C   UNL     1      -0.965  -6.470   3.016  0.00  0.00    +0.162 C 
ATOM     11  O   UNL     1      -0.457  -5.834   3.919  0.00  0.00    -0.292 OA
ATOM     12  C   UNL     1      -2.353  -7.018   3.194  0.00  0.00    +0.080 C 
ATOM     13  C   UNL     1      -3.026  -7.117   1.821  0.00  0.00    +0.014 C 
ATOM     14  C   UNL     1      -2.152  -7.989   0.922  0.00  0.00    +0.051 C 
ATOM     15  C   UNL     1       2.001  -8.447  -2.462  0.00  0.00    +0.253 A 
ATOM     16  N   UNL     1       0.776  -8.849  -2.758  0.00  0.00    -0.216 NA
ATOM     17  C   UNL     1       0.540  -9.550  -3.855  0.00  0.00    +0.044 A 
ATOM     18  C   UNL     1       1.596  -9.862  -4.697  0.00  0.00    +0.046 A 
ATOM     19  C   UNL     1       2.866  -9.424  -4.356  0.00  0.00    +0.044 A 
ATOM     20  N   UNL     1       3.031  -8.723  -3.247  0.00  0.00    -0.216 NA
ATOM     21  C   UNL     1       4.045  -9.739  -5.241  0.00  0.00    +0.066 C 
ATOM     22  C   UNL     1      -0.858 -10.005  -4.184  0.00  0.00    +0.066 C 
ATOM     23  C   UNL     1       4.300  -5.870   1.100  0.00  0.00    +0.068 C 
ATOM     24  H   UNL     1      -0.562  -7.912  -1.157  0.00  0.00    +0.153 HD
ENDROOT
BRANCH   1  28
ATOM     25  C   UNL     1       0.802  -1.825   1.306  0.00  0.00    +0.162 A 
ATOM     26  C   UNL     1       0.261  -2.673   0.353  0.00  0.00    +0.050 A 
ATOM     27  C   UNL     1       0.372  -4.043   0.502  0.00  0.00    +0.008 A 
ATOM     28  C   UNL     1       1.024  -4.570   1.602  0.00  0.00    -0.032 A 
ATOM     29  C   UNL     1       1.566  -3.730   2.557  0.00  0.00    +0.054 A 
ATOM     30  C   UNL     1       1.462  -2.356   2.410  0.00  0.00    +0.162 A 
BRANCH  30  31
ATOM     31  O   UNL     1       2.000  -1.528   3.345  0.00  0.00    -0.491 OA
ATOM     32  C   UNL     1       2.664  -2.143   4.451  0.00  0.00    +0.277 C 
ENDBRANCH  30  31
BRANCH  25  33
ATOM     33  O   UNL     1       0.693  -0.477   1.160  0.00  0.00    -0.489 OA
BRANCH  33  35
ATOM     34  C   UNL     1      -0.019   1.526   0.010  0.00  0.00    +0.048 C 
ATOM     35  C   UNL     1       0.002  -0.004   0.002  0.00  0.00    +0.226 C 
ENDBRANCH  33  35
ENDBRANCH  25  33
ENDBRANCH   1  28
TORSDOF 4
