REMARK  Name = ZINC11592172
REMARK  9 active torsions:
REMARK  status: ('A' for Active; 'I' for Inactive)
REMARK    1  A    between atoms: C_1  and  C_2
REMARK    2  A    between atoms: C_2  and  C_4
REMARK    3  A    between atoms: C_2  and  N_11
REMARK    4  A    between atoms: C_12  and  C_14
REMARK    5  A    between atoms: C_14  and  C_16
REMARK    6  A    between atoms: C_14  and  S_17
REMARK    7  A    between atoms: S_17  and  C_18
REMARK    8  A    between atoms: C_21  and  C_24
REMARK    9  A    between atoms: N_22  and  N_23
REMARK                            x       y       z     vdW  Elec       q    Type
REMARK                         _______ _______ _______ _____ _____    ______ ____
ROOT
ATOM      1  C   UNL     1       2.730   9.583  -0.038  0.00  0.00    +0.137 C 
ATOM      2  C   UNL     1       1.649   9.858  -1.086  0.00  0.00    +0.029 C 
ENDROOT
BRANCH   1   4
ATOM      3  N   UNL     1       3.552  11.821   0.622  0.00  0.00    -0.308 N 
ATOM      4  C   UNL     1       3.757  10.685  -0.075  0.00  0.00    +0.227 C 
ATOM      5  O   UNL     1       4.768  10.551  -0.731  0.00  0.00    -0.275 OA
ATOM      6  H   UNL     1       2.744  11.929   1.147  0.00  0.00    +0.149 HD
BRANCH   3   8
ATOM      7  C   UNL     1       5.631  12.618   1.634  0.00  0.00    +0.033 C 
ATOM      8  C   UNL     1       4.551  12.893   0.586  0.00  0.00    +0.100 C 
BRANCH   8   9
ATOM      9  C   UNL     1       3.884  14.211   0.885  0.00  0.00    -0.027 A 
ATOM     10  C   UNL     1       2.904  14.284   1.857  0.00  0.00    +0.008 A 
ATOM     11  C   UNL     1       2.296  15.493   2.136  0.00  0.00    +0.038 A 
ATOM     12  C   UNL     1       2.661  16.629   1.433  0.00  0.00    +0.123 A 
ATOM     13  C   UNL     1       3.639  16.553   0.456  0.00  0.00    +0.038 A 
ATOM     14  C   UNL     1       4.249  15.344   0.183  0.00  0.00    +0.008 A 
ATOM     15  F   UNL     1       2.062  17.811   1.701  0.00  0.00    -0.205 F 
ENDBRANCH   8   9
ENDBRANCH   3   8
ENDBRANCH   1   4
BRANCH   1  16
ATOM     16  S   UNL     1       3.530   8.000  -0.397  0.00  0.00    -0.072 S 
BRANCH  16  17
ATOM     17  C   UNL     1       2.172   6.906  -0.144  0.00  0.00    +0.209 A 
ATOM     18  N   UNL     1       0.953   7.247   0.208  0.00  0.00    -0.121 NA
ATOM     19  N   UNL     1       0.212   6.201   0.304  0.00  0.00    -0.126 NA
ATOM     20  C   UNL     1       0.914   5.126   0.019  0.00  0.00    +0.188 A 
ATOM     21  N   UNL     1       2.193   5.545  -0.272  0.00  0.00    -0.223 N 
BRANCH  20  22
ATOM     22  C   UNL     1       0.426   3.737   0.017  0.00  0.00    +0.058 A 
ATOM     23  C   UNL     1      -0.866   3.275   0.026  0.00  0.00    +0.019 A 
ATOM     24  C   UNL     1      -1.081   1.915   0.017  0.00  0.00    +0.008 A 
ATOM     25  C   UNL     1      -0.013   1.076   0.008  0.00  0.00    +0.046 A 
ATOM     26  S   UNL     1       1.361   2.216   0.001  0.00  0.00    -0.093 S 
ENDBRANCH  20  22
BRANCH  21  27
ATOM     27  N   UNL     1       3.259   4.764  -0.618  0.00  0.00    -0.295 N 
ATOM     28  H   UNL     1       3.308   4.641  -1.618  0.00  0.00    +0.163 HD
ATOM     29  H   UNL     1       4.120   5.149  -0.259  0.00  0.00    +0.163 HD
ENDBRANCH  21  27
ENDBRANCH  16  17
ENDBRANCH   1  16
TORSDOF 7
