REMARK  Name = ZINC37283446
REMARK  6 active torsions:
REMARK  status: ('A' for Active; 'I' for Inactive)
REMARK    1  A    between atoms: C_1  and  C_2
REMARK    2  A    between atoms: C_2  and  C_4
REMARK    3  A    between atoms: C_2  and  N_10
REMARK    4  A    between atoms: N_10  and  C_11
REMARK    5  A    between atoms: C_16  and  O_17
REMARK    6  A    between atoms: O_17  and  C_18
REMARK                            x       y       z     vdW  Elec       q    Type
REMARK                         _______ _______ _______ _____ _____    ______ ____
ROOT
ATOM      1  N   UNL     1       0.688  -0.476  -1.203  0.00  0.00    -0.334 N 
ATOM      2  H   UNL     1       1.632  -0.695  -1.170  0.00  0.00    +0.147 HD
ENDROOT
BRANCH   1   3
ATOM      3  C   UNL     1      -0.020  -0.613  -2.403  0.00  0.00    +0.072 A 
ATOM      4  C   UNL     1      -1.370  -0.296  -2.454  0.00  0.00    +0.046 A 
ATOM      5  C   UNL     1      -2.067  -0.432  -3.641  0.00  0.00    +0.044 A 
ATOM      6  C   UNL     1      -1.422  -0.883  -4.778  0.00  0.00    +0.039 A 
ATOM      7  C   UNL     1      -0.076  -1.200  -4.734  0.00  0.00    +0.063 A 
ATOM      8  C   UNL     1       0.630  -1.062  -3.550  0.00  0.00    +0.155 A 
ATOM      9 BR   UNL     1       0.801  -1.817  -6.292  0.00  0.00    -0.046 Br
ATOM     10 CL   UNL     1      -3.756  -0.035  -3.703  0.00  0.00    -0.083 Cl
BRANCH   8  11
ATOM     11  O   UNL     1       1.955  -1.369  -3.506  0.00  0.00    -0.492 OA
ATOM     12  C   UNL     1       2.298  -2.717  -3.179  0.00  0.00    +0.277 C 
ENDBRANCH   8  11
ENDBRANCH   1   3
BRANCH   1  14
ATOM     13  C   UNL     1      -0.019   1.526   0.010  0.00  0.00    +0.033 C 
ATOM     14  C   UNL     1       0.002  -0.004   0.002  0.00  0.00    +0.105 C 
BRANCH  14  15
ATOM     15  C   UNL     1       0.731  -0.503   1.223  0.00  0.00    +0.024 A 
ATOM     16  C   UNL     1       0.226  -1.063   2.350  0.00  0.00    +0.030 A 
ATOM     17  C   UNL     1       1.094  -1.451   3.353  0.00  0.00    +0.023 A 
ATOM     18  C   UNL     1       2.425  -1.260   3.180  0.00  0.00    +0.046 A 
ATOM     19  S   UNL     1       2.485  -0.518   1.558  0.00  0.00    -0.099 S 
ATOM     20 BR   UNL     1      -1.639  -1.309   2.546  0.00  0.00    -0.049 Br
ENDBRANCH  14  15
ENDBRANCH   1  14
TORSDOF 4
