REMARK  Name = ZINC37893406
REMARK  6 active torsions:
REMARK  status: ('A' for Active; 'I' for Inactive)
REMARK    1  A    between atoms: C_1  and  S_2
REMARK    2  A    between atoms: S_2  and  N_5
REMARK    3  A    between atoms: C_8  and  N_11
REMARK    4  A    between atoms: N_11  and  C_12
REMARK    5  A    between atoms: C_12  and  C_13
REMARK    6  A    between atoms: C_13  and  O_20
REMARK                            x       y       z     vdW  Elec       q    Type
REMARK                         _______ _______ _______ _____ _____    ______ ____
ROOT
ATOM      1  N   UNL     1       2.256  -3.358  -4.046  0.00  0.00    +0.383 N 
ATOM      2  H   UNL     1       1.936  -4.053  -3.389  0.00  0.00    -0.085 HD
ATOM      3  H   UNL     1       1.813  -3.511  -4.940  0.00  0.00    -0.085 HD
ENDROOT
BRANCH   1   7
ATOM      4  N   UNL     1       0.695  -0.218  -1.740  0.00  0.00    -0.182 NA
ATOM      5  C   UNL     1       0.031  -0.459  -3.028  0.00  0.00    +0.107 C 
ATOM      6  C   UNL     1       0.388  -1.868  -3.512  0.00  0.00    +0.001 C 
ATOM      7  C   UNL     1       1.910  -2.019  -3.551  0.00  0.00    -0.069 C 
ATOM      8  C   UNL     1       2.480  -1.833  -2.143  0.00  0.00    +0.001 C 
ATOM      9  C   UNL     1       2.148  -0.418  -1.646  0.00  0.00    +0.107 C 
BRANCH   4  11
ATOM     10  C   UNL     1      -0.162   2.086  -0.502  0.00  0.00    +0.215 C 
ATOM     11  S   UNL     1      -0.176   0.274  -0.420  0.00  0.00    +0.029 S 
ATOM     12  O   UNL     1       0.579  -0.171   0.699  0.00  0.00    -0.158 OA
ATOM     13  O   UNL     1      -1.490  -0.216  -0.649  0.00  0.00    -0.158 OA
ENDBRANCH   4  11
ENDBRANCH   1   7
BRANCH   1  14
ATOM     14  C   UNL     1       3.714  -3.462  -4.198  0.00  0.00    -0.047 C 
BRANCH  14  15
ATOM     15  C   UNL     1       4.076  -4.864  -4.694  0.00  0.00    +0.051 C 
ATOM     16  C   UNL     1       5.612  -4.986  -4.769  0.00  0.00    +0.033 C 
ATOM     17  C   UNL     1       5.976  -6.446  -4.749  0.00  0.00    +0.003 C 
ATOM     18  C   UNL     1       6.148  -7.030  -6.164  0.00  0.00    +0.000 C 
ATOM     19  C   UNL     1       5.068  -6.539  -7.148  0.00  0.00    +0.000 C 
ATOM     20  C   UNL     1       3.697  -6.506  -6.529  0.00  0.00    +0.003 C 
ATOM     21  C   UNL     1       3.438  -5.087  -5.983  0.00  0.00    +0.033 C 
BRANCH  15  22
ATOM     22  O   UNL     1       3.582  -5.826  -3.760  0.00  0.00    -0.390 OA
ATOM     23  H   UNL     1       3.879  -5.681  -2.852  0.00  0.00    +0.210 HD
ENDBRANCH  15  22
ENDBRANCH  14  15
ENDBRANCH   1  14
TORSDOF 5
