REMARK  Name = ZINC14456945
REMARK  9 active torsions:
REMARK  status: ('A' for Active; 'I' for Inactive)
REMARK    1  A    between atoms: C_1  and  C_2
REMARK    2  A    between atoms: C_5  and  N_9
REMARK    3  A    between atoms: C_7  and  C_8
REMARK    4  A    between atoms: N_9  and  S_10
REMARK    5  A    between atoms: S_10  and  C_13
REMARK    6  A    between atoms: C_26  and  C_29
REMARK    7  A    between atoms: C_32  and  O_36
REMARK    8  A    between atoms: C_33  and  O_35
REMARK    9  A    between atoms: O_36  and  C_37
REMARK                            x       y       z     vdW  Elec       q    Type
REMARK                         _______ _______ _______ _____ _____    ______ ____
ROOT
ATOM      1  C   UNL     1       8.615   3.856   0.915  0.00  0.00    +0.109 A 
ATOM      2  C   UNL     1       8.014   5.022   1.353  0.00  0.00    +0.030 A 
ATOM      3  C   UNL     1       6.749   4.986   1.901  0.00  0.00    +0.025 A 
ATOM      4  C   UNL     1       6.068   3.780   2.017  0.00  0.00    +0.031 A 
ATOM      5  C   UNL     1       6.677   2.606   1.559  0.00  0.00    -0.018 A 
ATOM      6  C   UNL     1       7.944   2.651   1.020  0.00  0.00    +0.034 A 
ATOM      7  C   UNL     1       5.907   1.349   1.673  0.00  0.00    +0.049 C 
ATOM      8  C   UNL     1       6.572   0.027   1.801  0.00  0.00    -0.023 C 
ATOM      9  C   UNL     1       5.792  -0.772   2.521  0.00  0.00    -0.030 C 
ATOM     10  C   UNL     1       4.538  -0.017   2.965  0.00  0.00    +0.033 C 
ATOM     11  C   UNL     1       5.054   1.424   2.975  0.00  0.00    +0.029 C 
ATOM     12  C   UNL     1       4.023   2.509   2.720  0.00  0.00    +0.105 C 
ATOM     13  N   UNL     1       4.791   3.766   2.590  0.00  0.00    -0.336 N 
ATOM     14  H   UNL     1       4.402   4.597   2.907  0.00  0.00    +0.147 HD
ENDROOT
BRANCH  12  15
ATOM     15  C   UNL     1       3.271   2.224   1.445  0.00  0.00    -0.023 A 
ATOM     16  C   UNL     1       3.739   2.720   0.243  0.00  0.00    +0.009 A 
ATOM     17  C   UNL     1       3.053   2.461  -0.929  0.00  0.00    +0.050 A 
ATOM     18  C   UNL     1       1.894   1.703  -0.900  0.00  0.00    +0.161 A 
ATOM     19  C   UNL     1       1.423   1.203   0.310  0.00  0.00    +0.159 A 
ATOM     20  C   UNL     1       2.112   1.470   1.482  0.00  0.00    +0.054 A 
BRANCH  19  21
ATOM     21  O   UNL     1       0.286   0.458   0.343  0.00  0.00    -0.503 OA
ATOM     22  H   UNL     1       0.434  -0.492   0.235  0.00  0.00    +0.292 HD
ENDBRANCH  19  21
BRANCH  18  23
ATOM     23  O   UNL     1       1.218   1.448  -2.052  0.00  0.00    -0.491 OA
ATOM     24  C   UNL     1       1.759   1.993  -3.257  0.00  0.00    +0.277 C 
ENDBRANCH  18  23
ENDBRANCH  12  15
BRANCH   1  25
ATOM     25  S   UNL     1      10.235   3.905   0.223  0.00  0.00    +0.072 S 
ATOM     26  O   UNL     1      10.904   5.000   0.832  0.00  0.00    -0.150 OA
ATOM     27  O   UNL     1      10.740   2.578   0.277  0.00  0.00    -0.150 OA
BRANCH  25  28
ATOM     28  N   UNL     1      10.071   4.283  -1.381  0.00  0.00    -0.216 N 
ATOM     29  H   UNL     1      10.467   5.096  -1.730  0.00  0.00    +0.174 HD
BRANCH  28  34
ATOM     30  C   UNL     1       7.192   0.825  -4.832  0.00  0.00    +0.044 C 
ATOM     31  C   UNL     1       7.956   1.744  -3.914  0.00  0.00    -0.047 A 
ATOM     32  C   UNL     1       8.888   1.222  -3.036  0.00  0.00    +0.005 A 
ATOM     33  C   UNL     1       9.594   2.062  -2.197  0.00  0.00    +0.025 A 
ATOM     34  C   UNL     1       9.361   3.431  -2.231  0.00  0.00    +0.048 A 
ATOM     35  C   UNL     1       8.425   3.952  -3.115  0.00  0.00    +0.028 A 
ATOM     36  C   UNL     1       7.725   3.107  -3.954  0.00  0.00    -0.046 A 
ATOM     37  C   UNL     1       6.708   3.670  -4.913  0.00  0.00    +0.044 C 
ENDBRANCH  28  34
ENDBRANCH  25  28
ENDBRANCH   1  25
TORSDOF 6
