REMARK  Name = ZINC03476884
REMARK  5 active torsions:
REMARK  status: ('A' for Active; 'I' for Inactive)
REMARK    1  A    between atoms: C_3  and  O_12
REMARK    2  A    between atoms: O_12  and  C_13
REMARK    3  A    between atoms: C_13  and  C_14
REMARK    4  A    between atoms: N_16  and  C_17
REMARK    5  A    between atoms: C_17  and  C_23
REMARK                            x       y       z     vdW  Elec       q    Type
REMARK                         _______ _______ _______ _____ _____    ______ ____
ROOT
ATOM      1  C   UNL     1      -0.013   1.086   0.008  0.00  0.00    +0.324 C 
ENDROOT
BRANCH   1   2
ATOM      2  C   UNL     1      -0.718   1.572   1.248  0.00  0.00    +0.252 C 
ATOM      3  O   UNL     1      -1.714   2.256   1.150  0.00  0.00    -0.272 OA
ATOM      4  N   UNL     1      -0.242   1.246   2.466  0.00  0.00    -0.295 N 
ATOM      5  H   UNL     1       0.555   0.699   2.544  0.00  0.00    +0.150 HD
BRANCH   4   6
ATOM      6  C   UNL     1      -0.927   1.718   3.671  0.00  0.00    +0.121 C 
ATOM      7  C   UNL     1      -0.948   3.248   3.679  0.00  0.00    +0.041 C 
ATOM      8  C   UNL     1      -1.664   3.742   4.938  0.00  0.00    +0.003 C 
ATOM      9  C   UNL     1      -0.924   3.235   6.178  0.00  0.00    +0.000 C 
ATOM     10  C   UNL     1      -0.903   1.705   6.169  0.00  0.00    +0.003 C 
ATOM     11  C   UNL     1      -0.187   1.212   4.911  0.00  0.00    +0.041 C 
BRANCH   6  12
ATOM     12  C   UNL     1      -2.308   1.209   3.682  0.00  0.00    +0.088 C 
ATOM     13  N   UNL     1      -3.374   0.816   3.690  0.00  0.00    -0.194 NA
ENDBRANCH   6  12
ENDBRANCH   4   6
ENDBRANCH   1   2
BRANCH   1  14
ATOM     14  O   UNL     1      -0.704   1.559  -1.150  0.00  0.00    -0.483 OA
BRANCH  14  17
ATOM     15  C   UNL     1       1.491   0.049  -3.615  0.00  0.00    +0.012 A 
ATOM     16  C   UNL     1       0.960   0.421  -2.419  0.00  0.00    +0.046 A 
ATOM     17  C   UNL     1      -0.194   1.208  -2.359  0.00  0.00    +0.122 A 
ATOM     18  C   UNL     1      -0.813   1.632  -3.501  0.00  0.00    +0.054 A 
ATOM     19  C   UNL     1      -0.288   1.269  -4.751  0.00  0.00    -0.014 A 
ATOM     20  C   UNL     1       0.880   0.467  -4.809  0.00  0.00    -0.017 A 
ATOM     21  C   UNL     1       1.405   0.105  -6.062  0.00  0.00    +0.023 A 
ATOM     22  C   UNL     1       0.788   0.528  -7.199  0.00  0.00    +0.018 A 
ATOM     23  C   UNL     1      -0.360   1.317  -7.142  0.00  0.00    +0.016 A 
ATOM     24  C   UNL     1      -0.897   1.687  -5.947  0.00  0.00    +0.010 A 
ATOM     25 BR   UNL     1       1.498   0.039  -8.882  0.00  0.00    -0.050 Br
ENDBRANCH  14  17
ENDBRANCH   1  14
TORSDOF 5
