REMARK  Name = ZINC14884794
REMARK  7 active torsions:
REMARK  status: ('A' for Active; 'I' for Inactive)
REMARK    1  A    between atoms: C_4  and  C_7
REMARK    2  A    between atoms: C_7  and  C_8
REMARK    3  A    between atoms: C_8  and  C_9
REMARK    4  A    between atoms: C_9  and  N_10
REMARK    5  A    between atoms: C_11  and  C_13
REMARK    6  A    between atoms: C_21  and  C_22
REMARK    7  A    between atoms: C_21  and  N_64
REMARK                            x       y       z     vdW  Elec       q    Type
REMARK                         _______ _______ _______ _____ _____    ______ ____
ROOT
ATOM      1  C   UNL     1      -2.549   6.127   4.496  0.00  0.00    +0.082 C 
ATOM      2  C   UNL     1      -1.731   6.332   3.219  0.00  0.00    +0.020 C 
ATOM      3  C   UNL     1      -2.895   5.343   3.232  0.00  0.00    -0.021 C 
ATOM      4  C   UNL     1      -4.170   5.730   2.475  0.00  0.00    -0.011 C 
ATOM      5  C   UNL     1      -4.100   5.139   1.063  0.00  0.00    -0.078 C 
ATOM      6  C   UNL     1      -2.588   3.367   1.748  0.00  0.00    -0.078 C 
ATOM      7  C   UNL     1      -2.562   3.847   3.204  0.00  0.00    -0.011 C 
ATOM      8  N   UNL     1      -3.914   3.675   1.168  0.00  0.00    +0.383 N 
ATOM      9  H   UNL     1      -4.642   3.291   1.781  0.00  0.00    -0.081 HD
ENDROOT
BRANCH   1  11
ATOM     10  N   UNL     1      -3.230   7.957   6.014  0.00  0.00    -0.315 N 
ATOM     11  C   UNL     1      -3.486   7.233   4.907  0.00  0.00    +0.217 C 
ATOM     12  O   UNL     1      -4.472   7.472   4.241  0.00  0.00    -0.275 OA
ATOM     13  H   UNL     1      -2.442   7.766   6.546  0.00  0.00    +0.149 HD
BRANCH  10  14
ATOM     14  C   UNL     1      -4.141   9.033   6.413  0.00  0.00    +0.104 C 
BRANCH  14  15
ATOM     15  C   UNL     1      -3.623   9.691   7.694  0.00  0.00    +0.023 C 
BRANCH  15  16
ATOM     16  C   UNL     1      -4.574  10.814   8.111  0.00  0.00    +0.036 C 
BRANCH  16  20
ATOM     17  C   UNL     1      -3.128  12.652  11.686  0.00  0.00    +0.000 A 
ATOM     18  C   UNL     1      -2.730  13.132  10.452  0.00  0.00    +0.000 A 
ATOM     19  C   UNL     1      -3.199  12.537   9.295  0.00  0.00    +0.003 A 
ATOM     20  C   UNL     1      -4.064  11.462   9.372  0.00  0.00    -0.047 A 
ATOM     21  C   UNL     1      -4.465  10.985  10.606  0.00  0.00    +0.003 A 
ATOM     22  C   UNL     1      -3.994  11.577  11.763  0.00  0.00    +0.000 A 
ENDBRANCH  16  20
ENDBRANCH  15  16
ENDBRANCH  14  15
ENDBRANCH  10  14
ENDBRANCH   1  11
BRANCH   8  23
ATOM     23  C   UNL     1      -4.035   3.055  -0.167  0.00  0.00    -0.024 C 
BRANCH  23  24
ATOM     24  C   UNL     1      -3.719   1.586  -0.056  0.00  0.00    +0.009 A 
ATOM     25  C   UNL     1      -2.528   1.011  -0.319  0.00  0.00    +0.021 A 
ATOM     26  C   UNL     1      -2.667  -0.373  -0.095  0.00  0.00    +0.020 A 
ATOM     27  C   UNL     1      -3.936  -0.594   0.303  0.00  0.00    +0.093 A 
ATOM     28  N   UNL     1      -4.588   0.607   0.333  0.00  0.00    -0.307 N 
ATOM     29  C   UNL     1      -5.925   0.800   0.695  0.00  0.00    +0.138 A 
ATOM     30  C   UNL     1      -6.733  -0.300   0.957  0.00  0.00    +0.048 A 
ATOM     31  C   UNL     1      -8.052  -0.096   1.320  0.00  0.00    +0.025 A 
ATOM     32  C   UNL     1      -8.522   1.209   1.403  0.00  0.00    +0.059 A 
ATOM     33  C   UNL     1      -7.663   2.255   1.123  0.00  0.00    +0.133 A 
ATOM     34  N   UNL     1      -6.410   2.028   0.779  0.00  0.00    -0.236 NA
ATOM     35 CL   UNL     1     -10.169   1.522   1.854  0.00  0.00    -0.082 Cl
ENDBRANCH  23  24
ENDBRANCH   8  23
TORSDOF 7
