REMARK  Name = ZINC46337941
REMARK  8 active torsions:
REMARK  status: ('A' for Active; 'I' for Inactive)
REMARK    1  A    between atoms: C_1  and  C_2
REMARK    2  A    between atoms: C_4  and  C_7
REMARK    3  A    between atoms: C_7  and  N_8
REMARK    4  A    between atoms: N_16  and  C_17
REMARK    5  A    between atoms: C_17  and  C_18
REMARK    6  A    between atoms: C_18  and  C_20
REMARK    7  A    between atoms: C_18  and  N_21
REMARK    8  A    between atoms: C_26  and  C_28
REMARK                            x       y       z     vdW  Elec       q    Type
REMARK                         _______ _______ _______ _____ _____    ______ ____
ROOT
ATOM      1  N   UNL     1      -1.396  -3.689   3.889  0.00  0.00    -0.294 NA
ATOM      2  C   UNL     1      -2.139  -4.871   4.347  0.00  0.00    +0.104 C 
ATOM      3  C   UNL     1      -3.532  -4.874   3.707  0.00  0.00    +0.124 C 
ATOM      4  N   UNL     1      -4.179  -3.584   3.991  0.00  0.00    -0.283 N 
ATOM      5  C   UNL     1      -3.437  -2.351   3.685  0.00  0.00    +0.124 C 
ATOM      6  C   UNL     1      -2.048  -2.447   4.325  0.00  0.00    +0.104 C 
ATOM      7  C   UNL     1      -5.419  -3.533   4.516  0.00  0.00    +0.302 C 
ATOM      8  O   UNL     1      -5.902  -2.462   4.831  0.00  0.00    -0.253 OA
ATOM      9  N   UNL     1      -6.123  -4.668   4.693  0.00  0.00    -0.301 N 
ATOM     10  H   UNL     1      -5.712  -5.528   4.510  0.00  0.00    +0.150 HD
ENDROOT
BRANCH   1  11
ATOM     11  C   UNL     1       0.001  -3.737   4.341  0.00  0.00    +0.140 C 
BRANCH  11  15
ATOM     12  C   UNL     1       1.298  -8.559   4.014  0.00  0.00    +0.073 C 
ATOM     13  C   UNL     1       1.258  -7.114   3.591  0.00  0.00    +0.076 A 
ATOM     14  N   UNL     1       0.646  -6.112   4.171  0.00  0.00    -0.248 NA
ATOM     15  C   UNL     1       0.704  -4.892   3.676  0.00  0.00    +0.063 A 
ATOM     16  C   UNL     1       1.427  -4.724   2.539  0.00  0.00    +0.071 A 
ATOM     17  S   UNL     1       1.996  -6.393   2.261  0.00  0.00    -0.080 S 
ENDBRANCH  11  15
ENDBRANCH   1  11
BRANCH   9  18
ATOM     18  C   UNL     1      -7.510  -4.605   5.163  0.00  0.00    +0.090 C 
BRANCH  18  19
ATOM     19  C   UNL     1      -8.133  -6.000   5.100  0.00  0.00    -0.054 C 
ATOM     20  C   UNL     1      -9.493  -5.983   5.802  0.00  0.00    -0.012 C 
BRANCH  19  21
ATOM     21  N   UNL     1      -8.313  -6.394   3.696  0.00  0.00    +0.384 N 
ATOM     22  C   UNL     1      -9.071  -5.354   2.991  0.00  0.00    -0.078 C 
ATOM     23  C   UNL     1      -9.331  -5.796   1.549  0.00  0.00    -0.019 C 
ATOM     24  C   UNL     1      -7.992  -6.022   0.841  0.00  0.00    -0.003 C 
ATOM     25  C   UNL     1      -7.178  -7.054   1.627  0.00  0.00    -0.016 C 
ATOM     26  C   UNL     1      -6.998  -6.565   3.066  0.00  0.00    -0.071 C 
ATOM     27  C   UNL     1      -6.185  -7.593   3.855  0.00  0.00    -0.013 C 
ATOM     28  H   UNL     1      -8.820  -7.265   3.654  0.00  0.00    -0.081 HD
ENDBRANCH  19  21
ENDBRANCH  18  19
ENDBRANCH   9  18
TORSDOF 5
