REMARK  Name = ZINC22017123
REMARK  5 active torsions:
REMARK  status: ('A' for Active; 'I' for Inactive)
REMARK    1  A    between atoms: C_10  and  C_11
REMARK    2  A    between atoms: C_11  and  C_12
REMARK    3  A    between atoms: N_14  and  N_15
REMARK    4  A    between atoms: C_16  and  C_17
REMARK    5  A    between atoms: C_26  and  O_27
REMARK                            x       y       z     vdW  Elec       q    Type
REMARK                         _______ _______ _______ _____ _____    ______ ____
ROOT
ATOM      1  C   UNL     1      -0.141   9.390   0.150  0.00  0.00    +0.237 C 
ATOM      2  O   UNL     1      -1.188  10.002   0.162  0.00  0.00    -0.274 OA
ATOM      3  N   UNL     1      -0.147   8.043   0.143  0.00  0.00    -0.207 N 
ATOM      4  H   UNL     1       0.803   7.488   0.132  0.00  0.00    +0.177 HD
ENDROOT
BRANCH   3   5
ATOM      5  N   UNL     1      -1.363   7.348   0.150  0.00  0.00    -0.188 NA
ATOM      6  C   UNL     1      -1.371   6.052   0.248  0.00  0.00    +0.142 C 
BRANCH   6   7
ATOM      7  C   UNL     1      -0.116   5.326   0.490  0.00  0.00    +0.044 A 
ATOM      8  C   UNL     1       0.318   4.262  -0.413  0.00  0.00    -0.006 A 
ATOM      9  C   UNL     1      -0.442   3.899  -1.532  0.00  0.00    +0.009 A 
ATOM     10  C   UNL     1       0.000   2.905  -2.353  0.00  0.00    +0.001 A 
ATOM     11  C   UNL     1       1.193   2.236  -2.088  0.00  0.00    +0.001 A 
ATOM     12  C   UNL     1       1.956   2.563  -1.009  0.00  0.00    +0.008 A 
ATOM     13  C   UNL     1       1.534   3.587  -0.144  0.00  0.00    -0.017 A 
ATOM     14  C   UNL     1       2.294   3.953   0.981  0.00  0.00    +0.012 A 
ATOM     15  C   UNL     1       1.877   4.945   1.810  0.00  0.00    +0.046 A 
ATOM     16  C   UNL     1       0.687   5.638   1.587  0.00  0.00    +0.126 A 
BRANCH  16  17
ATOM     17  O   UNL     1       0.309   6.621   2.442  0.00  0.00    -0.506 OA
ATOM     18  H   UNL     1       0.940   6.870   3.308  0.00  0.00    +0.292 HD
ENDBRANCH  16  17
ENDBRANCH   6   7
ENDBRANCH   3   5
BRANCH   1  19
ATOM     19  C   UNL     1       1.168  10.138   0.143  0.00  0.00    +0.133 C 
BRANCH  19  29
ATOM     20  C   UNL     1       0.239  13.658   3.742  0.00  0.00    +0.001 A 
ATOM     21  C   UNL     1       0.485  12.286   3.752  0.00  0.00    +0.001 A 
ATOM     22  C   UNL     1       0.702  11.604   2.594  0.00  0.00    +0.009 A 
ATOM     23  C   UNL     1       0.674  12.289   1.368  0.00  0.00    -0.014 A 
ATOM     24  C   UNL     1       0.428  13.685   1.358  0.00  0.00    -0.018 A 
ATOM     25  C   UNL     1       0.208  14.355   2.574  0.00  0.00    +0.008 A 
ATOM     26  C   UNL     1       0.404  14.372   0.132  0.00  0.00    +0.008 A 
ATOM     27  C   UNL     1       0.622  13.690  -1.026  0.00  0.00    +0.001 A 
ATOM     28  C   UNL     1       0.868  12.319  -1.016  0.00  0.00    +0.005 A 
ATOM     29  C   UNL     1       0.899  11.621   0.153  0.00  0.00    -0.031 A 
ENDBRANCH  19  29
ENDBRANCH   1  19
TORSDOF 5
