REMARK  Name = ZINC04802222
REMARK  3 active torsions:
REMARK  status: ('A' for Active; 'I' for Inactive)
REMARK    1  A    between atoms: C_4  and  N_22
REMARK    2  A    between atoms: C_5  and  N_7
REMARK    3  A    between atoms: C_8  and  C_10
REMARK                            x       y       z     vdW  Elec       q    Type
REMARK                         _______ _______ _______ _____ _____    ______ ____
ROOT
ATOM      1  N   UNL     1       1.245  -4.945  -0.051  0.00  0.00    -0.279 N 
ATOM      2  C   UNL     1       0.084  -4.259  -0.041  0.00  0.00    +0.255 C 
ATOM      3  O   UNL     1      -0.975  -4.857  -0.020  0.00  0.00    -0.270 OA
ATOM      4  H   UNL     1       2.087  -4.471  -0.133  0.00  0.00    +0.155 HD
ENDROOT
BRANCH   2   5
ATOM      5  C   UNL     1       0.099  -2.787  -0.055  0.00  0.00    +0.122 A 
ATOM      6  C   UNL     1       1.297  -2.094  -0.080  0.00  0.00    +0.031 A 
ATOM      7  C   UNL     1       1.265  -0.677  -0.094  0.00  0.00    +0.020 A 
ATOM      8  C   UNL     1       2.461   0.056  -0.119  0.00  0.00    +0.031 A 
ATOM      9  C   UNL     1       2.422   1.421  -0.131  0.00  0.00    +0.042 A 
ATOM     10  C   UNL     1       1.205   2.091  -0.119  0.00  0.00    +0.023 A 
ATOM     11  C   UNL     1       0.018   1.390  -0.094  0.00  0.00    +0.048 A 
ATOM     12  C   UNL     1       0.032  -0.001  -0.081  0.00  0.00    +0.139 A 
ATOM     13  O   UNL     1      -1.133  -0.684  -0.057  0.00  0.00    -0.422 OA
ATOM     14  C   UNL     1      -1.156  -2.027  -0.044  0.00  0.00    +0.350 A 
ATOM     15  O   UNL     1      -2.221  -2.615  -0.023  0.00  0.00    -0.244 OA
ATOM     16 CL   UNL     1       3.903   2.326  -0.163  0.00  0.00    -0.084 Cl
ENDBRANCH   2   5
BRANCH   1  21
ATOM     17  C   UNL     1       0.207  -8.451  -0.429  0.00  0.00    +0.002 A 
ATOM     18  C   UNL     1       1.213  -9.098   0.266  0.00  0.00    +0.002 A 
ATOM     19  C   UNL     1       2.229  -8.369   0.856  0.00  0.00    +0.034 A 
ATOM     20  C   UNL     1       2.242  -6.992   0.752  0.00  0.00    +0.147 A 
ATOM     21  C   UNL     1       1.234  -6.339   0.055  0.00  0.00    +0.064 A 
ATOM     22  C   UNL     1       0.211  -7.074  -0.531  0.00  0.00    +0.025 A 
BRANCH  20  23
ATOM     23  N   UNL     1       3.330  -6.212   1.384  0.00  0.00    +0.058 N 
ATOM     24  O   UNL     1       4.266  -6.787   1.910  0.00  0.00    -0.126 OA
ATOM     25  O   UNL     1       3.289  -4.994   1.379  0.00  0.00    -0.126 OA
ENDBRANCH  20  23
ENDBRANCH   1  21
TORSDOF 3
