REMARK  Name = ZINC18194365
REMARK  7 active torsions:
REMARK  status: ('A' for Active; 'I' for Inactive)
REMARK    1  A    between atoms: C_1  and  C_2
REMARK    2  A    between atoms: C_5  and  C_8
REMARK    3  A    between atoms: C_8  and  C_25
REMARK    4  A    between atoms: C_10  and  C_12
REMARK    5  A    between atoms: N_14  and  C_15
REMARK    6  A    between atoms: C_19  and  N_21
REMARK    7  A    between atoms: C_28  and  C_31
REMARK                            x       y       z     vdW  Elec       q    Type
REMARK                         _______ _______ _______ _____ _____    ______ ____
ROOT
ATOM      1  C   UNL     1      -3.256   2.084  -0.741  0.00  0.00    +0.032 C 
ATOM      2  C   UNL     1      -2.623   3.461  -0.529  0.00  0.00    +0.031 C 
ATOM      3  C   UNL     1      -3.908   3.088   0.212  0.00  0.00    +0.091 C 
ENDROOT
BRANCH   1   8
ATOM      4  C   UNL     1      -0.585  -2.473   1.601  0.00  0.00    +0.044 C 
ATOM      5  C   UNL     1      -1.281  -1.284   0.990  0.00  0.00    -0.050 A 
ATOM      6  C   UNL     1      -1.955  -0.388   1.798  0.00  0.00    +0.003 A 
ATOM      7  C   UNL     1      -2.598   0.700   1.237  0.00  0.00    +0.005 A 
ATOM      8  C   UNL     1      -2.559   0.896  -0.131  0.00  0.00    -0.036 A 
ATOM      9  C   UNL     1      -1.885  -0.001  -0.938  0.00  0.00    +0.005 A 
ATOM     10  C   UNL     1      -1.246  -1.091  -0.378  0.00  0.00    +0.003 A 
ENDBRANCH   1   8
BRANCH   1  11
ATOM     11  C   UNL     1      -3.942   1.829  -2.059  0.00  0.00    -0.036 A 
ATOM     12  C   UNL     1      -3.697   2.658  -3.138  0.00  0.00    +0.005 A 
ATOM     13  C   UNL     1      -4.322   2.421  -4.347  0.00  0.00    +0.003 A 
ATOM     14  C   UNL     1      -5.200   1.361  -4.475  0.00  0.00    -0.050 A 
ATOM     15  C   UNL     1      -5.449   0.535  -3.395  0.00  0.00    +0.003 A 
ATOM     16  C   UNL     1      -4.820   0.769  -2.187  0.00  0.00    +0.005 A 
ATOM     17  C   UNL     1      -5.887   1.106  -5.792  0.00  0.00    +0.044 C 
ENDBRANCH   1  11
BRANCH   3  18
ATOM     18  C   UNL     1      -5.187   3.745  -0.239  0.00  0.00    +0.221 C 
ATOM     19  O   UNL     1      -5.146   4.748  -0.920  0.00  0.00    -0.275 OA
ATOM     20  N   UNL     1      -6.376   3.220   0.115  0.00  0.00    -0.285 N 
ATOM     21  H   UNL     1      -6.410   2.376   0.594  0.00  0.00    +0.155 HD
BRANCH  20  22
ATOM     22  C   UNL     1      -7.562   3.890  -0.207  0.00  0.00    +0.036 A 
ATOM     23  C   UNL     1      -7.574   5.276  -0.301  0.00  0.00    +0.025 A 
ATOM     24  C   UNL     1      -8.743   5.935  -0.625  0.00  0.00    +0.024 A 
ATOM     25  C   UNL     1      -9.906   5.216  -0.844  0.00  0.00    +0.071 A 
ATOM     26  C   UNL     1      -9.898   3.836  -0.746  0.00  0.00    +0.146 A 
ATOM     27  C   UNL     1      -8.729   3.172  -0.427  0.00  0.00    +0.057 A 
ATOM     28 CL   UNL     1     -11.376   6.048  -1.244  0.00  0.00    -0.081 Cl
BRANCH  26  29
ATOM     29  N   UNL     1     -11.143   3.071  -0.981  0.00  0.00    +0.058 N 
ATOM     30  O   UNL     1     -11.136   1.856  -0.895  0.00  0.00    -0.126 OA
ATOM     31  O   UNL     1     -12.173   3.656  -1.262  0.00  0.00    -0.126 OA
ENDBRANCH  26  29
ENDBRANCH  20  22
ENDBRANCH   3  18
TORSDOF 5
