REMARK  Name = ZINC64717842
REMARK  8 active torsions:
REMARK  status: ('A' for Active; 'I' for Inactive)
REMARK    1  A    between atoms: C_1  and  C_2
REMARK    2  A    between atoms: C_2  and  N_3
REMARK    3  A    between atoms: C_5  and  C_17
REMARK    4  A    between atoms: N_19  and  C_20
REMARK    5  A    between atoms: C_20  and  C_21
REMARK    6  A    between atoms: N_23  and  C_24
REMARK    7  A    between atoms: C_24  and  C_25
REMARK    8  A    between atoms: C_25  and  C_26
REMARK                            x       y       z     vdW  Elec       q    Type
REMARK                         _______ _______ _______ _____ _____    ______ ____
ROOT
ATOM      1  C   UNL     1      -2.990  -2.842   2.382  0.00  0.00    +0.246 C 
ATOM      2  O   UNL     1      -3.573  -3.910   2.329  0.00  0.00    -0.270 OA
ATOM      3  N   UNL     1      -2.540  -2.378   3.565  0.00  0.00    -0.303 N 
ATOM      4  H   UNL     1      -2.076  -1.527   3.607  0.00  0.00    +0.150 HD
ENDROOT
BRANCH   1   7
ATOM      5  N   UNL     1      -1.372  -0.511   0.012  0.00  0.00    -0.325 N 
ATOM      6  C   UNL     1      -2.065  -0.771   1.280  0.00  0.00    +0.149 C 
ATOM      7  C   UNL     1      -2.787  -2.092   1.208  0.00  0.00    +0.079 C 
ATOM      8  C   UNL     1      -3.244  -2.567   0.013  0.00  0.00    +0.198 C 
ATOM      9  O   UNL     1      -3.911  -3.743  -0.044  0.00  0.00    -0.287 OA
ATOM     10  C   UNL     1      -3.006  -1.787  -1.211  0.00  0.00    +0.047 A 
ATOM     11  C   UNL     1      -2.050  -0.751  -1.181  0.00  0.00    +0.045 A 
ATOM     12  C   UNL     1      -1.802  -0.002  -2.316  0.00  0.00    +0.073 A 
ATOM     13  C   UNL     1      -2.502  -0.266  -3.485  0.00  0.00    +0.168 A 
ATOM     14  C   UNL     1      -3.456  -1.286  -3.520  0.00  0.00    +0.167 A 
ATOM     15  C   UNL     1      -3.706  -2.052  -2.389  0.00  0.00    +0.063 A 
ATOM     16  O   UNL     1      -3.995  -1.333  -4.775  0.00  0.00    -0.453 OA
ATOM     17  C   UNL     1      -3.656  -0.074  -5.386  0.00  0.00    +0.466 C 
ATOM     18  O   UNL     1      -2.444   0.317  -4.716  0.00  0.00    -0.453 OA
BRANCH   5  20
ATOM     19  C   UNL     1      -0.019   1.526   0.010  0.00  0.00    +0.024 C 
ATOM     20  C   UNL     1       0.002  -0.004   0.002  0.00  0.00    +0.102 C 
ENDBRANCH   5  20
ENDBRANCH   1   7
BRANCH   3  21
ATOM     21  C   UNL     1      -2.752  -3.158   4.787  0.00  0.00    +0.200 C 
BRANCH  21  22
ATOM     22  C   UNL     1      -2.158  -2.424   5.961  0.00  0.00    +0.230 C 
ATOM     23  O   UNL     1      -1.611  -1.354   5.794  0.00  0.00    -0.274 OA
ATOM     24  N   UNL     1      -2.234  -2.956   7.197  0.00  0.00    -0.314 N 
ATOM     25  H   UNL     1      -2.671  -3.811   7.331  0.00  0.00    +0.149 HD
BRANCH  24  26
ATOM     26  C   UNL     1      -1.656  -2.242   8.338  0.00  0.00    +0.108 C 
BRANCH  26  27
ATOM     27  C   UNL     1      -1.878  -3.057   9.614  0.00  0.00    +0.052 C 
BRANCH  27  28
ATOM     28  C   UNL     1      -1.284  -2.322  10.789  0.00  0.00    -0.040 C 
ATOM     29  C   UNL     1      -1.930  -1.496  11.642  0.00  0.00    +0.002 A 
ATOM     30  C   UNL     1      -3.326  -1.050  11.729  0.00  0.00    +0.048 A 
ATOM     31  C   UNL     1      -3.683  -0.198  12.718  0.00  0.00    +0.124 A 
ATOM     32  C   UNL     1      -2.752   0.268  13.661  0.00  0.00    +0.040 A 
ATOM     33  C   UNL     1      -1.453  -0.097  13.645  0.00  0.00    +0.029 A 
ATOM     34  C   UNL     1      -0.969  -0.989  12.648  0.00  0.00    +0.043 A 
ATOM     35  N   UNL     1       0.224  -1.484  12.426  0.00  0.00    -0.380 N 
ATOM     36  C   UNL     1       0.154  -2.366  11.255  0.00  0.00    +0.144 C 
ATOM     37  F   UNL     1      -4.966   0.215  12.801  0.00  0.00    -0.205 F 
ATOM     38  H   UNL     1       1.020  -1.300  12.949  0.00  0.00    +0.160 HD
ENDBRANCH  27  28
ENDBRANCH  26  27
ENDBRANCH  24  26
ENDBRANCH  21  22
ENDBRANCH   3  21
TORSDOF 7
