REMARK  Name = ZINC05605030
REMARK  4 active torsions:
REMARK  status: ('A' for Active; 'I' for Inactive)
REMARK    1  A    between atoms: C_10  and  C_11
REMARK    2  A    between atoms: N_16  and  N_17
REMARK    3  A    between atoms: C_18  and  C_19
REMARK    4  A    between atoms: C_24  and  O_25
REMARK                            x       y       z     vdW  Elec       q    Type
REMARK                         _______ _______ _______ _____ _____    ______ ____
ROOT
ATOM      1  C   UNL     1      -7.096   0.132   0.067  0.00  0.00    +0.081 A 
ATOM      2  C   UNL     1      -6.903   1.475   0.245  0.00  0.00    +0.077 A 
ATOM      3  S   UNL     1      -5.121   1.572   0.142  0.00  0.00    -0.059 S 
ATOM      4  C   UNL     1      -4.815  -0.169  -0.126  0.00  0.00    +0.178 A 
ATOM      5  N   UNL     1      -6.042  -0.658  -0.120  0.00  0.00    -0.224 NA
ATOM      6  N   UNL     1      -3.610  -0.829  -0.300  0.00  0.00    -0.215 N 
ATOM      7  H   UNL     1      -3.599  -1.789  -0.438  0.00  0.00    +0.176 HD
ENDROOT
BRANCH   1  17
ATOM      8  C   UNL     1      -9.389  -3.814   2.372  0.00  0.00    +0.001 A 
ATOM      9  C   UNL     1      -8.095  -3.297   2.378  0.00  0.00    +0.001 A 
ATOM     10  C   UNL     1      -7.775  -2.200   1.638  0.00  0.00    +0.009 A 
ATOM     11  C   UNL     1      -8.759  -1.578   0.857  0.00  0.00    -0.009 A 
ATOM     12  C   UNL     1     -10.075  -2.101   0.849  0.00  0.00    -0.017 A 
ATOM     13  C   UNL     1     -10.370  -3.236   1.625  0.00  0.00    +0.008 A 
ATOM     14  C   UNL     1     -11.063  -1.479   0.066  0.00  0.00    +0.008 A 
ATOM     15  C   UNL     1     -10.753  -0.381  -0.678  0.00  0.00    +0.001 A 
ATOM     16  C   UNL     1      -9.468   0.149  -0.677  0.00  0.00    +0.010 A 
ATOM     17  C   UNL     1      -8.464  -0.435   0.075  0.00  0.00    +0.009 A 
ENDBRANCH   1  17
BRANCH   6  18
ATOM     18  N   UNL     1      -2.408  -0.110  -0.277  0.00  0.00    -0.188 NA
ATOM     19  C   UNL     1      -1.278  -0.729  -0.440  0.00  0.00    +0.141 C 
BRANCH  19  20
ATOM     20  C   UNL     1      -0.013   0.027  -0.416  0.00  0.00    +0.036 A 
ATOM     21  C   UNL     1       1.204  -0.635  -0.591  0.00  0.00    +0.013 A 
ATOM     22  C   UNL     1       2.384   0.079  -0.568  0.00  0.00    +0.001 A 
ATOM     23  C   UNL     1       2.367   1.449  -0.371  0.00  0.00    +0.004 A 
ATOM     24  C   UNL     1       1.169   2.116  -0.196  0.00  0.00    +0.046 A 
ATOM     25  C   UNL     1      -0.025   1.415  -0.217  0.00  0.00    +0.125 A 
BRANCH  25  26
ATOM     26  O   UNL     1      -1.204   2.070  -0.051  0.00  0.00    -0.506 OA
ATOM     27  H   UNL     1      -1.491   2.135   0.870  0.00  0.00    +0.292 HD
ENDBRANCH  25  26
ENDBRANCH  19  20
ENDBRANCH   6  18
TORSDOF 4
