REMARK  Name = ZINC59039876
REMARK  13 active torsions:
REMARK  status: ('A' for Active; 'I' for Inactive)
REMARK    1  A    between atoms: C_1  and  C_2
REMARK    2  A    between atoms: C_2  and  O_3
REMARK    3  A    between atoms: O_3  and  C_4
REMARK    4  A    between atoms: C_6  and  C_11
REMARK    5  A    between atoms: C_9  and  O_10
REMARK    6  A    between atoms: N_12  and  N_13
REMARK    7  A    between atoms: C_16  and  S_19
REMARK    8  A    between atoms: S_19  and  C_20
REMARK    9  A    between atoms: C_20  and  C_21
REMARK   10  A    between atoms: C_28  and  O_35
REMARK   11  A    between atoms: C_29  and  O_33
REMARK   12  A    between atoms: O_33  and  C_34
REMARK   13  A    between atoms: O_35  and  C_36
REMARK                            x       y       z     vdW  Elec       q    Type
REMARK                         _______ _______ _______ _____ _____    ______ ____
ROOT
ATOM      1  N   UNL     1      -0.644  -7.119   1.245  0.00  0.00    -0.205 N 
ATOM      2  C   UNL     1      -0.534  -8.487   1.075  0.00  0.00    +0.232 A 
ATOM      3  N   UNL     1       0.054  -9.096   0.067  0.00  0.00    -0.186 NA
ATOM      4  C   UNL     1      -0.030 -10.421   0.231  0.00  0.00    +0.211 A 
ATOM      5  N   UNL     1      -0.672 -10.672   1.347  0.00  0.00    -0.144 NA
ATOM      6  N   UNL     1      -1.005  -9.432   1.916  0.00  0.00    -0.245 N 
ATOM      7  H   UNL     1      -1.094  -6.762   2.027  0.00  0.00    +0.177 HD
ATOM      8  H   UNL     1      -1.481  -9.284   2.748  0.00  0.00    +0.192 HD
ENDROOT
BRANCH   1  10
ATOM      9  C   UNL     1      -0.211  -4.964   0.448  0.00  0.00    +0.138 C 
ATOM     10  N   UNL     1      -0.107  -6.248   0.288  0.00  0.00    -0.188 NA
BRANCH   9  13
ATOM     11  C   UNL     1       0.777  -1.811  -1.336  0.00  0.00    +0.162 A 
ATOM     12  C   UNL     1       0.244  -2.666  -0.389  0.00  0.00    +0.059 A 
ATOM     13  C   UNL     1       0.355  -4.048  -0.559  0.00  0.00    -0.002 A 
ATOM     14  C   UNL     1       1.003  -4.560  -1.686  0.00  0.00    +0.013 A 
ATOM     15  C   UNL     1       1.532  -3.701  -2.627  0.00  0.00    +0.050 A 
ATOM     16  C   UNL     1       1.417  -2.329  -2.460  0.00  0.00    +0.158 A 
BRANCH  16  17
ATOM     17  O   UNL     1       1.935  -1.486  -3.393  0.00  0.00    -0.503 OA
ATOM     18  H   UNL     1       2.854  -1.235  -3.229  0.00  0.00    +0.292 HD
ENDBRANCH  16  17
BRANCH  11  19
ATOM     19  O   UNL     1       0.671  -0.465  -1.174  0.00  0.00    -0.489 OA
BRANCH  19  21
ATOM     20  C   UNL     1      -0.019   1.526   0.010  0.00  0.00    +0.048 C 
ATOM     21  C   UNL     1       0.002  -0.004   0.002  0.00  0.00    +0.226 C 
ENDBRANCH  19  21
ENDBRANCH  11  19
ENDBRANCH   9  13
ENDBRANCH   1  10
BRANCH   4  22
ATOM     22  S   UNL     1       0.618 -11.632  -0.872  0.00  0.00    -0.075 S 
BRANCH  22  23
ATOM     23  C   UNL     1       0.183 -13.212  -0.094  0.00  0.00    +0.173 C 
BRANCH  23  24
ATOM     24  C   UNL     1       0.686 -14.348  -0.947  0.00  0.00    +0.226 C 
ATOM     25  O   UNL     1       1.279 -14.115  -1.978  0.00  0.00    -0.275 OA
ATOM     26  N   UNL     1       0.475 -15.623  -0.564  0.00  0.00    -0.296 N 
ATOM     27  C   UNL     1       0.959 -16.755  -1.371  0.00  0.00    +0.113 C 
ATOM     28  C   UNL     1       2.003 -17.507  -0.547  0.00  0.00    +0.054 C 
ATOM     29  C   UNL     1       1.504 -17.757   0.852  0.00  0.00    -0.038 A 
ATOM     30  C   UNL     1       2.117 -18.769   1.581  0.00  0.00    +0.053 A 
ATOM     31  C   UNL     1       1.716 -19.047   2.875  0.00  0.00    +0.162 A 
ATOM     32  C   UNL     1       0.690 -18.304   3.452  0.00  0.00    +0.162 A 
ATOM     33  C   UNL     1       0.080 -17.300   2.723  0.00  0.00    +0.054 A 
ATOM     34  C   UNL     1       0.483 -17.029   1.421  0.00  0.00    -0.023 A 
ATOM     35  C   UNL     1      -0.239 -15.938   0.678  0.00  0.00    +0.143 C 
BRANCH  32  36
ATOM     36  O   UNL     1       0.289 -18.565   4.726  0.00  0.00    -0.491 OA
ATOM     37  C   UNL     1      -0.769 -17.761   5.250  0.00  0.00    +0.277 C 
ENDBRANCH  32  36
BRANCH  31  38
ATOM     38  O   UNL     1       2.320 -20.041   3.579  0.00  0.00    -0.491 OA
ATOM     39  C   UNL     1       3.365 -20.760   2.921  0.00  0.00    +0.277 C 
ENDBRANCH  31  38
ENDBRANCH  23  24
ENDBRANCH  22  23
ENDBRANCH   4  22
TORSDOF 10
