REMARK  Name = ZINC16606988
REMARK  12 active torsions:
REMARK  status: ('A' for Active; 'I' for Inactive)
REMARK    1  A    between atoms: C_1  and  C_2
REMARK    2  A    between atoms: C_2  and  C_3
REMARK    3  A    between atoms: C_3  and  C_5
REMARK    4  A    between atoms: C_3  and  C_6
REMARK    5  A    between atoms: C_6  and  C_8
REMARK    6  A    between atoms: C_6  and  N_23
REMARK    7  A    between atoms: C_14  and  C_16
REMARK    8  A    between atoms: N_26  and  C_27
REMARK    9  A    between atoms: C_27  and  C_28
REMARK   10  A    between atoms: C_28  and  O_30
REMARK   11  A    between atoms: O_30  and  C_31
REMARK   12  A    between atoms: C_31  and  C_32
REMARK                            x       y       z     vdW  Elec       q    Type
REMARK                         _______ _______ _______ _____ _____    ______ ____
ROOT
ATOM      1  C   UNL     1      -2.594   0.964  -0.039  0.00  0.00    +0.163 C 
ENDROOT
BRANCH   1   2
ATOM      2  C   UNL     1      -1.359   1.818   0.093  0.00  0.00    +0.239 C 
ATOM      3  O   UNL     1      -1.435   2.921   0.592  0.00  0.00    -0.273 OA
ATOM      4  N   UNL     1      -0.171   1.355  -0.342  0.00  0.00    -0.262 N 
ATOM      5  C   UNL     1       0.946   2.181  -0.320  0.00  0.00    +0.188 A 
ATOM      6  N   UNL     1       1.068   3.440   0.081  0.00  0.00    -0.125 NA
ATOM      7  N   UNL     1       2.171   4.050   0.036  0.00  0.00    -0.140 NA
ATOM      8  C   UNL     1       3.274   3.473  -0.425  0.00  0.00    +0.134 A 
ATOM      9  S   UNL     1       2.630   1.853  -0.833  0.00  0.00    -0.030 S 
ATOM     10  H   UNL     1      -0.096   0.447  -0.675  0.00  0.00    +0.157 HD
BRANCH   8  11
ATOM     11  C   UNL     1       4.643   4.013  -0.563  0.00  0.00    +0.009 A 
ATOM     12  C   UNL     1       5.664   3.213  -1.076  0.00  0.00    +0.012 A 
ATOM     13  C   UNL     1       6.938   3.724  -1.207  0.00  0.00    +0.016 A 
ATOM     14  C   UNL     1       7.207   5.026  -0.820  0.00  0.00    +0.018 A 
ATOM     15  C   UNL     1       6.200   5.824  -0.305  0.00  0.00    +0.016 A 
ATOM     16  C   UNL     1       4.920   5.325  -0.174  0.00  0.00    +0.012 A 
ATOM     17 BR   UNL     1       8.959   5.718  -0.996  0.00  0.00    -0.050 Br
ENDBRANCH   8  11
ENDBRANCH   1   2
BRANCH   1  18
ATOM     18  N   UNL     1      -3.783   1.820  -0.025  0.00  0.00    -0.288 N 
ATOM     19  C   UNL     1      -4.922   1.401  -0.612  0.00  0.00    +0.301 C 
ATOM     20  O   UNL     1      -4.963   0.314  -1.153  0.00  0.00    -0.253 OA
ATOM     21  N   UNL     1      -6.016   2.189  -0.599  0.00  0.00    -0.289 N 
ATOM     22  H   UNL     1      -3.751   2.688   0.407  0.00  0.00    +0.151 HD
ATOM     23  H   UNL     1      -5.983   3.057  -0.167  0.00  0.00    +0.151 HD
BRANCH  21  24
ATOM     24  C   UNL     1      -7.253   1.734  -1.236  0.00  0.00    +0.226 C 
BRANCH  24  25
ATOM     25  C   UNL     1      -8.316   2.791  -1.082  0.00  0.00    +0.324 C 
ATOM     26  O   UNL     1      -8.065   3.819  -0.499  0.00  0.00    -0.249 OA
BRANCH  25  27
ATOM     27  O   UNL     1      -9.541   2.591  -1.592  0.00  0.00    -0.464 OA
BRANCH  27  28
ATOM     28  C   UNL     1     -10.515   3.652  -1.406  0.00  0.00    +0.229 C 
ATOM     29  C   UNL     1     -11.842   3.246  -2.050  0.00  0.00    +0.048 C 
ENDBRANCH  27  28
ENDBRANCH  25  27
ENDBRANCH  24  25
ENDBRANCH  21  24
ENDBRANCH   1  18
BRANCH   1  30
ATOM     30  C   UNL     1      -2.661  -0.021   1.129  0.00  0.00    +0.015 C 
ATOM     31  C   UNL     1      -2.870   0.749   2.435  0.00  0.00    +0.010 C 
BRANCH  30  33
ATOM     32  C   UNL     1      -3.548  -1.863  -0.308  0.00  0.00    +0.004 C 
ATOM     33  C   UNL     1      -3.828  -0.987   0.916  0.00  0.00    +0.002 C 
ENDBRANCH  30  33
ENDBRANCH   1  30
TORSDOF 9
