REMARK  Name = ZINC36031230
REMARK  12 active torsions:
REMARK  status: ('A' for Active; 'I' for Inactive)
REMARK    1  A    between atoms: C_1  and  C_2
REMARK    2  A    between atoms: C_5  and  C_8
REMARK    3  A    between atoms: C_8  and  N_9
REMARK    4  A    between atoms: N_9  and  C_10
REMARK    5  A    between atoms: N_9  and  C_20
REMARK    6  A    between atoms: C_10  and  C_11
REMARK    7  A    between atoms: C_20  and  C_21
REMARK    8  A    between atoms: C_21  and  C_23
REMARK    9  A    between atoms: C_21  and  O_32
REMARK   10  A    between atoms: C_23  and  O_24
REMARK   11  A    between atoms: O_24  and  C_25
REMARK   12  A    between atoms: C_30  and  C_31
REMARK                            x       y       z     vdW  Elec       q    Type
REMARK                         _______ _______ _______ _____ _____    ______ ____
ROOT
ATOM      1  N   UNL     1       1.629  -4.522   0.149  0.00  0.00    +0.387 N 
ATOM      2  H   UNL     1       2.537  -4.120  -0.027  0.00  0.00    -0.081 HD
ENDROOT
BRANCH   1   3
ATOM      3  C   UNL     1       0.622  -3.838  -0.674  0.00  0.00    -0.042 C 
BRANCH   3   8
ATOM      4  C   UNL     1       0.856   1.849   0.322  0.00  0.00    +0.044 C 
ATOM      5  C   UNL     1       0.795   0.366   0.063  0.00  0.00    -0.050 A 
ATOM      6  C   UNL     1       1.570  -0.193  -0.936  0.00  0.00    +0.003 A 
ATOM      7  C   UNL     1       1.514  -1.554  -1.174  0.00  0.00    +0.002 A 
ATOM      8  C   UNL     1       0.684  -2.355  -0.413  0.00  0.00    -0.064 A 
ATOM      9  C   UNL     1      -0.090  -1.796   0.586  0.00  0.00    +0.002 A 
ATOM     10  C   UNL     1      -0.031  -0.436   0.827  0.00  0.00    +0.003 A 
ENDBRANCH   3   8
ENDBRANCH   1   3
BRANCH   1  11
ATOM     11  C   UNL     1       1.290  -4.362   1.570  0.00  0.00    -0.042 C 
BRANCH  11  12
ATOM     12  C   UNL     1       2.399  -4.931   2.417  0.00  0.00    -0.060 A 
ATOM     13  C   UNL     1       2.289  -6.210   2.930  0.00  0.00    +0.005 A 
ATOM     14  C   UNL     1       3.304  -6.736   3.708  0.00  0.00    +0.050 A 
ATOM     15  C   UNL     1       4.434  -5.981   3.975  0.00  0.00    +0.166 A 
ATOM     16  C   UNL     1       4.545  -4.692   3.459  0.00  0.00    +0.166 A 
ATOM     17  C   UNL     1       3.526  -4.174   2.676  0.00  0.00    +0.051 A 
ATOM     18  O   UNL     1       5.737  -4.162   3.861  0.00  0.00    -0.453 OA
ATOM     19  C   UNL     1       6.171  -4.982   4.962  0.00  0.00    +0.466 C 
ATOM     20  O   UNL     1       5.557  -6.258   4.701  0.00  0.00    -0.453 OA
ENDBRANCH  11  12
ENDBRANCH   1  11
BRANCH   1  21
ATOM     21  C   UNL     1       1.651  -5.951  -0.191  0.00  0.00    -0.043 C 
BRANCH  21  22
ATOM     22  C   UNL     1       3.060  -6.505   0.028  0.00  0.00    +0.135 C 
BRANCH  22  23
ATOM     23  O   UNL     1       3.962  -5.891  -0.894  0.00  0.00    -0.390 OA
ATOM     24  H   UNL     1       3.738  -6.040  -1.823  0.00  0.00    +0.210 HD
ENDBRANCH  22  23
BRANCH  22  25
ATOM     25  C   UNL     1       3.053  -8.019  -0.198  0.00  0.00    +0.258 C 
BRANCH  25  26
ATOM     26  O   UNL     1       4.340  -8.553   0.120  0.00  0.00    -0.489 OA
BRANCH  26  27
ATOM     27  C   UNL     1       4.504  -9.894  -0.028  0.00  0.00    +0.124 A 
ATOM     28  C   UNL     1       3.450 -10.679  -0.474  0.00  0.00    +0.046 A 
ATOM     29  C   UNL     1       3.620 -12.041  -0.623  0.00  0.00    +0.004 A 
ATOM     30  C   UNL     1       4.839 -12.624  -0.328  0.00  0.00    +0.000 A 
ATOM     31  C   UNL     1       5.891 -11.845   0.117  0.00  0.00    +0.007 A 
ATOM     32  C   UNL     1       5.728 -10.480   0.263  0.00  0.00    -0.009 A 
ATOM     33  C   UNL     1       6.876  -9.630   0.742  0.00  0.00    +0.047 C 
ENDBRANCH  26  27
ENDBRANCH  25  26
ENDBRANCH  22  25
ENDBRANCH  21  22
ENDBRANCH   1  21
TORSDOF 10
