REMARK  Name = ZINC45945448
REMARK  13 active torsions:
REMARK  status: ('A' for Active; 'I' for Inactive)
REMARK    1  A    between atoms: C_1  and  C_2
REMARK    2  A    between atoms: C_5  and  C_35
REMARK    3  A    between atoms: N_8  and  C_10
REMARK    4  A    between atoms: C_10  and  C_11
REMARK    5  A    between atoms: C_11  and  N_12
REMARK    6  A    between atoms: N_12  and  C_13
REMARK    7  A    between atoms: N_12  and  S_23
REMARK    8  A    between atoms: C_13  and  C_14
REMARK    9  A    between atoms: C_14  and  C_15
REMARK   10  A    between atoms: S_23  and  C_26
REMARK   11  A    between atoms: C_29  and  C_32
REMARK   12  A    between atoms: C_32  and  C_33
REMARK   13  A    between atoms: C_32  and  C_34
REMARK                            x       y       z     vdW  Elec       q    Type
REMARK                         _______ _______ _______ _____ _____    ______ ____
ROOT
ATOM      1  N   UNL     1       2.819  -0.203   4.893  0.00  0.00    -0.178 NA
ENDROOT
BRANCH   1   2
ATOM      2  S   UNL     1       2.240  -1.489   5.761  0.00  0.00    +0.061 S 
ATOM      3  O   UNL     1       2.704  -1.321   7.094  0.00  0.00    -0.153 OA
ATOM      4  O   UNL     1       0.860  -1.605   5.444  0.00  0.00    -0.153 OA
BRANCH   2   5
ATOM      5  C   UNL     1       3.024  -2.937   5.134  0.00  0.00    +0.105 A 
ATOM      6  C   UNL     1       2.448  -3.638   4.091  0.00  0.00    +0.029 A 
ATOM      7  C   UNL     1       3.063  -4.774   3.599  0.00  0.00    +0.006 A 
ATOM      8  C   UNL     1       4.254  -5.209   4.149  0.00  0.00    -0.045 A 
ATOM      9  C   UNL     1       4.831  -4.507   5.191  0.00  0.00    +0.006 A 
ATOM     10  C   UNL     1       4.218  -3.369   5.681  0.00  0.00    +0.029 A 
BRANCH   8  11
ATOM     11  C   UNL     1       4.924  -6.448   3.613  0.00  0.00    +0.013 C 
ATOM     12  C   UNL     1       6.317  -6.089   3.091  0.00  0.00    +0.012 C 
ATOM     13  C   UNL     1       5.050  -7.484   4.732  0.00  0.00    +0.012 C 
ENDBRANCH   8  11
ENDBRANCH   2   5
ENDBRANCH   1   2
BRANCH   1  14
ATOM     14  C   UNL     1       2.136   0.221   3.668  0.00  0.00    +0.091 C 
BRANCH  14  15
ATOM     15  C   UNL     1       2.808  -0.431   2.458  0.00  0.00    -0.061 C 
BRANCH  15  21
ATOM     16  C   UNL     1      -0.019   1.526   0.010  0.00  0.00    +0.005 C 
ATOM     17  C   UNL     1       0.002  -0.004   0.002  0.00  0.00    -0.031 C 
ATOM     18  C   UNL     1       0.721  -0.499  -1.257  0.00  0.00    +0.003 C 
ATOM     19  C   UNL     1       2.177  -0.027  -1.220  0.00  0.00    -0.031 C 
ATOM     20  C   UNL     1       2.839  -0.534   0.063  0.00  0.00    -0.076 C 
ATOM     21  N   UNL     1       2.123  -0.005   1.230  0.00  0.00    +0.381 N 
ATOM     22  C   UNL     1       0.744  -0.512   1.240  0.00  0.00    -0.076 C 
ATOM     23  C   UNL     1       2.924  -0.581  -2.434  0.00  0.00    +0.005 C 
ATOM     24  H   UNL     1       2.109   1.003   1.187  0.00  0.00    -0.082 HD
ENDBRANCH  15  21
ENDBRANCH  14  15
ENDBRANCH   1  14
BRANCH   1  25
ATOM     25  C   UNL     1       4.015   0.510   5.349  0.00  0.00    +0.118 C 
BRANCH  25  26
ATOM     26  C   UNL     1       3.598   1.726   6.178  0.00  0.00    +0.113 C 
BRANCH  26  27
ATOM     27  C   UNL     1       4.828   2.460   6.648  0.00  0.00    +0.217 C 
ATOM     28  O   UNL     1       5.929   2.050   6.348  0.00  0.00    -0.276 OA
ATOM     29  N   UNL     1       4.704   3.571   7.400  0.00  0.00    -0.299 N 
ATOM     30  C   UNL     1       3.377   4.082   7.779  0.00  0.00    +0.123 C 
ATOM     31  C   UNL     1       3.307   5.569   7.417  0.00  0.00    +0.100 C 
ATOM     32  N   UNL     1       4.442   6.273   8.030  0.00  0.00    -0.313 NA
ATOM     33  C   UNL     1       5.721   5.784   7.498  0.00  0.00    +0.100 C 
ATOM     34  C   UNL     1       5.891   4.302   7.868  0.00  0.00    +0.123 C 
ATOM     35  H   UNL     1       4.357   7.271   7.907  0.00  0.00    +0.122 HD
ENDBRANCH  26  27
ENDBRANCH  25  26
ENDBRANCH   1  25
TORSDOF 9
