REMARK  Name = ZINC11233217
REMARK  7 active torsions:
REMARK  status: ('A' for Active; 'I' for Inactive)
REMARK    1  A    between atoms: C_1  and  C_2
REMARK    2  A    between atoms: C_2  and  C_4
REMARK    3  A    between atoms: C_2  and  S_15
REMARK    4  A    between atoms: N_6  and  C_7
REMARK    5  A    between atoms: N_6  and  C_8
REMARK    6  A    between atoms: C_8  and  C_9
REMARK    7  A    between atoms: S_15  and  C_16
REMARK                            x       y       z     vdW  Elec       q    Type
REMARK                         _______ _______ _______ _____ _____    ______ ____
ROOT
ATOM      1  C   UNL     1      -1.373  -2.719   0.917  0.00  0.00    +0.029 C 
ATOM      2  C   UNL     1       0.043  -2.191   1.157  0.00  0.00    +0.137 C 
ENDROOT
BRANCH   2   3
ATOM      3  C   UNL     1       0.022  -0.684   1.165  0.00  0.00    +0.229 C 
ATOM      4  O   UNL     1       0.024  -0.083   2.219  0.00  0.00    -0.274 OA
ATOM      5  N   UNL     1       0.002  -0.004   0.002  0.00  0.00    -0.299 N 
ATOM      6  C   UNL     1      -0.000  -0.730  -1.271  0.00  0.00    +0.132 C 
BRANCH   5   7
ATOM      7  C   UNL     1      -0.018   1.461   0.010  0.00  0.00    +0.142 C 
BRANCH   7   8
ATOM      8  C   UNL     1       1.396   1.982  -0.001  0.00  0.00    -0.030 A 
ATOM      9  C   UNL     1       2.054   2.221   1.192  0.00  0.00    +0.005 A 
ATOM     10  C   UNL     1       3.353   2.694   1.182  0.00  0.00    +0.000 A 
ATOM     11  C   UNL     1       3.990   2.940  -0.020  0.00  0.00    +0.000 A 
ATOM     12  C   UNL     1       3.330   2.707  -1.212  0.00  0.00    +0.000 A 
ATOM     13  C   UNL     1       2.033   2.228  -1.203  0.00  0.00    +0.005 A 
ENDBRANCH   7   8
ENDBRANCH   5   7
ENDBRANCH   2   3
BRANCH   2  14
ATOM     14  S   UNL     1       0.650  -2.795   2.752  0.00  0.00    -0.073 S 
BRANCH  14  15
ATOM     15  C   UNL     1       0.714  -4.524   2.420  0.00  0.00    +0.195 A 
ATOM     16  N   UNL     1       0.348  -4.987   1.228  0.00  0.00    -0.189 NA
ATOM     17  C   UNL     1       0.401  -6.291   0.976  0.00  0.00    +0.218 A 
ATOM     18  N   UNL     1       0.810  -7.134   1.919  0.00  0.00    -0.181 NA
ATOM     19  C   UNL     1       1.171  -6.672   3.112  0.00  0.00    +0.218 A 
ATOM     20  N   UNL     1       1.123  -5.368   3.363  0.00  0.00    -0.189 NA
ATOM     21  N   UNL     1       1.595  -7.548   4.091  0.00  0.00    -0.327 N 
ATOM     22  N   UNL     1       0.026  -6.770  -0.263  0.00  0.00    -0.327 N 
ATOM     23  H   UNL     1       1.858  -7.211   4.962  0.00  0.00    +0.145 HD
ATOM     24  H   UNL     1       1.630  -8.500   3.909  0.00  0.00    +0.145 HD
ATOM     25  H   UNL     1       0.060  -7.722  -0.445  0.00  0.00    +0.145 HD
ATOM     26  H   UNL     1      -0.273  -6.155  -0.951  0.00  0.00    +0.145 HD
ENDBRANCH  14  15
ENDBRANCH   2  14
TORSDOF 5
