REMARK  Name = ZINC06894809
REMARK  5 active torsions:
REMARK  status: ('A' for Active; 'I' for Inactive)
REMARK    1  A    between atoms: C_1  and  C_2
REMARK    2  A    between atoms: C_2  and  C_3
REMARK    3  A    between atoms: C_6  and  N_9
REMARK    4  A    between atoms: C_10  and  C_12
REMARK    5  A    between atoms: N_27  and  C_30
REMARK                            x       y       z     vdW  Elec       q    Type
REMARK                         _______ _______ _______ _____ _____    ______ ____
ROOT
ATOM      1  C   UNL     1       0.168   1.164  -0.058  0.00  0.00    +0.076 C 
ATOM      2  C   UNL     1      -0.189   1.912   1.255  0.00  0.00    -0.003 C 
ATOM      3  C   UNL     1       1.107   1.734   2.082  0.00  0.00    -0.066 C 
ATOM      4  C   UNL     1       1.257   2.920   3.048  0.00  0.00    -0.017 C 
ATOM      5  C   UNL     1       2.511   3.682   2.563  0.00  0.00    -0.020 C 
ATOM      6  C   UNL     1       2.619   3.259   1.077  0.00  0.00    -0.077 C 
ATOM      7  C   UNL     1       1.666   1.462  -0.226  0.00  0.00    +0.052 C 
ATOM      8  C   UNL     1       2.386   0.270  -0.797  0.00  0.00    -0.027 A 
ATOM      9  C   UNL     1       2.565  -1.023  -0.360  0.00  0.00    +0.004 A 
ATOM     10  C   UNL     1       3.297  -1.916  -1.122  0.00  0.00    +0.000 A 
ATOM     11  C   UNL     1       3.847  -1.506  -2.323  0.00  0.00    +0.002 A 
ATOM     12  C   UNL     1       3.670  -0.211  -2.764  0.00  0.00    +0.024 A 
ATOM     13  C   UNL     1       2.935   0.695  -2.003  0.00  0.00    +0.038 A 
ATOM     14  N   UNL     1       2.622   2.036  -2.230  0.00  0.00    -0.275 N 
ATOM     15  C   UNL     1       1.881   2.560  -1.236  0.00  0.00    +0.214 C 
ATOM     16  O   UNL     1       1.465   3.698  -1.166  0.00  0.00    -0.276 OA
ATOM     17  C   UNL     1       3.050   2.786  -3.413  0.00  0.00    +0.138 C 
ATOM     18  N   UNL     1       2.180   1.851   1.102  0.00  0.00    +0.394 N 
ATOM     19  H   UNL     1       2.966   1.243   1.362  0.00  0.00    -0.079 HD
ENDROOT
BRANCH   1  21
ATOM     20  N   UNL     1      -0.724   1.000  -2.360  0.00  0.00    -0.285 N 
ATOM     21  C   UNL     1      -0.619   1.712  -1.220  0.00  0.00    +0.220 C 
ATOM     22  O   UNL     1      -1.158   2.795  -1.131  0.00  0.00    -0.275 OA
ATOM     23  H   UNL     1      -0.349   0.106  -2.409  0.00  0.00    +0.155 HD
BRANCH  20  27
ATOM     24  C   UNL     1      -2.658   2.632  -5.668  0.00  0.00    -0.048 A 
ATOM     25  C   UNL     1      -1.558   1.814  -5.847  0.00  0.00    +0.005 A 
ATOM     26  C   UNL     1      -0.914   1.271  -4.752  0.00  0.00    +0.023 A 
ATOM     27  C   UNL     1      -1.373   1.548  -3.471  0.00  0.00    +0.033 A 
ATOM     28  C   UNL     1      -2.482   2.367  -3.295  0.00  0.00    +0.023 A 
ATOM     29  C   UNL     1      -3.118   2.910  -4.394  0.00  0.00    +0.005 A 
BRANCH  24  31
ATOM     30  C   UNL     1      -4.461   2.271  -7.332  0.00  0.00    +0.009 C 
ATOM     31  C   UNL     1      -3.358   3.223  -6.865  0.00  0.00    +0.032 C 
ENDBRANCH  24  31
ENDBRANCH  20  27
ENDBRANCH   1  21
TORSDOF 3
