REMARK  Name = ZINC19745200
REMARK  7 active torsions:
REMARK  status: ('A' for Active; 'I' for Inactive)
REMARK    1  A    between atoms: C_4  and  C_7
REMARK    2  A    between atoms: C_7  and  C_8
REMARK    3  A    between atoms: C_8  and  N_9
REMARK    4  A    between atoms: C_15  and  C_17
REMARK    5  A    between atoms: C_17  and  C_18
REMARK    6  A    between atoms: N_20  and  C_21
REMARK    7  A    between atoms: C_21  and  C_22
REMARK                            x       y       z     vdW  Elec       q    Type
REMARK                         _______ _______ _______ _____ _____    ______ ____
ROOT
ATOM      1  N   UNL     1      -9.361   1.733  -2.503  0.00  0.00    +0.389 N 
ATOM      2  C   UNL     1     -10.808   1.757  -2.770  0.00  0.00    -0.059 C 
ATOM      3  C   UNL     1     -11.033   1.607  -4.276  0.00  0.00    +0.085 C 
ATOM      4  N   UNL     1     -10.202   2.562  -5.003  0.00  0.00    -0.318 N 
ATOM      5  C   UNL     1      -9.143   3.166  -4.457  0.00  0.00    +0.200 C 
ATOM      6  O   UNL     1      -8.489   3.922  -5.144  0.00  0.00    -0.278 OA
ATOM      7  C   UNL     1      -8.729   2.950  -3.029  0.00  0.00    +0.028 C 
ATOM      8  H   UNL     1     -10.438   2.813  -6.048  0.00  0.00    +0.149 HD
ATOM      9  H   UNL     1      -8.924   0.864  -3.017  0.00  0.00    -0.081 HD
ENDROOT
BRANCH   1  10
ATOM     10  C   UNL     1      -9.093   1.578  -1.067  0.00  0.00    -0.073 C 
BRANCH  10  11
ATOM     11  C   UNL     1      -9.413   0.144  -0.640  0.00  0.00    +0.016 C 
BRANCH  11  15
ATOM     12  C   UNL     1      -8.635  -0.305   3.536  0.00  0.00    +0.000 A 
ATOM     13  C   UNL     1      -9.887   0.092   3.106  0.00  0.00    +0.000 A 
ATOM     14  C   UNL     1     -10.139   0.238   1.754  0.00  0.00    +0.003 A 
ATOM     15  C   UNL     1      -9.139  -0.014   0.834  0.00  0.00    -0.049 A 
ATOM     16  C   UNL     1      -7.888  -0.416   1.264  0.00  0.00    +0.003 A 
ATOM     17  C   UNL     1      -7.635  -0.557   2.616  0.00  0.00    +0.000 A 
ENDBRANCH  11  15
ENDBRANCH  10  11
ENDBRANCH   1  10
BRANCH   7  18
ATOM     18  C   UNL     1      -7.207   2.803  -2.958  0.00  0.00    +0.089 C 
BRANCH  18  19
ATOM     19  C   UNL     1      -6.783   1.585  -3.738  0.00  0.00    +0.212 C 
ATOM     20  O   UNL     1      -7.620   0.846  -4.211  0.00  0.00    -0.276 OA
ATOM     21  N   UNL     1      -5.474   1.318  -3.910  0.00  0.00    -0.310 N 
ATOM     22  H   UNL     1      -4.714   1.988  -3.481  0.00  0.00    +0.149 HD
BRANCH  21  23
ATOM     23  C   UNL     1      -5.061   0.134  -4.669  0.00  0.00    +0.157 C 
BRANCH  23  24
ATOM     24  C   UNL     1      -3.557   0.065  -4.714  0.00  0.00    +0.034 A 
ATOM     25  C   UNL     1      -2.793   0.540  -5.710  0.00  0.00    +0.032 A 
ATOM     26  C   UNL     1      -1.399   0.271  -5.348  0.00  0.00    +0.001 A 
ATOM     27  C   UNL     1      -0.172   0.513  -5.968  0.00  0.00    +0.030 A 
ATOM     28  C   UNL     1       0.986   0.121  -5.355  0.00  0.00    +0.042 A 
ATOM     29  C   UNL     1       0.950  -0.521  -4.124  0.00  0.00    +0.022 A 
ATOM     30  C   UNL     1      -0.251  -0.774  -3.499  0.00  0.00    +0.027 A 
ATOM     31  C   UNL     1      -1.441  -0.384  -4.104  0.00  0.00    +0.047 A 
ATOM     32  N   UNL     1      -2.766  -0.490  -3.745  0.00  0.00    -0.357 N 
ATOM     33  H   UNL     1      -3.225  -0.932  -2.848  0.00  0.00    +0.166 HD
ATOM     34 CL   UNL     1       2.513   0.428  -6.122  0.00  0.00    -0.084 Cl
ENDBRANCH  23  24
ENDBRANCH  21  23
ENDBRANCH  18  19
ENDBRANCH   7  18
TORSDOF 7
