REMARK  Name = ZINC39665306
REMARK  12 active torsions:
REMARK  status: ('A' for Active; 'I' for Inactive)
REMARK    1  A    between atoms: C_1  and  C_2
REMARK    2  A    between atoms: C_2  and  C_3
REMARK    3  A    between atoms: C_8  and  C_12
REMARK    4  A    between atoms: C_12  and  C_14
REMARK    5  A    between atoms: C_14  and  S_15
REMARK    6  A    between atoms: S_15  and  C_16
REMARK    7  A    between atoms: C_20  and  C_31
REMARK    8  A    between atoms: N_22  and  C_23
REMARK    9  A    between atoms: C_23  and  C_25
REMARK   10  A    between atoms: C_23  and  C_28
REMARK   11  A    between atoms: C_25  and  C_26
REMARK   12  A    between atoms: C_25  and  C_27
REMARK                            x       y       z     vdW  Elec       q    Type
REMARK                         _______ _______ _______ _____ _____    ______ ____
ROOT
ATOM      1  C   UNL     1      -1.245  -1.491   8.435  0.00  0.00    +0.079 C 
ATOM      2  N   UNL     1      -2.146  -0.315   8.312  0.00  0.00    -0.262 NA
ATOM      3  N   UNL     1      -3.089  -0.502   9.426  0.00  0.00    -0.266 NA
ATOM      4  C   UNL     1      -3.320  -1.963   9.475  0.00  0.00    +0.057 C 
ATOM      5  N   UNL     1      -2.140  -2.597   8.845  0.00  0.00    +0.420 N 
ATOM      6  H   UNL     1      -2.628  -0.319   7.426  0.00  0.00    +0.140 HD
ATOM      7  H   UNL     1      -3.951  -0.005   9.257  0.00  0.00    +0.139 HD
ATOM      8  H   UNL     1      -1.671  -3.195   9.508  0.00  0.00    -0.074 HD
ENDROOT
BRANCH   4   9
ATOM      9  C   UNL     1      -3.447  -2.419  10.905  0.00  0.00    -0.009 A 
ATOM     10  C   UNL     1      -4.004  -1.775  11.960  0.00  0.00    +0.011 A 
ATOM     11  C   UNL     1      -4.009  -2.393  13.197  0.00  0.00    +0.008 A 
ATOM     12  C   UNL     1      -3.456  -3.624  13.318  0.00  0.00    +0.045 A 
ATOM     13  S   UNL     1      -2.910  -3.950  11.650  0.00  0.00    -0.102 S 
ENDBRANCH   4   9
BRANCH   1  14
ATOM     14  S   UNL     1      -0.467  -1.863   6.839  0.00  0.00    -0.152 S 
BRANCH  14  15
ATOM     15  C   UNL     1       0.665  -0.471   6.568  0.00  0.00    +0.148 C 
BRANCH  15  16
ATOM     16  C   UNL     1       1.474  -0.717   5.320  0.00  0.00    +0.171 C 
ATOM     17  O   UNL     1       1.304  -1.733   4.677  0.00  0.00    -0.291 OA
BRANCH  16  23
ATOM     18  C   UNL     1       5.043   1.511   2.627  0.00  0.00    -0.024 A 
ATOM     19  C   UNL     1       5.111   0.527   1.704  0.00  0.00    +0.005 A 
ATOM     20  C   UNL     1       4.300  -0.617   1.776  0.00  0.00    +0.001 A 
ATOM     21  C   UNL     1       3.402  -0.809   2.768  0.00  0.00    +0.010 A 
ATOM     22  C   UNL     1       3.248   0.160   3.788  0.00  0.00    +0.006 A 
ATOM     23  C   UNL     1       2.429   0.232   4.900  0.00  0.00    +0.024 C 
ATOM     24  C   UNL     1       2.772   1.544   5.572  0.00  0.00    +0.152 C 
ATOM     25  N   UNL     1       3.819   2.160   4.750  0.00  0.00    -0.380 N 
ATOM     26  C   UNL     1       4.094   1.378   3.745  0.00  0.00    +0.046 A 
ATOM     27  H   UNL     1       4.244   3.013   4.929  0.00  0.00    +0.160 HD
BRANCH  18  29
ATOM     28  C   UNL     1       7.188   2.514   3.362  0.00  0.00    +0.009 C 
ATOM     29  C   UNL     1       5.929   2.724   2.518  0.00  0.00    +0.034 C 
ENDBRANCH  18  29
ENDBRANCH  16  23
ENDBRANCH  15  16
ENDBRANCH  14  15
ENDBRANCH   1  14
BRANCH   5  30
ATOM     30  C   UNL     1      -2.554  -3.374   7.669  0.00  0.00    +0.056 C 
BRANCH  30  31
ATOM     31  C   UNL     1      -3.318  -4.619   8.123  0.00  0.00    -0.020 C 
ATOM     32  C   UNL     1      -2.430  -5.453   9.048  0.00  0.00    +0.006 C 
ATOM     33  C   UNL     1      -4.583  -4.196   8.873  0.00  0.00    +0.006 C 
ENDBRANCH  30  31
BRANCH  30  34
ATOM     34  C   UNL     1      -3.445  -2.528   6.796  0.00  0.00    +0.343 C 
ATOM     35  O   UNL     1      -4.005  -1.550   7.263  0.00  0.00    -0.248 OA
ATOM     36  O   UNL     1      -3.607  -2.821   5.624  0.00  0.00    -0.248 OA
ENDBRANCH  30  34
ENDBRANCH   5  30
TORSDOF 9
