REMARK  Name = ZINC22473077
REMARK  8 active torsions:
REMARK  status: ('A' for Active; 'I' for Inactive)
REMARK    1  A    between atoms: C_4  and  C_7
REMARK    2  A    between atoms: C_7  and  N_8
REMARK    3  A    between atoms: N_8  and  C_9
REMARK    4  A    between atoms: C_9  and  C_10
REMARK    5  A    between atoms: C_10  and  C_11
REMARK    6  A    between atoms: C_11  and  N_12
REMARK    7  A    between atoms: C_15  and  O_16
REMARK    8  A    between atoms: C_24  and  C_26
REMARK                            x       y       z     vdW  Elec       q    Type
REMARK                         _______ _______ _______ _____ _____    ______ ____
ROOT
ATOM      1  N   UNL     1       2.453   4.439  -0.062  0.00  0.00    -0.293 N 
ATOM      2  C   UNL     1       1.274   3.940  -0.485  0.00  0.00    +0.247 C 
ATOM      3  O   UNL     1       1.142   2.741  -0.640  0.00  0.00    -0.270 OA
ENDROOT
BRANCH   2   4
ATOM      4  C   UNL     1       0.143   4.849  -0.760  0.00  0.00    +0.037 A 
ATOM      5  C   UNL     1      -0.816   4.506  -1.716  0.00  0.00    +0.016 A 
ATOM      6  C   UNL     1      -1.869   5.359  -1.968  0.00  0.00    +0.039 A 
ATOM      7  C   UNL     1      -1.979   6.554  -1.274  0.00  0.00    +0.123 A 
ATOM      8  C   UNL     1      -1.029   6.900  -0.325  0.00  0.00    +0.039 A 
ATOM      9  C   UNL     1       0.029   6.055  -0.065  0.00  0.00    +0.016 A 
ATOM     10  F   UNL     1      -3.013   7.386  -1.526  0.00  0.00    -0.205 F 
ENDBRANCH   2   4
BRANCH   1  11
ATOM     11  C   UNL     1       3.614   3.557   0.076  0.00  0.00    +0.143 C 
BRANCH  11  15
ATOM     12  C   UNL     1       5.551   3.147  -3.709  0.00  0.00    +0.000 A 
ATOM     13  C   UNL     1       5.859   4.216  -2.887  0.00  0.00    +0.000 A 
ATOM     14  C   UNL     1       5.231   4.348  -1.662  0.00  0.00    +0.005 A 
ATOM     15  C   UNL     1       4.297   3.413  -1.259  0.00  0.00    -0.030 A 
ATOM     16  C   UNL     1       3.994   2.341  -2.078  0.00  0.00    +0.005 A 
ATOM     17  C   UNL     1       4.617   2.212  -3.305  0.00  0.00    +0.000 A 
ENDBRANCH  11  15
ENDBRANCH   1  11
BRANCH   1  18
ATOM     18  C   UNL     1       2.572   5.863   0.258  0.00  0.00    +0.110 C 
BRANCH  18  19
ATOM     19  C   UNL     1       2.442   6.058   1.770  0.00  0.00    +0.040 C 
BRANCH  19  20
ATOM     20  C   UNL     1       2.566   7.546   2.105  0.00  0.00    +0.114 C 
BRANCH  20  21
ATOM     21  N   UNL     1       2.441   7.733   3.553  0.00  0.00    -0.384 N 
ATOM     22  C   UNL     1       2.522   8.997   4.094  0.00  0.00    +0.053 A 
ATOM     23  C   UNL     1       2.719  10.095   3.297  0.00  0.00    +0.113 A 
ATOM     24  C   UNL     1       2.796  11.368   3.876  0.00  0.00    +0.286 A 
ATOM     25  O   UNL     1       2.683  11.552   5.202  0.00  0.00    -0.425 OA
ATOM     26  C   UNL     1       2.489  10.518   6.048  0.00  0.00    +0.141 A 
ATOM     27  C   UNL     1       2.393   9.211   5.545  0.00  0.00    +0.041 A 
ATOM     28  C   UNL     1       2.185   8.141   6.415  0.00  0.00    +0.013 A 
ATOM     29  C   UNL     1       2.068   8.376   7.768  0.00  0.00    +0.001 A 
ATOM     30  C   UNL     1       2.156   9.667   8.264  0.00  0.00    +0.004 A 
ATOM     31  C   UNL     1       2.374  10.733   7.415  0.00  0.00    +0.047 A 
ATOM     32  H   UNL     1       2.283   6.863   4.208  0.00  0.00    +0.160 HD
BRANCH  24  33
ATOM     33  O   UNL     1       2.971  12.336   3.157  0.00  0.00    -0.480 OA
ATOM     34  H   UNL     1       3.035  13.343   3.595  0.00  0.00    +0.295 HD
ENDBRANCH  24  33
ENDBRANCH  20  21
ENDBRANCH  19  20
ENDBRANCH  18  19
ENDBRANCH   1  18
TORSDOF 8
