REMARK  Name = ZINC39681377
REMARK  7 active torsions:
REMARK  status: ('A' for Active; 'I' for Inactive)
REMARK    1  A    between atoms: C_5  and  O_7
REMARK    2  A    between atoms: O_7  and  C_8
REMARK    3  A    between atoms: C_8  and  C_9
REMARK    4  A    between atoms: C_9  and  N_10
REMARK    5  A    between atoms: C_11  and  C_13
REMARK    6  A    between atoms: C_24  and  C_26
REMARK    7  A    between atoms: C_29  and  C_31
REMARK                            x       y       z     vdW  Elec       q    Type
REMARK                         _______ _______ _______ _____ _____    ______ ____
ROOT
ATOM      1  C   UNL     1       1.835  -6.339   2.712  0.00  0.00    +0.100 C 
ATOM      2  C   UNL     1       3.279  -5.789   2.756  0.00  0.00    +0.121 C 
ATOM      3  N   UNL     1       4.070  -6.866   3.397  0.00  0.00    -0.294 N 
ATOM      4  C   UNL     1       3.513  -8.119   2.832  0.00  0.00    +0.115 C 
ATOM      5  C   UNL     1       1.994  -7.868   2.761  0.00  0.00    -0.004 C 
ATOM      6  C   UNL     1       1.307  -8.431   4.002  0.00  0.00    -0.010 C 
ATOM      7  C   UNL     1       1.429  -9.957   3.999  0.00  0.00    -0.082 C 
ATOM      8  N   UNL     1       0.807 -10.497   2.784  0.00  0.00    +0.379 N 
ATOM      9  C   UNL     1       1.531 -10.024   1.597  0.00  0.00    -0.082 C 
ATOM     10  C   UNL     1       1.414  -8.501   1.499  0.00  0.00    -0.010 C 
ATOM     11  C   UNL     1       5.070  -6.737   4.291  0.00  0.00    +0.282 C 
ATOM     12  O   UNL     1       5.627  -7.726   4.729  0.00  0.00    -0.267 OA
ATOM     13  H   UNL     1       0.834 -11.505   2.813  0.00  0.00    -0.086 HD
ATOM     14  H   UNL     1      -0.153 -10.191   2.734  0.00  0.00    -0.086 HD
ENDROOT
BRANCH  11  15
ATOM     15  C   UNL     1       5.486  -5.405   4.737  0.00  0.00    +0.190 A 
ATOM     16  C   UNL     1       6.492  -5.130   5.637  0.00  0.00    +0.055 A 
ATOM     17  C   UNL     1       6.547  -3.739   5.769  0.00  0.00    +0.050 A 
ATOM     18  C   UNL     1       5.583  -3.220   4.953  0.00  0.00    +0.136 A 
ATOM     19  O   UNL     1       4.954  -4.232   4.332  0.00  0.00    -0.450 OA
BRANCH  18  20
ATOM     20  C   UNL     1       5.286  -1.784   4.778  0.00  0.00    +0.017 A 
ATOM     21  C   UNL     1       6.023  -0.825   5.476  0.00  0.00    +0.014 A 
ATOM     22  C   UNL     1       5.741   0.514   5.309  0.00  0.00    +0.039 A 
ATOM     23  C   UNL     1       4.728   0.909   4.449  0.00  0.00    +0.123 A 
ATOM     24  C   UNL     1       3.993  -0.038   3.754  0.00  0.00    +0.039 A 
ATOM     25  C   UNL     1       4.270  -1.380   3.909  0.00  0.00    +0.014 A 
ATOM     26  F   UNL     1       4.456   2.223   4.289  0.00  0.00    -0.205 F 
ENDBRANCH  18  20
ENDBRANCH  11  15
BRANCH   1  28
ATOM     27  N   UNL     1      -0.183  -5.768   1.401  0.00  0.00    -0.312 N 
ATOM     28  C   UNL     1       1.155  -5.923   1.433  0.00  0.00    +0.218 C 
ATOM     29  O   UNL     1       1.812  -5.727   0.432  0.00  0.00    -0.275 OA
ATOM     30  H   UNL     1      -0.709  -5.925   2.202  0.00  0.00    +0.149 HD
BRANCH  27  31
ATOM     31  C   UNL     1      -0.845  -5.363   0.159  0.00  0.00    +0.145 C 
BRANCH  31  32
ATOM     32  C   UNL     1      -2.353  -5.261   0.393  0.00  0.00    +0.248 C 
BRANCH  32  33
ATOM     33  O   UNL     1      -2.620  -4.210   1.323  0.00  0.00    -0.489 OA
BRANCH  33  38
ATOM     34  C   UNL     1      -6.244  -4.529   1.400  0.00  0.00    +0.004 A 
ATOM     35  C   UNL     1      -6.572  -3.527   2.295  0.00  0.00    +0.002 A 
ATOM     36  C   UNL     1      -5.579  -2.752   2.864  0.00  0.00    +0.023 A 
ATOM     37  C   UNL     1      -4.254  -2.979   2.541  0.00  0.00    +0.083 A 
ATOM     38  C   UNL     1      -3.922  -3.985   1.644  0.00  0.00    +0.139 A 
ATOM     39  C   UNL     1      -4.922  -4.760   1.074  0.00  0.00    +0.047 A 
ATOM     40 CL   UNL     1      -3.006  -2.006   3.256  0.00  0.00    -0.080 Cl
ENDBRANCH  33  38
ENDBRANCH  32  33
ENDBRANCH  31  32
ENDBRANCH  27  31
ENDBRANCH   1  28
TORSDOF 7
