REMARK  Name = ZINC39276931
REMARK  10 active torsions:
REMARK  status: ('A' for Active; 'I' for Inactive)
REMARK    1  A    between atoms: C_1  and  C_2
REMARK    2  A    between atoms: C_2  and  O_3
REMARK    3  A    between atoms: O_3  and  C_4
REMARK    4  A    between atoms: C_4  and  C_6
REMARK    5  A    between atoms: C_7  and  C_36
REMARK    6  A    between atoms: C_14  and  C_15
REMARK    7  A    between atoms: C_25  and  C_27
REMARK    8  A    between atoms: C_30  and  N_33
REMARK    9  A    between atoms: N_33  and  C_34
REMARK   10  A    between atoms: N_33  and  C_35
REMARK                            x       y       z     vdW  Elec       q    Type
REMARK                         _______ _______ _______ _____ _____    ______ ____
ROOT
ATOM      1  C   UNL     1      -2.770  -2.424   0.249  0.00  0.00    +0.085 C 
ATOM      2  C   UNL     1      -2.940  -3.739  -0.076  0.00  0.00    +0.053 C 
ATOM      3  N   UNL     1      -4.155  -4.230  -0.291  0.00  0.00    -0.228 NA
ATOM      4  C   UNL     1      -5.263  -3.540  -0.218  0.00  0.00    +0.178 A 
ATOM      5  N   UNL     1      -5.317  -2.201   0.093  0.00  0.00    -0.275 N 
ATOM      6  C   UNL     1      -6.512  -1.597   0.137  0.00  0.00    +0.268 A 
ATOM      7  O   UNL     1      -6.609  -0.416   0.407  0.00  0.00    -0.266 OA
ATOM      8  C   UNL     1      -7.708  -2.415  -0.155  0.00  0.00    +0.080 A 
ATOM      9  C   UNL     1      -9.039  -2.047  -0.178  0.00  0.00    +0.026 C 
ATOM     10  S   UNL     1      -6.965  -4.008  -0.469  0.00  0.00    -0.046 S 
ATOM     11  C   UNL     1      -4.001  -1.554   0.360  0.00  0.00    +0.162 C 
ATOM     12  C   UNL     1      -1.739  -4.642  -0.191  0.00  0.00    +0.066 C 
ENDROOT
BRANCH   9  13
ATOM     13  C   UNL     1     -10.019  -2.994  -0.482  0.00  0.00    -0.018 C 
ATOM     14  C   UNL     1     -11.397  -2.788  -0.553  0.00  0.00    +0.003 A 
ATOM     15  C   UNL     1     -12.203  -1.647  -0.357  0.00  0.00    +0.010 A 
ATOM     16  C   UNL     1     -13.550  -1.742  -0.494  0.00  0.00    +0.001 A 
ATOM     17  C   UNL     1     -14.170  -2.950  -0.828  0.00  0.00    +0.002 A 
ATOM     18  C   UNL     1     -13.461  -4.085  -1.031  0.00  0.00    +0.026 A 
ATOM     19  C   UNL     1     -12.044  -4.066  -0.906  0.00  0.00    +0.043 A 
ATOM     20  N   UNL     1     -11.145  -5.013  -1.048  0.00  0.00    -0.380 N 
ATOM     21  C   UNL     1      -9.810  -4.455  -0.811  0.00  0.00    +0.149 C 
ATOM     22  H   UNL     1     -11.334  -5.936  -1.279  0.00  0.00    +0.160 HD
ENDBRANCH   9  13
BRANCH  11  23
ATOM     23  C   UNL     1      -3.849  -0.409  -0.608  0.00  0.00    -0.020 A 
ATOM     24  C   UNL     1      -4.127  -0.597  -1.949  0.00  0.00    +0.008 A 
ATOM     25  C   UNL     1      -3.988   0.450  -2.839  0.00  0.00    +0.023 A 
ATOM     26  C   UNL     1      -3.568   1.694  -2.384  0.00  0.00    +0.029 A 
ATOM     27  C   UNL     1      -3.290   1.880  -1.036  0.00  0.00    +0.023 A 
ATOM     28  C   UNL     1      -3.436   0.830  -0.151  0.00  0.00    +0.008 A 
BRANCH  26  29
ATOM     29  N   UNL     1      -3.426   2.755  -3.281  0.00  0.00    -0.336 N 
ATOM     30  C   UNL     1      -3.836   2.593  -4.679  0.00  0.00    +0.129 C 
ATOM     31  C   UNL     1      -2.869   4.030  -2.825  0.00  0.00    +0.129 C 
ENDBRANCH  26  29
ENDBRANCH  11  23
BRANCH   1  32
ATOM     32  C   UNL     1      -1.487  -1.895   0.478  0.00  0.00    +0.339 C 
ATOM     33  O   UNL     1      -0.521  -2.636   0.519  0.00  0.00    -0.245 OA
BRANCH  32  34
ATOM     34  O   UNL     1      -1.326  -0.565   0.653  0.00  0.00    -0.462 OA
BRANCH  34  36
ATOM     35  C   UNL     1      -0.011   1.422   1.055  0.00  0.00    +0.048 C 
ATOM     36  C   UNL     1       0.005  -0.098   0.881  0.00  0.00    +0.229 C 
ENDBRANCH  34  36
ENDBRANCH  32  34
ENDBRANCH   1  32
TORSDOF 6
