REMARK  Name = ZINC50845592
REMARK  5 active torsions:
REMARK  status: ('A' for Active; 'I' for Inactive)
REMARK    1  A    between atoms: C_1  and  C_2
REMARK    2  A    between atoms: C_2  and  C_3
REMARK    3  A    between atoms: C_4  and  C_18
REMARK    4  A    between atoms: C_6  and  C_10
REMARK    5  A    between atoms: C_8  and  N_9
REMARK                            x       y       z     vdW  Elec       q    Type
REMARK                         _______ _______ _______ _____ _____    ______ ____
ROOT
ATOM      1  C   UNL     1       0.731  -0.503   1.223  0.00  0.00    +0.013 A 
ATOM      2  C   UNL     1       2.096  -0.715   1.194  0.00  0.00    +0.047 A 
ATOM      3  N   UNL     1       2.708  -1.154   2.283  0.00  0.00    -0.232 NA
ATOM      4  C   UNL     1       2.028  -1.392   3.396  0.00  0.00    +0.162 A 
ATOM      5  N   UNL     1       0.718  -1.202   3.466  0.00  0.00    -0.213 NA
ATOM      6  C   UNL     1       0.043  -0.757   2.412  0.00  0.00    +0.123 A 
ATOM      7  C   UNL     1       2.881  -0.449  -0.065  0.00  0.00    +0.066 C 
ENDROOT
BRANCH   4   8
ATOM      8  C   UNL     1       2.752  -1.883   4.594  0.00  0.00    +0.025 A 
ATOM      9  C   UNL     1       4.130  -2.084   4.544  0.00  0.00    +0.050 A 
ATOM     10  C   UNL     1       4.801  -2.542   5.663  0.00  0.00    +0.127 A 
ATOM     11  C   UNL     1       4.105  -2.802   6.832  0.00  0.00    +0.076 A 
ATOM     12  C   UNL     1       2.735  -2.604   6.886  0.00  0.00    +0.127 A 
ATOM     13  C   UNL     1       2.057  -2.140   5.774  0.00  0.00    +0.050 A 
ATOM     14  F   UNL     1       2.062  -2.859   8.029  0.00  0.00    -0.205 F 
ATOM     15  F   UNL     1       6.137  -2.737   5.616  0.00  0.00    -0.205 F 
ENDBRANCH   4   8
BRANCH   6  16
ATOM     16  N   UNL     1      -1.326  -0.554   2.489  0.00  0.00    -0.343 N 
ATOM     17  H   UNL     1      -1.813  -0.233   1.714  0.00  0.00    +0.144 HD
ATOM     18  H   UNL     1      -1.797  -0.733   3.318  0.00  0.00    +0.144 HD
ENDBRANCH   6  16
BRANCH   1  20
ATOM     19  C   UNL     1      -0.019   1.526   0.010  0.00  0.00    +0.009 C 
ATOM     20  C   UNL     1       0.002  -0.004   0.002  0.00  0.00    +0.037 C 
ENDBRANCH   1  20
TORSDOF 3
