REMARK  Name = ZINC66402386
REMARK  3 active torsions:
REMARK  status: ('A' for Active; 'I' for Inactive)
REMARK    1  A    between atoms: C_2  and  C_23
REMARK    2  A    between atoms: C_8  and  N_9
REMARK    3  A    between atoms: N_12  and  C_13
REMARK                            x       y       z     vdW  Elec       q    Type
REMARK                         _______ _______ _______ _____ _____    ______ ____
ROOT
ATOM      1  N   UNL     1      -1.198  -0.730   0.010  0.00  0.00    -0.265 N 
ATOM      2  C   UNL     1      -1.173  -2.073  -0.099  0.00  0.00    +0.304 C 
ATOM      3  O   UNL     1      -0.110  -2.663  -0.113  0.00  0.00    -0.252 OA
ATOM      4  N   UNL     1      -2.327  -2.763  -0.193  0.00  0.00    -0.296 N 
ATOM      5  H   UNL     1      -2.045  -0.265   0.090  0.00  0.00    +0.157 HD
ATOM      6  H   UNL     1      -3.175  -2.292  -0.182  0.00  0.00    +0.151 HD
ENDROOT
BRANCH   4   7
ATOM      7  C   UNL     1      -2.301  -4.223  -0.312  0.00  0.00    +0.075 C 
ATOM      8  C   UNL     1      -2.118  -4.611  -1.780  0.00  0.00    +0.027 C 
ATOM      9  C   UNL     1      -2.087  -6.136  -1.904  0.00  0.00    +0.067 C 
ATOM     10  C   UNL     1      -3.400  -6.716  -1.377  0.00  0.00    +0.170 C 
ATOM     11  C   UNL     1      -3.589  -6.326   0.090  0.00  0.00    +0.067 C 
ATOM     12  C   UNL     1      -3.618  -4.800   0.210  0.00  0.00    +0.027 C 
ATOM     13  O   UNL     1      -4.495  -6.201  -2.153  0.00  0.00    -0.346 OA
ATOM     14  C   UNL     1      -4.742  -7.212  -3.159  0.00  0.00    +0.191 C 
ATOM     15  C   UNL     1      -4.464  -8.516  -2.371  0.00  0.00    +0.191 C 
ATOM     16  O   UNL     1      -3.379  -8.144  -1.497  0.00  0.00    -0.346 OA
ENDBRANCH   4   7
BRANCH   1  24
ATOM     17  C   UNL     1       0.236   0.943  -0.950  0.00  0.00    +0.042 A 
ATOM     18  C   UNL     1       1.445   1.655  -0.929  0.00  0.00    +0.073 A 
ATOM     19  C   UNL     1       2.363   1.401   0.031  0.00  0.00    +0.098 A 
ATOM     20  N   UNL     1       2.132   0.459   0.984  0.00  0.00    -0.327 N 
ATOM     21  H   UNL     1       2.803   0.291   1.665  0.00  0.00    +0.168 HD
ATOM     22  C   UNL     1       0.983  -0.243   0.995  0.00  0.00    +0.270 A 
ATOM     23  O   UNL     1       0.790  -1.085   1.858  0.00  0.00    -0.266 OA
ATOM     24  C   UNL     1       0.002  -0.004   0.008  0.00  0.00    +0.100 A 
BRANCH  18  25
ATOM     25  C   UNL     1       1.720   2.702  -1.976  0.00  0.00    +0.419 C 
ATOM     26  F   UNL     1       2.978   3.270  -1.748  0.00  0.00    -0.166 F 
ATOM     27  F   UNL     1       1.698   2.111  -3.244  0.00  0.00    -0.166 F 
ATOM     28  F   UNL     1       0.740   3.698  -1.909  0.00  0.00    -0.166 F 
ENDBRANCH  18  25
ENDBRANCH   1  24
TORSDOF 3
