REMARK  Name = ZINC03370510
REMARK  9 active torsions:
REMARK  status: ('A' for Active; 'I' for Inactive)
REMARK    1  A    between atoms: C_3  and  S_23
REMARK    2  A    between atoms: C_6  and  N_7
REMARK    3  A    between atoms: N_7  and  C_8
REMARK    4  A    between atoms: C_8  and  N_10
REMARK    5  A    between atoms: N_10  and  N_11
REMARK    6  A    between atoms: N_11  and  C_12
REMARK    7  A    between atoms: C_12  and  N_14
REMARK    8  A    between atoms: N_14  and  C_15
REMARK    9  A    between atoms: S_23  and  C_24
REMARK                            x       y       z     vdW  Elec       q    Type
REMARK                         _______ _______ _______ _____ _____    ______ ____
ROOT
ATOM      1  N   UNL     1       2.369  -4.089  -0.196  0.00  0.00    -0.246 N 
ATOM      2  H   UNL     1       3.174  -4.525  -0.519  0.00  0.00    +0.172 HD
ENDROOT
BRANCH   1   3
ATOM      3  C   UNL     1       2.339  -2.749  -0.058  0.00  0.00    +0.151 C 
ATOM      4  S   UNL     1       3.719  -1.815  -0.452  0.00  0.00    -0.017 S 
BRANCH   3   5
ATOM      5  N   UNL     1       1.222  -2.143   0.391  0.00  0.00    -0.296 N 
ATOM      6  H   UNL     1       0.473  -2.675   0.702  0.00  0.00    +0.154 HD
BRANCH   5  12
ATOM      7  C   UNL     1       1.623  -0.007  -0.665  0.00  0.00    +0.024 A 
ATOM      8  C   UNL     1       1.544   1.371  -0.648  0.00  0.00    +0.017 A 
ATOM      9  C   UNL     1       0.984   2.021   0.444  0.00  0.00    +0.013 A 
ATOM     10  C   UNL     1       0.503   1.284   1.519  0.00  0.00    +0.017 A 
ATOM     11  C   UNL     1       0.582  -0.094   1.501  0.00  0.00    +0.024 A 
ATOM     12  C   UNL     1       1.142  -0.744   0.409  0.00  0.00    +0.033 A 
BRANCH   9  13
ATOM     13  S   UNL     1       0.884   3.780   0.467  0.00  0.00    -0.056 S 
BRANCH  13  14
ATOM     14  C   UNL     1       0.098   4.154   2.058  0.00  0.00    +0.404 C 
ATOM     15  F   UNL     1      -1.165   3.554   2.107  0.00  0.00    -0.197 F 
ATOM     16  F   UNL     1       0.891   3.658   3.098  0.00  0.00    -0.197 F 
ENDBRANCH  13  14
ENDBRANCH   9  13
ENDBRANCH   5  12
ENDBRANCH   3   5
ENDBRANCH   1   3
BRANCH   1  17
ATOM     17  N   UNL     1       1.240  -4.852   0.127  0.00  0.00    -0.246 N 
ATOM     18  H   UNL     1       0.436  -4.417   0.450  0.00  0.00    +0.172 HD
BRANCH  17  19
ATOM     19  C   UNL     1       1.271  -6.193  -0.012  0.00  0.00    +0.151 C 
ATOM     20  S   UNL     1      -0.110  -7.126   0.382  0.00  0.00    -0.017 S 
BRANCH  19  21
ATOM     21  N   UNL     1       2.388  -6.798  -0.461  0.00  0.00    -0.295 N 
ATOM     22  H   UNL     1       3.187  -6.276  -0.633  0.00  0.00    +0.154 HD
BRANCH  21  23
ATOM     23  C   UNL     1       2.395  -8.181  -0.678  0.00  0.00    +0.051 A 
ATOM     24  C   UNL     1       1.304  -8.797  -1.278  0.00  0.00    +0.026 A 
ATOM     25  C   UNL     1       1.314 -10.161  -1.491  0.00  0.00    +0.022 A 
ATOM     26  C   UNL     1       2.409 -10.916  -1.109  0.00  0.00    +0.042 A 
ATOM     27  C   UNL     1       3.498 -10.306  -0.511  0.00  0.00    +0.041 A 
ATOM     28  C   UNL     1       3.496  -8.940  -0.300  0.00  0.00    +0.063 A 
ATOM     29 CL   UNL     1       4.865  -8.174   0.442  0.00  0.00    -0.082 Cl
ATOM     30 CL   UNL     1       2.417 -12.631  -1.378  0.00  0.00    -0.083 Cl
ENDBRANCH  21  23
ENDBRANCH  19  21
ENDBRANCH  17  19
ENDBRANCH   1  17
TORSDOF 9
