REMARK  Name = ZINC37152788
REMARK  4 active torsions:
REMARK  status: ('A' for Active; 'I' for Inactive)
REMARK    1  A    between atoms: C_2  and  C_11
REMARK    2  A    between atoms: C_11  and  N_12
REMARK    3  A    between atoms: N_12  and  C_13
REMARK    4  A    between atoms: C_16  and  C_19
REMARK                            x       y       z     vdW  Elec       q    Type
REMARK                         _______ _______ _______ _____ _____    ______ ____
ROOT
ATOM      1  N   UNL     1       1.511   4.085   1.347  0.00  0.00    +0.384 N 
ATOM      2  H   UNL     1       0.850   3.734   2.024  0.00  0.00    -0.085 HD
ATOM      3  H   UNL     1       2.437   3.761   1.583  0.00  0.00    -0.085 HD
ENDROOT
BRANCH   1   4
ATOM      4  C   UNL     1       1.488   5.553   1.354  0.00  0.00    -0.071 C 
ATOM      5  C   UNL     1       0.058   6.043   1.120  0.00  0.00    -0.015 C 
ATOM      6  C   UNL     1       0.034   7.572   1.128  0.00  0.00    +0.011 C 
ATOM      7  C   UNL     1       0.532   8.083   2.481  0.00  0.00    +0.075 C 
ATOM      8  C   UNL     1       1.962   7.594   2.716  0.00  0.00    +0.011 C 
ATOM      9  C   UNL     1       1.986   6.064   2.708  0.00  0.00    -0.015 C 
BRANCH   7  10
ATOM     10  C   UNL     1      -0.363   7.561   3.575  0.00  0.00    +0.214 C 
ATOM     11  O   UNL     1      -1.307   6.851   3.300  0.00  0.00    -0.276 OA
ATOM     12  N   UNL     1      -0.116   7.884   4.860  0.00  0.00    -0.329 N 
ATOM     13  H   UNL     1       0.639   8.452   5.081  0.00  0.00    +0.145 HD
ATOM     14  H   UNL     1      -0.692   7.548   5.564  0.00  0.00    +0.145 HD
ENDBRANCH   7  10
ENDBRANCH   1   4
BRANCH   1  15
ATOM     15  C   UNL     1       1.147   3.596   0.010  0.00  0.00    -0.045 C 
BRANCH  15  17
ATOM     16  C   UNL     1      -0.017   1.381   0.010  0.00  0.00    +0.052 A 
ATOM     17  C   UNL     1       1.171   2.089   0.002  0.00  0.00    -0.047 A 
ATOM     18  C   UNL     1       2.380   1.418  -0.013  0.00  0.00    +0.023 A 
ATOM     19  C   UNL     1       2.406   0.035  -0.021  0.00  0.00    +0.065 A 
ATOM     20  C   UNL     1       1.220  -0.681  -0.014  0.00  0.00    +0.167 A 
ATOM     21  C   UNL     1       0.002  -0.004   0.002  0.00  0.00    +0.166 A 
ATOM     22  O   UNL     1      -1.008  -0.923   0.006  0.00  0.00    -0.453 OA
ATOM     23  C   UNL     1      -0.404  -2.159  -0.419  0.00  0.00    +0.466 C 
ATOM     24  O   UNL     1       0.973  -2.023  -0.019  0.00  0.00    -0.453 OA
ATOM     25 BR   UNL     1       4.000   2.392  -0.023  0.00  0.00    -0.050 Br
ENDBRANCH  15  17
ENDBRANCH   1  15
TORSDOF 4
