REMARK  Name = ZINC17077491
REMARK  12 active torsions:
REMARK  status: ('A' for Active; 'I' for Inactive)
REMARK    1  A    between atoms: C_1  and  C_2
REMARK    2  A    between atoms: C_2  and  C_3
REMARK    3  A    between atoms: C_2  and  C_4
REMARK    4  A    between atoms: C_2  and  C_5
REMARK    5  A    between atoms: N_7  and  C_8
REMARK    6  A    between atoms: C_11  and  C_14
REMARK    7  A    between atoms: C_14  and  C_15
REMARK    8  A    between atoms: C_18  and  N_21
REMARK    9  A    between atoms: C_22  and  C_24
REMARK   10  A    between atoms: C_24  and  C_25
REMARK   11  A    between atoms: C_24  and  C_26
REMARK   12  A    between atoms: C_24  and  C_27
REMARK                            x       y       z     vdW  Elec       q    Type
REMARK                         _______ _______ _______ _____ _____    ______ ____
ROOT
ATOM      1  C   UNL     1      -3.174   7.139   0.446  0.00  0.00    +0.007 C 
ENDROOT
BRANCH   1   5
ATOM      2  C   UNL     1      -1.471   4.044   2.945  0.00  0.00    +0.073 C 
ATOM      3  C   UNL     1      -2.961   3.960   2.608  0.00  0.00    +0.022 C 
ATOM      4  C   UNL     1      -3.255   4.823   1.379  0.00  0.00    +0.005 C 
ATOM      5  C   UNL     1      -2.880   6.276   1.675  0.00  0.00    -0.011 C 
ATOM      6  C   UNL     1      -1.390   6.360   2.013  0.00  0.00    +0.005 C 
ATOM      7  C   UNL     1      -1.096   5.497   3.241  0.00  0.00    +0.022 C 
BRANCH   2  10
ATOM      8  C   UNL     1      -0.447   2.239   1.668  0.00  0.00    +0.219 C 
ATOM      9  O   UNL     1      -0.883   1.454   2.483  0.00  0.00    -0.275 OA
ATOM     10  N   UNL     1      -0.685   3.558   1.808  0.00  0.00    -0.312 N 
ATOM     11  H   UNL     1      -0.289   4.271   1.069  0.00  0.00    +0.149 HD
BRANCH   8  13
ATOM     12  C   UNL     1       0.483   0.217   0.575  0.00  0.00    +0.020 C 
ATOM     13  C   UNL     1       0.362   1.740   0.498  0.00  0.00    +0.039 C 
ATOM     14  C   UNL     1       1.758   2.366   0.539  0.00  0.00    +0.020 C 
ATOM     15  C   UNL     1      -0.334   2.131  -0.807  0.00  0.00    +0.020 C 
ENDBRANCH   8  13
ENDBRANCH   2  10
ENDBRANCH   1   5
BRANCH   1  16
ATOM     16  C   UNL     1      -4.683   7.171   0.195  0.00  0.00    -0.011 C 
ATOM     17  C   UNL     1      -4.967   7.913  -1.113  0.00  0.00    +0.005 C 
ATOM     18  C   UNL     1      -6.476   7.946  -1.364  0.00  0.00    +0.022 C 
ATOM     19  C   UNL     1      -7.170   8.668  -0.207  0.00  0.00    +0.073 C 
ATOM     20  C   UNL     1      -6.886   7.926   1.100  0.00  0.00    +0.022 C 
ATOM     21  C   UNL     1      -5.377   7.894   1.352  0.00  0.00    +0.005 C 
BRANCH  19  22
ATOM     22  N   UNL     1      -8.614   8.699  -0.448  0.00  0.00    -0.312 N 
ATOM     23  C   UNL     1      -9.150   9.674  -1.208  0.00  0.00    +0.219 C 
ATOM     24  O   UNL     1      -8.436  10.526  -1.693  0.00  0.00    -0.275 OA
ATOM     25  H   UNL     1      -9.262   7.926  -0.008  0.00  0.00    +0.149 HD
BRANCH  23  26
ATOM     26  C   UNL     1     -10.636   9.706  -1.456  0.00  0.00    +0.039 C 
ATOM     27  C   UNL     1     -10.980  10.905  -2.342  0.00  0.00    +0.020 C 
ATOM     28  C   UNL     1     -11.065   8.414  -2.156  0.00  0.00    +0.020 C 
ATOM     29  C   UNL     1     -11.373   9.831  -0.121  0.00  0.00    +0.020 C 
ENDBRANCH  23  26
ENDBRANCH  19  22
ENDBRANCH   1  16
TORSDOF 6
