REMARK  Name = ZINC05695492
REMARK  7 active torsions:
REMARK  status: ('A' for Active; 'I' for Inactive)
REMARK    1  A    between atoms: C_1  and  C_2
REMARK    2  A    between atoms: C_15  and  C_17
REMARK    3  A    between atoms: C_17  and  C_28
REMARK    4  A    between atoms: C_18  and  C_19
REMARK    5  A    between atoms: C_22  and  O_26
REMARK    6  A    between atoms: C_23  and  O_25
REMARK    7  A    between atoms: O_26  and  C_27
REMARK                            x       y       z     vdW  Elec       q    Type
REMARK                         _______ _______ _______ _____ _____    ______ ____
ROOT
ATOM      1  C   UNL     1       6.768   5.109  -0.402  0.00  0.00    +0.008 C 
ATOM      2  C   UNL     1       5.676   4.059  -0.614  0.00  0.00    -0.009 C 
ATOM      3  C   UNL     1       5.907   2.878   0.333  0.00  0.00    +0.008 C 
ATOM      4  C   UNL     1       4.977   1.723  -0.040  0.00  0.00    +0.037 C 
ATOM      5  C   UNL     1       3.544   2.245  -0.105  0.00  0.00    -0.023 A 
ATOM      6  C   UNL     1       3.297   3.567  -0.221  0.00  0.00    -0.004 A 
ATOM      7  S   UNL     1       1.530   3.704  -0.254  0.00  0.00    -0.073 S 
ATOM      8  C   UNL     1       1.127   1.981  -0.110  0.00  0.00    +0.116 A 
ATOM      9  C   UNL     1       2.385   1.356  -0.040  0.00  0.00    +0.075 A 
ATOM     10  C   UNL     1       2.367  -0.071   0.085  0.00  0.00    +0.260 A 
ATOM     11  O   UNL     1       3.410  -0.699   0.153  0.00  0.00    -0.267 OA
ATOM     12  N   UNL     1       1.183  -0.709   0.127  0.00  0.00    -0.306 N 
ATOM     13  H   UNL     1       1.164  -1.705   0.215  0.00  0.00    +0.170 HD
ATOM     14  C   UNL     1       0.002  -0.019   0.052  0.00  0.00    +0.152 A 
ATOM     15  N   UNL     1      -0.006   1.295  -0.064  0.00  0.00    -0.221 NA
ATOM     16  C   UNL     1       4.303   4.675  -0.306  0.00  0.00    +0.046 C 
ENDROOT
BRANCH  14  17
ATOM     17  C   UNL     1      -1.272  -0.752   0.100  0.00  0.00    +0.095 C 
ATOM     18  C   UNL     1      -2.464  -0.067   0.024  0.00  0.00    +0.030 C 
BRANCH  18  19
ATOM     19  C   UNL     1      -3.727  -0.803  -0.079  0.00  0.00    -0.020 A 
ATOM     20  C   UNL     1      -4.907  -0.251   0.441  0.00  0.00    +0.012 A 
ATOM     21  C   UNL     1      -6.092  -0.945   0.342  0.00  0.00    +0.050 A 
ATOM     22  C   UNL     1      -6.122  -2.191  -0.272  0.00  0.00    +0.161 A 
ATOM     23  C   UNL     1      -4.953  -2.748  -0.791  0.00  0.00    +0.159 A 
ATOM     24  C   UNL     1      -3.761  -2.058  -0.702  0.00  0.00    +0.057 A 
BRANCH  23  25
ATOM     25  O   UNL     1      -4.989  -3.967  -1.391  0.00  0.00    -0.503 OA
ATOM     26  H   UNL     1      -5.161  -3.933  -2.342  0.00  0.00    +0.292 HD
ENDBRANCH  23  25
BRANCH  22  27
ATOM     27  O   UNL     1      -7.295  -2.870  -0.367  0.00  0.00    -0.491 OA
ATOM     28  C   UNL     1      -8.454  -2.243   0.185  0.00  0.00    +0.277 C 
ENDBRANCH  22  27
ENDBRANCH  18  19
BRANCH  17  29
ATOM     29  C   UNL     1      -1.274  -2.179   0.225  0.00  0.00    +0.103 C 
ATOM     30  N   UNL     1      -1.274  -3.310   0.325  0.00  0.00    -0.191 NA
ENDBRANCH  17  29
ENDBRANCH  14  17
TORSDOF 5
