REMARK  Name = ZINC39710528
REMARK  13 active torsions:
REMARK  status: ('A' for Active; 'I' for Inactive)
REMARK    1  A    between atoms: C_1  and  C_2
REMARK    2  A    between atoms: C_2  and  C_3
REMARK    3  A    between atoms: C_10  and  C_15
REMARK    4  A    between atoms: C_15  and  C_17
REMARK    5  A    between atoms: C_15  and  N_27
REMARK    6  A    between atoms: N_22  and  C_23
REMARK    7  A    between atoms: C_23  and  C_24
REMARK    8  A    between atoms: C_23  and  C_25
REMARK    9  A    between atoms: C_23  and  C_26
REMARK   10  A    between atoms: N_27  and  C_28
REMARK   11  A    between atoms: N_27  and  C_35
REMARK   12  A    between atoms: C_28  and  C_29
REMARK   13  A    between atoms: C_35  and  C_36
REMARK                            x       y       z     vdW  Elec       q    Type
REMARK                         _______ _______ _______ _____ _____    ______ ____
ROOT
ATOM      1  C   UNL     1       0.224  -3.707   6.297  0.00  0.00    -0.009 C 
ENDROOT
BRANCH   1   9
ATOM      2  C   UNL     1      -0.947  -1.522   1.015  0.00  0.00    -0.047 A 
ATOM      3  C   UNL     1       0.403  -1.272   0.766  0.00  0.00    +0.005 A 
ATOM      4  C   UNL     1       1.350  -1.332   1.738  0.00  0.00    +0.024 A 
ATOM      5  C   UNL     1       0.997  -1.655   3.061  0.00  0.00    +0.040 A 
ATOM      6  N   UNL     1       1.935  -1.710   4.006  0.00  0.00    -0.285 N 
ATOM      7  C   UNL     1       1.673  -2.008   5.268  0.00  0.00    +0.223 C 
ATOM      8  O   UNL     1       2.571  -2.043   6.087  0.00  0.00    -0.275 OA
ATOM      9  C   UNL     1       0.251  -2.304   5.688  0.00  0.00    +0.088 C 
ATOM     10  C   UNL     1      -0.820  -2.242   4.617  0.00  0.00    -0.006 C 
ATOM     11  C   UNL     1      -0.422  -1.923   3.353  0.00  0.00    -0.007 A 
ATOM     12  C   UNL     1      -1.391  -1.837   2.260  0.00  0.00    +0.013 A 
ATOM     13  H   UNL     1       2.854  -1.523   3.757  0.00  0.00    +0.155 HD
BRANCH   2  15
ATOM     14  C   UNL     1      -2.470  -0.004  -0.221  0.00  0.00    +0.009 C 
ATOM     15  C   UNL     1      -1.935  -1.434  -0.120  0.00  0.00    +0.032 C 
ENDBRANCH   2  15
ENDBRANCH   1   9
BRANCH   1  16
ATOM     16  C   UNL     1       0.744  -4.718   5.273  0.00  0.00    +0.205 C 
ATOM     17  N   UNL     1       2.096  -4.349   4.830  0.00  0.00    -0.152 NA
ATOM     18  N   UNL     1       2.073  -4.137   3.616  0.00  0.00    -0.070 NA
ATOM     19  N   UNL     1       0.807  -4.308   3.058  0.00  0.00    -0.179 N 
ATOM     20  N   UNL     1      -0.076  -4.675   4.044  0.00  0.00    -0.183 NA
ATOM     21  H   UNL     1       0.584  -4.188   2.122  0.00  0.00    +0.191 HD
BRANCH  20  22
ATOM     22  C   UNL     1      -0.669  -5.989   3.760  0.00  0.00    +0.035 C 
ATOM     23  C   UNL     1      -1.561  -6.409   4.930  0.00  0.00    +0.029 C 
ATOM     24  C   UNL     1      -1.508  -5.904   2.484  0.00  0.00    +0.029 C 
ATOM     25  C   UNL     1       0.445  -7.021   3.571  0.00  0.00    +0.029 C 
ENDBRANCH  20  22
ENDBRANCH   1  16
BRANCH   1  26
ATOM     26  N   UNL     1       1.077  -3.739   7.493  0.00  0.00    +0.390 N 
ATOM     27  H   UNL     1       2.019  -3.478   7.241  0.00  0.00    -0.080 HD
BRANCH  26  28
ATOM     28  C   UNL     1       0.557  -2.794   8.490  0.00  0.00    -0.042 C 
BRANCH  28  29
ATOM     29  C   UNL     1      -0.901  -3.080   8.740  0.00  0.00    -0.064 A 
ATOM     30  C   UNL     1      -1.865  -2.522   7.921  0.00  0.00    +0.002 A 
ATOM     31  C   UNL     1      -3.203  -2.784   8.150  0.00  0.00    +0.000 A 
ATOM     32  C   UNL     1      -3.577  -3.604   9.198  0.00  0.00    +0.000 A 
ATOM     33  C   UNL     1      -2.613  -4.162  10.017  0.00  0.00    +0.000 A 
ATOM     34  C   UNL     1      -1.275  -3.904   9.785  0.00  0.00    +0.002 A 
ENDBRANCH  28  29
ENDBRANCH  26  28
BRANCH  26  35
ATOM     35  C   UNL     1       1.079  -5.095   8.057  0.00  0.00    -0.040 C 
BRANCH  35  36
ATOM     36  C   UNL     1       2.211  -5.227   9.044  0.00  0.00    -0.046 A 
ATOM     37  C   UNL     1       3.495  -5.511   8.605  0.00  0.00    +0.005 A 
ATOM     38  C   UNL     1       4.505  -5.624   9.549  0.00  0.00    +0.020 A 
ATOM     39  C   UNL     1       4.199  -5.450  10.885  0.00  0.00    +0.111 A 
ATOM     40  N   UNL     1       2.966  -5.180  11.266  0.00  0.00    -0.263 NA
ATOM     41  C   UNL     1       1.982  -5.060  10.396  0.00  0.00    +0.112 A 
ENDBRANCH  35  36
ENDBRANCH  26  35
ENDBRANCH   1  26
TORSDOF 9
