REMARK  Name = ZINC42008533
REMARK  7 active torsions:
REMARK  status: ('A' for Active; 'I' for Inactive)
REMARK    1  A    between atoms: C_1  and  C_2
REMARK    2  A    between atoms: C_5  and  C_11
REMARK    3  A    between atoms: C_5  and  S_14
REMARK    4  A    between atoms: C_7  and  C_9
REMARK    5  A    between atoms: C_7  and  C_10
REMARK    6  A    between atoms: S_14  and  C_15
REMARK    7  A    between atoms: C_18  and  N_22
REMARK                            x       y       z     vdW  Elec       q    Type
REMARK                         _______ _______ _______ _____ _____    ______ ____
ROOT
ATOM      1  C   UNL     1       0.551   1.576   0.628  0.00  0.00    +0.007 C 
ATOM      2  C   UNL     1       0.367   0.071   0.428  0.00  0.00    -0.012 C 
ATOM      3  C   UNL     1       0.983  -0.345  -0.910  0.00  0.00    +0.032 C 
ATOM      4  C   UNL     1       0.799  -1.850  -1.110  0.00  0.00    +0.123 C 
ATOM      5  C   UNL     1       1.492  -2.604   0.026  0.00  0.00    +0.035 C 
ATOM      6  C   UNL     1       0.876  -2.189   1.364  0.00  0.00    -0.033 C 
ATOM      7  C   UNL     1       1.060  -0.683   1.564  0.00  0.00    +0.009 C 
ATOM      8  C   UNL     1       1.569  -2.943   2.501  0.00  0.00    +0.011 C 
ATOM      9  C   UNL     1      -0.616  -2.525   1.364  0.00  0.00    +0.011 C 
ENDROOT
BRANCH   4  10
ATOM     10  C   UNL     1      -0.671  -2.181  -1.110  0.00  0.00    +0.372 C 
ATOM     11  O   UNL     1      -1.495  -1.297  -0.948  0.00  0.00    -0.245 OA
ATOM     12  O   UNL     1      -1.037  -3.333  -1.271  0.00  0.00    -0.245 OA
ENDBRANCH   4  10
BRANCH   4  13
ATOM     13  S   UNL     1       1.529  -2.343  -2.696  0.00  0.00    -0.104 S 
BRANCH  13  14
ATOM     14  C   UNL     1       0.660  -1.374  -3.885  0.00  0.00    +0.044 A 
ATOM     15  C   UNL     1      -0.412  -0.587  -3.488  0.00  0.00    +0.019 A 
ATOM     16  C   UNL     1      -1.094   0.172  -4.420  0.00  0.00    +0.024 A 
ATOM     17  C   UNL     1      -0.707   0.148  -5.753  0.00  0.00    +0.027 A 
ATOM     18  C   UNL     1       0.366  -0.639  -6.151  0.00  0.00    +0.062 A 
ATOM     19  C   UNL     1       1.052  -1.394  -5.219  0.00  0.00    +0.138 A 
ATOM     20  F   UNL     1       2.100  -2.156  -5.604  0.00  0.00    -0.204 F 
BRANCH  17  21
ATOM     21  N   UNL     1      -1.398   0.917  -6.696  0.00  0.00    -0.358 N 
ATOM     22  H   UNL     1      -2.147   1.467  -6.418  0.00  0.00    +0.142 HD
ATOM     23  H   UNL     1      -1.128   0.901  -7.628  0.00  0.00    +0.142 HD
ENDBRANCH  17  21
ENDBRANCH  13  14
ENDBRANCH   4  13
TORSDOF 4
