REMARK  Name = ZINC08874893
REMARK  6 active torsions:
REMARK  status: ('A' for Active; 'I' for Inactive)
REMARK    1  A    between atoms: C_1  and  C_2
REMARK    2  A    between atoms: C_14  and  C_17
REMARK    3  A    between atoms: C_21  and  O_23
REMARK    4  A    between atoms: O_23  and  C_24
REMARK    5  A    between atoms: C_27  and  N_33
REMARK    6  A    between atoms: C_29  and  N_30
REMARK                            x       y       z     vdW  Elec       q    Type
REMARK                         _______ _______ _______ _____ _____    ______ ____
ROOT
ATOM      1  C   UNL     1       2.598  -1.375  -6.648  0.00  0.00    -0.006 A 
ATOM      2  C   UNL     1       1.268  -1.685  -6.867  0.00  0.00    +0.007 A 
ATOM      3  C   UNL     1       0.815  -2.976  -6.666  0.00  0.00    +0.004 A 
ATOM      4  C   UNL     1       1.689  -3.959  -6.246  0.00  0.00    +0.046 A 
ATOM      5  C   UNL     1       3.024  -3.650  -6.025  0.00  0.00    +0.129 A 
ATOM      6  C   UNL     1       3.477  -2.355  -6.232  0.00  0.00    +0.053 A 
ENDROOT
BRANCH   1  19
ATOM      7  C   UNL     1       0.816   2.830   0.881  0.00  0.00    +0.008 C 
ATOM      8  C   UNL     1       1.302   2.109  -0.378  0.00  0.00    -0.009 C 
ATOM      9  C   UNL     1       2.753   2.503  -0.668  0.00  0.00    +0.008 C 
ATOM     10  C   UNL     1       3.325   1.606  -1.767  0.00  0.00    +0.037 C 
ATOM     11  C   UNL     1       2.381   1.631  -2.964  0.00  0.00    -0.023 A 
ATOM     12  C   UNL     1       1.102   2.045  -2.829  0.00  0.00    -0.004 A 
ATOM     13  S   UNL     1       0.402   1.906  -4.453  0.00  0.00    -0.078 S 
ATOM     14  C   UNL     1       1.775   1.314  -5.287  0.00  0.00    +0.080 A 
ATOM     15  C   UNL     1       2.772   1.223  -4.304  0.00  0.00    +0.068 A 
ATOM     16  C   UNL     1       4.106   0.737  -4.726  0.00  0.00    +0.248 C 
ATOM     17  O   UNL     1       5.055   0.747  -3.962  0.00  0.00    -0.270 OA
ATOM     18  N   UNL     1       4.227   0.284  -5.991  0.00  0.00    -0.289 N 
ATOM     19  C   UNL     1       3.088   0.033  -6.868  0.00  0.00    +0.190 C 
ATOM     20  N   UNL     1       1.987   0.976  -6.598  0.00  0.00    -0.316 N 
ATOM     21  C   UNL     1       0.431   2.514  -1.576  0.00  0.00    +0.046 C 
ATOM     22  H   UNL     1       5.118   0.116  -6.335  0.00  0.00    +0.151 HD
ATOM     23  H   UNL     1       1.440   1.338  -7.312  0.00  0.00    +0.149 HD
ENDBRANCH   1  19
BRANCH   5  24
ATOM     24  O   UNL     1       3.886  -4.615  -5.611  0.00  0.00    -0.454 OA
BRANCH  24  25
ATOM     25  C   UNL     1       4.351  -5.495  -6.536  0.00  0.00    +0.159 A 
ATOM     26  C   UNL     1       4.005  -5.347  -7.871  0.00  0.00    +0.051 A 
ATOM     27  C   UNL     1       4.482  -6.240  -8.811  0.00  0.00    +0.036 A 
ATOM     28  C   UNL     1       5.297  -7.287  -8.419  0.00  0.00    +0.129 A 
ATOM     29  C   UNL     1       5.639  -7.440  -7.089  0.00  0.00    +0.069 A 
ATOM     30  C   UNL     1       5.168  -6.547  -6.146  0.00  0.00    +0.170 A 
BRANCH  30  31
ATOM     31  N   UNL     1       5.535  -6.711  -4.721  0.00  0.00    +0.060 N 
ATOM     32  O   UNL     1       6.253  -7.634  -4.380  0.00  0.00    -0.126 OA
ATOM     33  O   UNL     1       5.120  -5.923  -3.891  0.00  0.00    -0.126 OA
ENDBRANCH  30  31
BRANCH  28  34
ATOM     34  N   UNL     1       5.803  -8.246  -9.427  0.00  0.00    +0.057 N 
ATOM     35  O   UNL     1       6.520  -9.169  -9.084  0.00  0.00    -0.126 OA
ATOM     36  O   UNL     1       5.502  -8.112 -10.600  0.00  0.00    -0.126 OA
ENDBRANCH  28  34
ENDBRANCH  24  25
ENDBRANCH   5  24
TORSDOF 5
