REMARK  Name = ZINC00989110
REMARK  12 active torsions:
REMARK  status: ('A' for Active; 'I' for Inactive)
REMARK    1  A    between atoms: C_1  and  C_2
REMARK    2  A    between atoms: C_2  and  C_3
REMARK    3  A    between atoms: C_2  and  O_4
REMARK    4  A    between atoms: O_4  and  C_5
REMARK    5  A    between atoms: C_8  and  C_13
REMARK    6  A    between atoms: C_10  and  O_11
REMARK    7  A    between atoms: O_11  and  C_12
REMARK    8  A    between atoms: N_18  and  C_32
REMARK    9  A    between atoms: C_22  and  C_30
REMARK   10  A    between atoms: C_23  and  N_29
REMARK   11  A    between atoms: C_24  and  C_25
REMARK   12  A    between atoms: C_24  and  C_27
REMARK                            x       y       z     vdW  Elec       q    Type
REMARK                         _______ _______ _______ _____ _____    ______ ____
ROOT
ATOM      1  C   UNL     1      -2.115  -5.268  -2.890  0.00  0.00    +0.068 C 
ATOM      2  C   UNL     1      -1.508  -5.120  -4.286  0.00  0.00    +0.044 C 
ATOM      3  C   UNL     1      -2.275  -4.128  -5.132  0.00  0.00    +0.093 C 
ATOM      4  N   UNL     1      -1.628  -2.814  -5.159  0.00  0.00    -0.301 NA
ATOM      5  C   UNL     1      -0.269  -2.927  -5.718  0.00  0.00    +0.111 C 
ATOM      6  C   UNL     1       0.536  -3.806  -4.793  0.00  0.00    -0.007 C 
ATOM      7  C   UNL     1      -0.057  -4.765  -4.130  0.00  0.00    -0.026 C 
ATOM      8  C   UNL     1       0.726  -5.537  -3.133  0.00  0.00    +0.074 C 
ATOM      9  C   UNL     1       0.070  -6.296  -2.219  0.00  0.00    +0.054 C 
ATOM     10  C   UNL     1      -1.425  -6.424  -2.166  0.00  0.00    +0.188 C 
ATOM     11  C   UNL     1      -2.431  -1.847  -5.919  0.00  0.00    +0.105 C 
ENDROOT
BRANCH   1  15
ATOM     12  C   UNL     1      -1.527  -1.651  -0.685  0.00  0.00    +0.162 A 
ATOM     13  C   UNL     1      -0.532  -2.614  -0.719  0.00  0.00    +0.050 A 
ATOM     14  C   UNL     1      -0.725  -3.783  -1.432  0.00  0.00    +0.008 A 
ATOM     15  C   UNL     1      -1.910  -3.992  -2.113  0.00  0.00    -0.037 A 
ATOM     16  C   UNL     1      -2.906  -3.035  -2.084  0.00  0.00    +0.053 A 
ATOM     17  C   UNL     1      -2.722  -1.864  -1.366  0.00  0.00    +0.162 A 
BRANCH  17  18
ATOM     18  O   UNL     1      -3.704  -0.924  -1.331  0.00  0.00    -0.491 OA
ATOM     19  C   UNL     1      -4.903  -1.211  -2.053  0.00  0.00    +0.277 C 
ENDBRANCH  17  18
BRANCH  12  20
ATOM     20  O   UNL     1      -1.339  -0.501   0.017  0.00  0.00    -0.486 OA
BRANCH  20  22
ATOM     21  C   UNL     1       0.283   1.205   0.566  0.00  0.00    +0.051 C 
ATOM     22  C   UNL     1      -0.043  -0.290   0.581  0.00  0.00    +0.167 C 
ATOM     23  C   UNL     1      -0.026  -0.801   2.023  0.00  0.00    +0.051 C 
ENDBRANCH  20  22
ENDBRANCH  12  20
ENDBRANCH   1  15
BRANCH   9  24
ATOM     24  N   UNL     1       0.810  -6.980  -1.295  0.00  0.00    -0.358 N 
ATOM     25  H   UNL     1       1.778  -6.916  -1.305  0.00  0.00    +0.142 HD
ATOM     26  H   UNL     1       0.367  -7.530  -0.630  0.00  0.00    +0.142 HD
ENDBRANCH   9  24
BRANCH  10  27
ATOM     27  C   UNL     1      -1.820  -7.692  -2.801  0.00  0.00    +0.091 C 
ATOM     28  N   UNL     1      -2.125  -8.670  -3.291  0.00  0.00    -0.194 NA
ENDBRANCH  10  27
BRANCH  10  29
ATOM     29  C   UNL     1      -1.860  -6.438  -0.760  0.00  0.00    +0.091 C 
ATOM     30  N   UNL     1      -2.195  -6.449   0.326  0.00  0.00    -0.194 NA
ENDBRANCH  10  29
BRANCH   8  31
ATOM     31  C   UNL     1       2.157  -5.482  -3.136  0.00  0.00    +0.101 C 
ATOM     32  N   UNL     1       3.292  -5.438  -3.138  0.00  0.00    -0.191 NA
ENDBRANCH   8  31
TORSDOF 8
