REMARK  Name = ZINC28294117
REMARK  10 active torsions:
REMARK  status: ('A' for Active; 'I' for Inactive)
REMARK    1  A    between atoms: C_4  and  S_10
REMARK    2  A    between atoms: C_5  and  N_7
REMARK    3  A    between atoms: S_10  and  N_11
REMARK    4  A    between atoms: N_11  and  C_12
REMARK    5  A    between atoms: C_12  and  C_14
REMARK    6  A    between atoms: C_12  and  N_18
REMARK    7  A    between atoms: N_18  and  C_19
REMARK    8  A    between atoms: C_19  and  N_21
REMARK    9  A    between atoms: N_21  and  C_22
REMARK   10  A    between atoms: C_25  and  N_28
REMARK                            x       y       z     vdW  Elec       q    Type
REMARK                         _______ _______ _______ _____ _____    ______ ____
ROOT
ATOM      1  C   UNL     1      -0.646   1.496   1.009  0.00  0.00    +0.202 C 
ENDROOT
BRANCH   1   2
ATOM      2  C   UNL     1       0.324   1.008  -0.069  0.00  0.00    +0.222 C 
ATOM      3 CL   UNL     1       0.791  -0.700   0.271  0.00  0.00    -0.080 Cl
ATOM      4 CL   UNL     1       1.799   2.046  -0.065  0.00  0.00    -0.080 Cl
ATOM      5 CL   UNL     1      -0.473   1.104  -1.683  0.00  0.00    -0.080 Cl
ENDBRANCH   1   2
BRANCH   1   6
ATOM      6  N   UNL     1      -1.026   2.888   0.732  0.00  0.00    -0.236 NA
ATOM      7  H   UNL     1      -0.259   3.396   0.318  0.00  0.00    +0.137 HD
BRANCH   6   8
ATOM      8  S   UNL     1      -2.461   2.960  -0.293  0.00  0.00    -0.040 S 
BRANCH   8  12
ATOM      9  C   UNL     1      -3.197   7.395  -0.836  0.00  0.00    +0.002 A 
ATOM     10  C   UNL     1      -3.782   6.724   0.222  0.00  0.00    +0.001 A 
ATOM     11  C   UNL     1      -3.564   5.370   0.388  0.00  0.00    +0.018 A 
ATOM     12  C   UNL     1      -2.747   4.685  -0.504  0.00  0.00    +0.053 A 
ATOM     13  C   UNL     1      -2.162   5.364  -1.566  0.00  0.00    +0.141 A 
ATOM     14  C   UNL     1      -2.389   6.716  -1.729  0.00  0.00    +0.034 A 
BRANCH  13  15
ATOM     15  N   UNL     1      -1.297   4.637  -2.522  0.00  0.00    +0.058 N 
ATOM     16  O   UNL     1      -0.784   5.232  -3.453  0.00  0.00    -0.126 OA
ATOM     17  O   UNL     1      -1.097   3.444  -2.379  0.00  0.00    -0.126 OA
ENDBRANCH  13  15
ENDBRANCH   8  12
ENDBRANCH   6   8
ENDBRANCH   1   6
BRANCH   1  18
ATOM     18  N   UNL     1       0.002   1.418   2.321  0.00  0.00    -0.307 N 
ATOM     19  H   UNL     1       1.034   1.777   2.446  0.00  0.00    +0.149 HD
BRANCH  18  20
ATOM     20  C   UNL     1      -0.666   0.907   3.373  0.00  0.00    +0.136 C 
ATOM     21  S   UNL     1      -2.273   0.349   3.178  0.00  0.00    -0.019 S 
BRANCH  20  22
ATOM     22  N   UNL     1      -0.070   0.836   4.580  0.00  0.00    -0.297 N 
ATOM     23  H   UNL     1       0.984   1.129   4.691  0.00  0.00    +0.154 HD
BRANCH  22  24
ATOM     24  C   UNL     1      -0.792   0.388   5.691  0.00  0.00    +0.033 A 
ATOM     25  C   UNL     1      -0.707   1.071   6.898  0.00  0.00    +0.025 A 
ATOM     26  C   UNL     1      -1.426   0.631   7.992  0.00  0.00    +0.034 A 
ATOM     27  C   UNL     1      -2.221  -0.497   7.890  0.00  0.00    +0.126 A 
ATOM     28  C   UNL     1      -2.303  -1.182   6.692  0.00  0.00    +0.034 A 
ATOM     29  C   UNL     1      -1.592  -0.743   5.593  0.00  0.00    +0.025 A 
BRANCH  27  30
ATOM     30  N   UNL     1      -2.985  -0.970   9.066  0.00  0.00    +0.056 N 
ATOM     31  O   UNL     1      -3.685  -1.962   8.978  0.00  0.00    -0.126 OA
ATOM     32  O   UNL     1      -2.913  -0.367  10.122  0.00  0.00    -0.126 OA
ENDBRANCH  27  30
ENDBRANCH  22  24
ENDBRANCH  20  22
ENDBRANCH  18  20
ENDBRANCH   1  18
TORSDOF 10
