REMARK  Name = ZINC39599656
REMARK  6 active torsions:
REMARK  status: ('A' for Active; 'I' for Inactive)
REMARK    1  A    between atoms: C_3  and  C_8
REMARK    2  A    between atoms: C_12  and  C_21
REMARK    3  A    between atoms: N_23  and  C_24
REMARK    4  A    between atoms: C_24  and  C_25
REMARK    5  A    between atoms: C_28  and  O_31
REMARK    6  A    between atoms: O_31  and  C_32
REMARK                            x       y       z     vdW  Elec       q    Type
REMARK                         _______ _______ _______ _____ _____    ______ ____
ROOT
ATOM      1  C   UNL     1       3.483   1.989   0.054  0.00  0.00    +0.250 C 
ATOM      2  O   UNL     1       4.489   1.307   0.066  0.00  0.00    -0.270 OA
ATOM      3  N   UNL     1       3.575   3.325  -0.092  0.00  0.00    -0.296 N 
ATOM      4  C   UNL     1       2.483   4.324  -0.025  0.00  0.00    +0.121 C 
ATOM      5  C   UNL     1       3.099   5.526   0.725  0.00  0.00    +0.100 C 
ATOM      6  C   UNL     1       4.615   5.393   0.501  0.00  0.00    -0.004 C 
ATOM      7  C   UNL     1       4.794   4.128  -0.351  0.00  0.00    +0.115 C 
ATOM      8  C   UNL     1       5.149   6.613  -0.243  0.00  0.00    -0.010 C 
ATOM      9  C   UNL     1       6.666   6.485  -0.403  0.00  0.00    -0.082 C 
ATOM     10  N   UNL     1       7.292   6.382   0.921  0.00  0.00    +0.379 N 
ATOM     11  C   UNL     1       6.844   5.156   1.593  0.00  0.00    -0.082 C 
ATOM     12  C   UNL     1       5.334   5.229   1.837  0.00  0.00    -0.010 C 
ATOM     13  H   UNL     1       8.296   6.359   0.816  0.00  0.00    -0.086 HD
ATOM     14  H   UNL     1       7.033   7.183   1.477  0.00  0.00    -0.086 HD
ENDROOT
BRANCH   1  17
ATOM     15  C   UNL     1      -0.173   1.222  -0.312  0.00  0.00    +0.021 A 
ATOM     16  C   UNL     1       1.046   1.855  -0.484  0.00  0.00    +0.017 A 
ATOM     17  C   UNL     1       2.158   1.352   0.201  0.00  0.00    +0.074 A 
ATOM     18  C   UNL     1       1.993   0.235   1.026  0.00  0.00    +0.141 A 
ATOM     19  N   UNL     1       0.811  -0.332   1.156  0.00  0.00    -0.243 NA
ATOM     20  C   UNL     1      -0.254   0.122   0.522  0.00  0.00    +0.112 A 
ATOM     21 CL   UNL     1       3.357  -0.409   1.885  0.00  0.00    -0.061 Cl
ENDBRANCH   1  17
BRANCH   5  22
ATOM     22  C   UNL     1       2.593   6.822   0.145  0.00  0.00    +0.218 C 
ATOM     23  O   UNL     1       2.303   6.888  -1.031  0.00  0.00    -0.275 OA
ATOM     24  N   UNL     1       2.463   7.908   0.933  0.00  0.00    -0.311 N 
ATOM     25  H   UNL     1       2.695   7.855   1.873  0.00  0.00    +0.149 HD
BRANCH  24  26
ATOM     26  C   UNL     1       1.970   9.167   0.369  0.00  0.00    +0.139 C 
BRANCH  26  27
ATOM     27  C   UNL     1       1.919  10.215   1.450  0.00  0.00    -0.030 A 
ATOM     28  C   UNL     1       0.773  10.368   2.209  0.00  0.00    +0.009 A 
ATOM     29  C   UNL     1       0.723  11.329   3.201  0.00  0.00    +0.046 A 
ATOM     30  C   UNL     1       1.824  12.140   3.436  0.00  0.00    +0.130 A 
ATOM     31  C   UNL     1       2.973  11.984   2.673  0.00  0.00    +0.046 A 
ATOM     32  C   UNL     1       3.019  11.018   1.686  0.00  0.00    +0.009 A 
BRANCH  30  33
ATOM     33  O   UNL     1       1.777  13.086   4.410  0.00  0.00    -0.406 OA
BRANCH  33  34
ATOM     34  C   UNL     1       2.948  13.884   4.596  0.00  0.00    +0.575 C 
ATOM     35  F   UNL     1       3.232  14.576   3.414  0.00  0.00    -0.133 F 
ATOM     36  F   UNL     1       2.728  14.800   5.631  0.00  0.00    -0.133 F 
ATOM     37  F   UNL     1       4.028  13.059   4.925  0.00  0.00    -0.133 F 
ENDBRANCH  33  34
ENDBRANCH  30  33
ENDBRANCH  26  27
ENDBRANCH  24  26
ENDBRANCH   5  22
TORSDOF 6
