REMARK  Name = ZINC12412021
REMARK  6 active torsions:
REMARK  status: ('A' for Active; 'I' for Inactive)
REMARK    1  A    between atoms: C_1  and  C_2
REMARK    2  A    between atoms: C_2  and  N_3
REMARK    3  A    between atoms: N_22  and  C_23
REMARK    4  A    between atoms: C_26  and  O_29
REMARK    5  A    between atoms: O_29  and  C_30
REMARK    6  A    between atoms: C_30  and  C_31
REMARK                            x       y       z     vdW  Elec       q    Type
REMARK                         _______ _______ _______ _____ _____    ______ ____
ROOT
ATOM      1  N   UNL     1      -0.868   1.035  -0.260  0.00  0.00    -0.268 N 
ATOM      2  C   UNL     1      -0.888   2.409  -0.419  0.00  0.00    +0.044 A 
ATOM      3  C   UNL     1      -1.971   3.260  -0.645  0.00  0.00    +0.024 A 
ATOM      4  C   UNL     1      -1.699   4.613  -0.774  0.00  0.00    +0.002 A 
ATOM      5  C   UNL     1      -0.416   5.112  -0.684  0.00  0.00    +0.001 A 
ATOM      6  C   UNL     1       0.672   4.275  -0.460  0.00  0.00    +0.010 A 
ATOM      7  C   UNL     1       0.410   2.929  -0.331  0.00  0.00    +0.025 A 
ATOM      8  C   UNL     1       1.314   1.761  -0.087  0.00  0.00    +0.212 C 
ATOM      9  C   UNL     1       0.381   0.568  -0.054  0.00  0.00    +0.267 C 
ATOM     10  O   UNL     1       0.697  -0.590   0.120  0.00  0.00    -0.271 OA
ATOM     11  N   UNL     1       2.271   1.606  -1.185  0.00  0.00    -0.311 N 
ATOM     12  C   UNL     1       3.420   2.390  -1.189  0.00  0.00    +0.041 A 
ATOM     13  C   UNL     1       4.068   2.725  -2.367  0.00  0.00    +0.024 A 
ATOM     14  C   UNL     1       5.222   3.483  -2.321  0.00  0.00    +0.002 A 
ATOM     15  C   UNL     1       5.736   3.911  -1.107  0.00  0.00    +0.001 A 
ATOM     16  C   UNL     1       5.100   3.591   0.074  0.00  0.00    +0.015 A 
ATOM     17  C   UNL     1       3.933   2.830   0.043  0.00  0.00    +0.058 A 
ATOM     18  C   UNL     1       3.215   2.473   1.279  0.00  0.00    +0.255 C 
ATOM     19  O   UNL     1       3.711   2.701   2.365  0.00  0.00    -0.269 OA
ATOM     20  N   UNL     1       2.001   1.890   1.194  0.00  0.00    -0.234 N 
ATOM     21  H   UNL     1       2.107   0.968  -1.897  0.00  0.00    +0.149 HD
ENDROOT
BRANCH  20  22
ATOM     22  C   UNL     1       1.391   1.400   2.356  0.00  0.00    +0.040 A 
ATOM     23  C   UNL     1       0.454   2.174   3.027  0.00  0.00    +0.027 A 
ATOM     24  C   UNL     1      -0.152   1.689   4.169  0.00  0.00    +0.047 A 
ATOM     25  C   UNL     1       0.183   0.432   4.652  0.00  0.00    +0.121 A 
ATOM     26  C   UNL     1       1.123  -0.340   3.985  0.00  0.00    +0.047 A 
ATOM     27  C   UNL     1       1.726   0.142   2.839  0.00  0.00    +0.027 A 
BRANCH  25  28
ATOM     28  O   UNL     1      -0.410  -0.043   5.779  0.00  0.00    -0.492 OA
BRANCH  28  29
ATOM     29  C   UNL     1      -1.369   0.805   6.414  0.00  0.00    +0.225 C 
ATOM     30  C   UNL     1      -1.924   0.105   7.657  0.00  0.00    +0.048 C 
ENDBRANCH  28  29
ENDBRANCH  25  28
ENDBRANCH  20  22
BRANCH   1  32
ATOM     31  C   UNL     1      -2.651   0.061   1.101  0.00  0.00    +0.025 C 
ATOM     32  C   UNL     1      -2.062   0.189  -0.305  0.00  0.00    +0.110 C 
ENDBRANCH   1  32
TORSDOF 4
