REMARK  Name = ZINC11719593
REMARK  9 active torsions:
REMARK  status: ('A' for Active; 'I' for Inactive)
REMARK    1  A    between atoms: C_1  and  C_2
REMARK    2  A    between atoms: C_2  and  C_4
REMARK    3  A    between atoms: C_2  and  N_53
REMARK    4  A    between atoms: N_6  and  C_7
REMARK    5  A    between atoms: C_10  and  O_13
REMARK    6  A    between atoms: O_13  and  C_14
REMARK    7  A    between atoms: C_17  and  N_20
REMARK    8  A    between atoms: N_20  and  S_21
REMARK    9  A    between atoms: S_21  and  C_24
REMARK                            x       y       z     vdW  Elec       q    Type
REMARK                         _______ _______ _______ _____ _____    ______ ____
ROOT
ATOM      1  C   UNL     1      -1.520   5.895   1.543  0.00  0.00    -0.076 C 
ATOM      2  C   UNL     1      -1.161   7.382   1.541  0.00  0.00    +0.002 C 
ATOM      3  C   UNL     1      -2.447   8.213   1.542  0.00  0.00    +0.073 C 
ATOM      4  C   UNL     1      -3.291   7.834   0.322  0.00  0.00    +0.002 C 
ATOM      5  C   UNL     1      -3.588   6.334   0.359  0.00  0.00    -0.076 C 
ATOM      6  N   UNL     1      -2.311   5.590   0.332  0.00  0.00    +0.387 N 
ATOM      7  H   UNL     1      -1.776   5.878  -0.496  0.00  0.00    -0.081 HD
ENDROOT
BRANCH   6   9
ATOM      8  C   UNL     1      -3.307   3.655   1.504  0.00  0.00    -0.004 C 
ATOM      9  C   UNL     1      -2.573   4.138   0.252  0.00  0.00    +0.016 C 
BRANCH   9  10
ATOM     10  C   UNL     1      -1.259   3.412   0.128  0.00  0.00    +0.203 C 
ATOM     11  O   UNL     1      -0.219   4.036   0.127  0.00  0.00    -0.277 OA
ATOM     12  N   UNL     1      -1.239   2.068   0.019  0.00  0.00    -0.287 N 
ATOM     13  H   UNL     1      -2.072   1.575  -0.048  0.00  0.00    +0.155 HD
BRANCH  12  14
ATOM     14  C   UNL     1      -0.017   1.385   0.002  0.00  0.00    +0.034 A 
ATOM     15  C   UNL     1       1.089   1.955  -0.615  0.00  0.00    +0.027 A 
ATOM     16  C   UNL     1       2.293   1.278  -0.636  0.00  0.00    +0.047 A 
ATOM     17  C   UNL     1       2.397   0.029  -0.042  0.00  0.00    +0.120 A 
ATOM     18  C   UNL     1       1.293  -0.541   0.575  0.00  0.00    +0.047 A 
ATOM     19  C   UNL     1       0.089   0.135   0.597  0.00  0.00    +0.027 A 
BRANCH  17  20
ATOM     20  O   UNL     1       3.582  -0.637  -0.063  0.00  0.00    -0.495 OA
ATOM     21  C   UNL     1       4.678   0.009  -0.714  0.00  0.00    +0.277 C 
ENDBRANCH  17  20
ENDBRANCH  12  14
ENDBRANCH   9  10
ENDBRANCH   6   9
BRANCH   3  22
ATOM     22  N   UNL     1      -2.110   9.637   1.481  0.00  0.00    -0.187 NA
ATOM     23  H   UNL     1      -1.943  10.060   0.624  0.00  0.00    +0.148 HD
BRANCH  22  24
ATOM     24  S   UNL     1      -2.013  10.526   2.875  0.00  0.00    +0.065 S 
ATOM     25  O   UNL     1      -1.647  11.844   2.492  0.00  0.00    -0.153 OA
ATOM     26  O   UNL     1      -3.193  10.248   3.616  0.00  0.00    -0.153 OA
BRANCH  24  27
ATOM     27  C   UNL     1      -0.667   9.882   3.812  0.00  0.00    +0.142 A 
ATOM     28  C   UNL     1       0.639  10.244   3.790  0.00  0.00    +0.036 A 
ATOM     29  C   UNL     1       1.530   9.593   4.622  0.00  0.00    +0.010 A 
ATOM     30  C   UNL     1       1.071   8.610   5.436  0.00  0.00    +0.047 A 
ATOM     31  S   UNL     1      -0.670   8.587   5.041  0.00  0.00    -0.077 S 
ENDBRANCH  24  27
ENDBRANCH  22  24
ENDBRANCH   3  22
TORSDOF 7
