REMARK  Name = ZINC27534191
REMARK  13 active torsions:
REMARK  status: ('A' for Active; 'I' for Inactive)
REMARK    1  A    between atoms: C_1  and  C_2
REMARK    2  A    between atoms: C_2  and  C_3
REMARK    3  A    between atoms: C_2  and  O_4
REMARK    4  A    between atoms: O_4  and  C_5
REMARK    5  A    between atoms: C_5  and  C_7
REMARK    6  A    between atoms: C_8  and  N_38
REMARK    7  A    between atoms: C_12  and  C_14
REMARK    8  A    between atoms: C_17  and  O_22
REMARK    9  A    between atoms: C_18  and  O_20
REMARK   10  A    between atoms: O_20  and  C_21
REMARK   11  A    between atoms: O_22  and  C_23
REMARK   12  A    between atoms: C_23  and  C_24
REMARK   13  A    between atoms: C_27  and  N_30
REMARK                            x       y       z     vdW  Elec       q    Type
REMARK                         _______ _______ _______ _____ _____    ______ ____
ROOT
ATOM      1  C   UNL     1       2.409   1.364   0.237  0.00  0.00    +0.105 C 
ATOM      2  C   UNL     1       2.352   0.025   0.455  0.00  0.00    +0.195 C 
ATOM      3  O   UNL     1       1.228  -0.672   0.228  0.00  0.00    -0.446 OA
ATOM      4  C   UNL     1       0.040  -0.038   0.206  0.00  0.00    +0.115 C 
ATOM      5  C   UNL     1      -0.045   1.283  -0.030  0.00  0.00    +0.045 C 
ATOM      6  C   UNL     1       1.200   2.104  -0.264  0.00  0.00    +0.098 C 
ATOM      7  C   UNL     1      -1.290   1.940  -0.072  0.00  0.00    +0.163 C 
ATOM      8  O   UNL     1      -1.326   3.138  -0.272  0.00  0.00    -0.292 OA
ATOM      9  C   UNL     1      -2.577   1.187   0.130  0.00  0.00    +0.080 C 
ATOM     10  C   UNL     1      -2.378  -0.264  -0.322  0.00  0.00    +0.016 C 
ATOM     11  C   UNL     1      -1.204  -0.858   0.459  0.00  0.00    +0.075 C 
ENDROOT
BRANCH   6  12
ATOM     12  C   UNL     1       1.353   2.370  -1.739  0.00  0.00    -0.031 A 
ATOM     13  C   UNL     1       1.476   1.313  -2.622  0.00  0.00    +0.008 A 
ATOM     14  C   UNL     1       1.616   1.552  -3.976  0.00  0.00    +0.050 A 
ATOM     15  C   UNL     1       1.633   2.853  -4.452  0.00  0.00    +0.162 A 
ATOM     16  C   UNL     1       1.509   3.917  -3.564  0.00  0.00    +0.162 A 
ATOM     17  C   UNL     1       1.364   3.671  -2.208  0.00  0.00    +0.054 A 
BRANCH  16  18
ATOM     18  O   UNL     1       1.526   5.196  -4.026  0.00  0.00    -0.491 OA
ATOM     19  C   UNL     1       1.394   6.238  -3.057  0.00  0.00    +0.277 C 
ENDBRANCH  16  18
BRANCH  15  20
ATOM     20  O   UNL     1       1.771   3.090  -5.784  0.00  0.00    -0.484 OA
BRANCH  20  21
ATOM     21  C   UNL     1       1.893   1.950  -6.636  0.00  0.00    +0.264 C 
BRANCH  21  22
ATOM     22  C   UNL     1       2.035   2.404  -8.066  0.00  0.00    -0.010 A 
ATOM     23  C   UNL     1       0.911   2.576  -8.852  0.00  0.00    +0.009 A 
ATOM     24  C   UNL     1       1.042   2.997 -10.162  0.00  0.00    +0.033 A 
ATOM     25  C   UNL     1       2.297   3.237 -10.690  0.00  0.00    +0.126 A 
ATOM     26  C   UNL     1       3.421   3.061  -9.905  0.00  0.00    +0.033 A 
ATOM     27  C   UNL     1       3.291   2.644  -8.593  0.00  0.00    +0.009 A 
BRANCH  25  28
ATOM     28  N   UNL     1       2.437   3.684 -12.094  0.00  0.00    +0.056 N 
ATOM     29  O   UNL     1       3.543   3.896 -12.558  0.00  0.00    -0.126 OA
ATOM     30  O   UNL     1       1.446   3.839 -12.785  0.00  0.00    -0.126 OA
ENDBRANCH  25  28
ENDBRANCH  21  22
ENDBRANCH  20  21
ENDBRANCH  15  20
ENDBRANCH   6  12
BRANCH   2  31
ATOM     31  N   UNL     1       3.464  -0.628   0.915  0.00  0.00    -0.329 N 
ATOM     32  H   UNL     1       3.430  -1.712   1.096  0.00  0.00    +0.145 HD
ATOM     33  H   UNL     1       4.391  -0.068   1.105  0.00  0.00    +0.145 HD
ENDBRANCH   2  31
BRANCH   1  34
ATOM     34  C   UNL     1       3.603   2.061   0.480  0.00  0.00    +0.341 C 
ATOM     35  O   UNL     1       4.614   1.450   0.777  0.00  0.00    -0.245 OA
BRANCH  34  36
ATOM     36  O   UNL     1       3.630   3.408   0.384  0.00  0.00    -0.459 OA
BRANCH  36  38
ATOM     37  C   UNL     1       4.970   5.340  -0.175  0.00  0.00    +0.052 C 
ATOM     38  C   UNL     1       4.879   4.051   0.645  0.00  0.00    +0.171 C 
ATOM     39  C   UNL     1       4.979   4.387   2.134  0.00  0.00    +0.052 C 
ENDBRANCH  36  38
ENDBRANCH  34  36
ENDBRANCH   1  34
TORSDOF 10
