REMARK  Name = ZINC37063356
REMARK  6 active torsions:
REMARK  status: ('A' for Active; 'I' for Inactive)
REMARK    1  A    between atoms: C_1  and  C_2
REMARK    2  A    between atoms: C_7  and  N_12
REMARK    3  A    between atoms: C_9  and  C_11
REMARK    4  A    between atoms: N_12  and  S_13
REMARK    5  A    between atoms: S_13  and  C_16
REMARK    6  A    between atoms: C_21  and  N_22
REMARK                            x       y       z     vdW  Elec       q    Type
REMARK                         _______ _______ _______ _____ _____    ______ ____
ROOT
ATOM      1  S   UNL     1       0.911  -3.808   3.180  0.00  0.00    +0.060 S 
ATOM      2  O   UNL     1       1.620  -4.021   4.393  0.00  0.00    -0.153 OA
ATOM      3  O   UNL     1      -0.485  -3.547   3.150  0.00  0.00    -0.153 OA
ENDROOT
BRANCH   1   4
ATOM      4  C   UNL     1       1.180  -5.235   2.183  0.00  0.00    +0.126 A 
ATOM      5  C   UNL     1       0.108  -5.882   1.599  0.00  0.00    +0.031 A 
ATOM      6  C   UNL     1       0.317  -7.002   0.816  0.00  0.00    +0.017 A 
ATOM      7  C   UNL     1       1.600  -7.479   0.614  0.00  0.00    +0.020 A 
ATOM      8  C   UNL     1       2.677  -6.837   1.196  0.00  0.00    +0.040 A 
ATOM      9  C   UNL     1       2.470  -5.707   1.978  0.00  0.00    +0.052 A 
ATOM     10 BR   UNL     1       1.881  -9.012  -0.457  0.00  0.00    -0.050 Br
BRANCH   9  11
ATOM     11  N   UNL     1       3.556  -5.052   2.562  0.00  0.00    -0.356 N 
ATOM     12  H   UNL     1       3.415  -4.237   3.070  0.00  0.00    +0.142 HD
ATOM     13  H   UNL     1       4.451  -5.411   2.460  0.00  0.00    +0.142 HD
ENDBRANCH   9  11
ENDBRANCH   1   4
BRANCH   1  14
ATOM     14  N   UNL     1       1.647  -2.534   2.420  0.00  0.00    -0.187 NA
ATOM     15  H   UNL     1       2.396  -2.084   2.841  0.00  0.00    +0.148 HD
BRANCH  14  21
ATOM     16  C   UNL     1       0.029   1.374  -0.141  0.00  0.00    +0.008 C 
ATOM     17  C   UNL     1       0.346  -0.122  -0.199  0.00  0.00    -0.010 C 
ATOM     18  C   UNL     1       1.427  -0.373  -1.253  0.00  0.00    +0.003 C 
ATOM     19  C   UNL     1       1.744  -1.869  -1.311  0.00  0.00    +0.002 C 
ATOM     20  C   UNL     1       2.247  -2.337   0.057  0.00  0.00    +0.020 C 
ATOM     21  C   UNL     1       1.166  -2.085   1.110  0.00  0.00    +0.080 C 
ATOM     22  C   UNL     1       0.849  -0.590   1.168  0.00  0.00    +0.007 C 
ATOM     23  C   UNL     1      -0.232  -0.338   2.222  0.00  0.00    +0.009 C 
ENDBRANCH  14  21
ENDBRANCH   1  14
TORSDOF 4
