REMARK  Name = ZINC13983598
REMARK  11 active torsions:
REMARK  status: ('A' for Active; 'I' for Inactive)
REMARK    1  A    between atoms: C_1  and  C_2
REMARK    2  A    between atoms: C_2  and  C_3
REMARK    3  A    between atoms: C_3  and  C_5
REMARK    4  A    between atoms: C_3  and  C_6
REMARK    5  A    between atoms: C_9  and  O_12
REMARK    6  A    between atoms: O_12  and  C_13
REMARK    7  A    between atoms: C_13  and  C_14
REMARK    8  A    between atoms: N_16  and  N_17
REMARK    9  A    between atoms: N_17  and  C_18
REMARK   10  A    between atoms: C_18  and  N_20
REMARK   11  A    between atoms: C_21  and  C_23
REMARK                            x       y       z     vdW  Elec       q    Type
REMARK                         _______ _______ _______ _____ _____    ______ ____
ROOT
ATOM      1  C   UNL     1       3.582  -1.044   7.279  0.00  0.00    +0.267 C 
ATOM      2  O   UNL     1       2.814  -1.716   7.935  0.00  0.00    -0.271 OA
ATOM      3  N   UNL     1       4.863  -0.906   7.674  0.00  0.00    -0.232 N 
ATOM      4  H   UNL     1       5.477  -0.368   7.149  0.00  0.00    +0.173 HD
ENDROOT
BRANCH   3   5
ATOM      5  N   UNL     1       5.308  -1.538   8.842  0.00  0.00    -0.245 N 
ATOM      6  H   UNL     1       4.695  -2.076   9.367  0.00  0.00    +0.172 HD
BRANCH   5   7
ATOM      7  C   UNL     1       6.590  -1.400   9.236  0.00  0.00    +0.153 C 
ATOM      8  S   UNL     1       7.134  -2.173  10.664  0.00  0.00    -0.017 S 
BRANCH   7   9
ATOM      9  N   UNL     1       7.442  -0.653   8.508  0.00  0.00    -0.260 N 
ATOM     10  C   UNL     1       8.724  -0.515   8.902  0.00  0.00    +0.285 C 
ATOM     11  O   UNL     1       9.110  -1.064   9.917  0.00  0.00    -0.266 OA
ATOM     12  H   UNL     1       7.134  -0.215   7.699  0.00  0.00    +0.157 HD
BRANCH  10  13
ATOM     13  C   UNL     1       9.650   0.296   8.110  0.00  0.00    +0.191 A 
ATOM     14  C   UNL     1      10.968   0.519   8.395  0.00  0.00    +0.056 A 
ATOM     15  C   UNL     1      11.467   1.345   7.378  0.00  0.00    +0.058 A 
ATOM     16  C   UNL     1      10.445   1.590   6.526  0.00  0.00    +0.171 A 
ATOM     17  O   UNL     1       9.354   0.951   6.968  0.00  0.00    -0.444 OA
ATOM     18 BR   UNL     1      10.543   2.652   4.965  0.00  0.00    -0.008 Br
ENDBRANCH  10  13
ENDBRANCH   7   9
ENDBRANCH   5   7
ENDBRANCH   3   5
BRANCH   1  19
ATOM     19  C   UNL     1       3.103  -0.364   6.022  0.00  0.00    +0.326 C 
BRANCH  19  20
ATOM     20  O   UNL     1       1.720  -0.660   5.818  0.00  0.00    -0.483 OA
BRANCH  20  24
ATOM     21  C   UNL     1      -0.074   0.981   2.485  0.00  0.00    -0.044 A 
ATOM     22  C   UNL     1       1.264   1.222   2.738  0.00  0.00    +0.007 A 
ATOM     23  C   UNL     1       1.865   0.679   3.857  0.00  0.00    +0.046 A 
ATOM     24  C   UNL     1       1.129  -0.119   4.720  0.00  0.00    +0.121 A 
ATOM     25  C   UNL     1      -0.211  -0.365   4.461  0.00  0.00    +0.046 A 
ATOM     26  C   UNL     1      -0.810   0.185   3.344  0.00  0.00    +0.007 A 
BRANCH  21  27
ATOM     27  C   UNL     1      -0.729   1.579   1.267  0.00  0.00    +0.016 C 
ATOM     28  C   UNL     1      -0.641   3.105   1.339  0.00  0.00    +0.012 C 
BRANCH  27  30
ATOM     29  C   UNL     1      -0.753   1.593  -1.232  0.00  0.00    +0.004 C 
ATOM     30  C   UNL     1      -0.013   1.086   0.008  0.00  0.00    +0.004 C 
ENDBRANCH  27  30
ENDBRANCH  21  27
ENDBRANCH  20  24
ENDBRANCH  19  20
ENDBRANCH   1  19
TORSDOF 9
