REMARK  Name = ZINC08564395
REMARK  7 active torsions:
REMARK  status: ('A' for Active; 'I' for Inactive)
REMARK    1  A    between atoms: C_1  and  C_2
REMARK    2  A    between atoms: C_2  and  C_3
REMARK    3  A    between atoms: C_3  and  C_4
REMARK    4  A    between atoms: C_3  and  C_5
REMARK    5  A    between atoms: C_3  and  N_6
REMARK    6  A    between atoms: C_7  and  C_9
REMARK    7  A    between atoms: C_9  and  N_10
REMARK                            x       y       z     vdW  Elec       q    Type
REMARK                         _______ _______ _______ _____ _____    ______ ____
ROOT
ATOM      1  N   UNL     1       2.027  -4.602  -3.498  0.00  0.00    -0.215 N 
ATOM      2  C   UNL     1       1.411  -4.852  -4.673  0.00  0.00    +0.251 C 
ATOM      3  O   UNL     1       0.231  -4.734  -4.924  0.00  0.00    -0.272 OA
ATOM      4  C   UNL     1       2.503  -5.310  -5.609  0.00  0.00    +0.139 C 
ATOM      5  C   UNL     1       2.232  -6.718  -6.117  0.00  0.00    +0.040 C 
ATOM      6  C   UNL     1       3.252  -7.096  -7.196  0.00  0.00    +0.008 C 
ATOM      7  C   UNL     1       2.988  -6.247  -8.448  0.00  0.00    +0.043 C 
ATOM      8  C   UNL     1       2.840  -4.819  -8.033  0.00  0.00    -0.005 A 
ATOM      9  C   UNL     1       2.623  -4.343  -6.775  0.00  0.00    -0.005 A 
ATOM     10  C   UNL     1       2.525  -2.958  -6.644  0.00  0.00    +0.014 A 
ATOM     11  C   UNL     1       2.642  -2.163  -7.732  0.00  0.00    +0.046 A 
ATOM     12  S   UNL     1       2.902  -3.358  -9.034  0.00  0.00    -0.101 S 
ATOM     13  N   UNL     1       3.721  -5.265  -4.793  0.00  0.00    -0.281 N 
ATOM     14  C   UNL     1       3.344  -4.834  -3.573  0.00  0.00    +0.310 C 
ATOM     15  O   UNL     1       4.112  -4.677  -2.645  0.00  0.00    -0.252 OA
ATOM     16  H   UNL     1       4.619  -5.497  -5.076  0.00  0.00    +0.152 HD
ENDROOT
BRANCH   1  17
ATOM     17  C   UNL     1       1.341  -4.130  -2.293  0.00  0.00    +0.213 C 
BRANCH  17  19
ATOM     18  N   UNL     1       0.738  -1.962  -1.265  0.00  0.00    -0.309 N 
ATOM     19  C   UNL     1       1.321  -2.623  -2.285  0.00  0.00    +0.231 C 
ATOM     20  O   UNL     1       1.829  -2.004  -3.196  0.00  0.00    -0.274 OA
ATOM     21  H   UNL     1       0.332  -2.457  -0.536  0.00  0.00    +0.149 HD
BRANCH  18  22
ATOM     22  C   UNL     1       0.718  -0.497  -1.257  0.00  0.00    +0.029 C 
ATOM     23  C   UNL     1      -0.022   0.009  -2.496  0.00  0.00    +0.031 C 
ATOM     24  C   UNL     1       2.154   0.032  -1.268  0.00  0.00    +0.031 C 
BRANCH  22  26
ATOM     25  C   UNL     1      -0.019   1.526   0.010  0.00  0.00    +0.006 C 
ATOM     26  C   UNL     1       0.002  -0.004   0.002  0.00  0.00    +0.022 C 
ENDBRANCH  22  26
ENDBRANCH  18  22
ENDBRANCH  17  19
ENDBRANCH   1  17
TORSDOF 4
