REMARK  Name = ZINC39599770
REMARK  7 active torsions:
REMARK  status: ('A' for Active; 'I' for Inactive)
REMARK    1  A    between atoms: C_1  and  N_2
REMARK    2  A    between atoms: C_6  and  C_7
REMARK    3  A    between atoms: C_11  and  C_20
REMARK    4  A    between atoms: N_22  and  C_23
REMARK    5  A    between atoms: C_23  and  C_24
REMARK    6  A    between atoms: C_27  and  O_30
REMARK    7  A    between atoms: O_30  and  C_31
REMARK                            x       y       z     vdW  Elec       q    Type
REMARK                         _______ _______ _______ _____ _____    ______ ____
ROOT
ATOM      1  C   UNL     1      -0.176  -0.368   2.552  0.00  0.00    +0.263 C 
ATOM      2  O   UNL     1      -0.133  -1.178   3.459  0.00  0.00    -0.268 OA
ATOM      3  N   UNL     1      -0.391   0.935   2.821  0.00  0.00    -0.295 N 
ATOM      4  C   UNL     1      -0.617   2.037   1.855  0.00  0.00    +0.121 C 
ATOM      5  C   UNL     1      -1.706   2.914   2.512  0.00  0.00    +0.100 C 
ATOM      6  C   UNL     1      -1.594   2.618   4.017  0.00  0.00    -0.004 C 
ATOM      7  C   UNL     1      -0.462   1.589   4.149  0.00  0.00    +0.115 C 
ATOM      8  C   UNL     1      -2.900   2.026   4.538  0.00  0.00    -0.010 C 
ATOM      9  C   UNL     1      -2.784   1.793   6.047  0.00  0.00    -0.082 C 
ATOM     10  N   UNL     1      -2.497   3.066   6.720  0.00  0.00    +0.379 N 
ATOM     11  C   UNL     1      -1.195   3.583   6.281  0.00  0.00    -0.082 C 
ATOM     12  C   UNL     1      -1.244   3.891   4.782  0.00  0.00    -0.010 C 
ATOM     13  H   UNL     1      -3.217   3.735   6.491  0.00  0.00    -0.086 HD
ATOM     14  H   UNL     1      -2.481   2.922   7.718  0.00  0.00    -0.086 HD
ENDROOT
BRANCH   1  20
ATOM     15  C   UNL     1      -0.010  -3.305   1.579  0.00  0.00    +0.149 C 
ATOM     16  N   UNL     1       0.081  -2.114   0.730  0.00  0.00    -0.346 N 
ATOM     17  C   UNL     1       0.246  -2.113  -0.615  0.00  0.00    +0.086 A 
ATOM     18  C   UNL     1       0.285  -0.831  -1.051  0.00  0.00    +0.020 A 
ATOM     19  C   UNL     1       0.138   0.004   0.061  0.00  0.00    +0.032 A 
ATOM     20  C   UNL     1       0.006  -0.810   1.165  0.00  0.00    +0.104 A 
ENDBRANCH   1  20
BRANCH   5  21
ATOM     21  C   UNL     1      -1.439   4.372   2.241  0.00  0.00    +0.218 C 
ATOM     22  O   UNL     1      -0.298   4.776   2.164  0.00  0.00    -0.275 OA
ATOM     23  N   UNL     1      -2.469   5.227   2.083  0.00  0.00    -0.311 N 
ATOM     24  H   UNL     1      -3.381   4.904   2.144  0.00  0.00    +0.149 HD
BRANCH  23  25
ATOM     25  C   UNL     1      -2.210   6.645   1.819  0.00  0.00    +0.139 C 
BRANCH  25  26
ATOM     26  C   UNL     1      -3.519   7.378   1.684  0.00  0.00    -0.030 A 
ATOM     27  C   UNL     1      -4.123   7.490   0.446  0.00  0.00    +0.009 A 
ATOM     28  C   UNL     1      -5.323   8.163   0.319  0.00  0.00    +0.046 A 
ATOM     29  C   UNL     1      -5.923   8.726   1.437  0.00  0.00    +0.130 A 
ATOM     30  C   UNL     1      -5.315   8.611   2.679  0.00  0.00    +0.046 A 
ATOM     31  C   UNL     1      -4.117   7.934   2.800  0.00  0.00    +0.009 A 
BRANCH  29  32
ATOM     32  O   UNL     1      -7.103   9.388   1.315  0.00  0.00    -0.406 OA
BRANCH  32  33
ATOM     33  C   UNL     1      -7.662   9.941   2.508  0.00  0.00    +0.575 C 
ATOM     34  F   UNL     1      -6.768  10.866   3.057  0.00  0.00    -0.133 F 
ATOM     35  F   UNL     1      -8.868  10.583   2.204  0.00  0.00    -0.133 F 
ATOM     36  F   UNL     1      -7.899   8.917   3.431  0.00  0.00    -0.133 F 
ENDBRANCH  32  33
ENDBRANCH  29  32
ENDBRANCH  25  26
ENDBRANCH  23  25
ENDBRANCH   5  21
TORSDOF 6
