REMARK  Name = ZINC12381692
REMARK  9 active torsions:
REMARK  status: ('A' for Active; 'I' for Inactive)
REMARK    1  A    between atoms: C_1  and  C_2
REMARK    2  A    between atoms: C_2  and  C_3
REMARK    3  A    between atoms: C_2  and  C_4
REMARK    4  A    between atoms: C_2  and  C_5
REMARK    5  A    between atoms: C_8  and  C_11
REMARK    6  A    between atoms: C_13  and  C_25
REMARK    7  A    between atoms: C_15  and  C_20
REMARK    8  A    between atoms: C_15  and  O_24
REMARK    9  A    between atoms: C_25  and  C_27
REMARK                            x       y       z     vdW  Elec       q    Type
REMARK                         _______ _______ _______ _____ _____    ______ ____
ROOT
ATOM      1  C   UNL     1      -6.150  -0.421   1.309  0.00  0.00    +0.120 C 
ATOM      2  C   UNL     1      -6.706  -0.364   2.735  0.00  0.00    +0.145 C 
ATOM      3  C   UNL     1      -8.178  -0.789   2.702  0.00  0.00    +0.243 C 
ATOM      4  N   UNL     1      -8.902   0.058   1.753  0.00  0.00    -0.264 N 
ATOM      5  C   UNL     1      -8.287   0.597   0.689  0.00  0.00    +0.302 C 
ATOM      6  O   UNL     1      -8.936   1.285  -0.074  0.00  0.00    -0.253 OA
ATOM      7  N   UNL     1      -6.984   0.407   0.435  0.00  0.00    -0.292 N 
ATOM      8  H   UNL     1      -9.845   0.234   1.895  0.00  0.00    +0.153 HD
ATOM      9  H   UNL     1      -6.585   0.826  -0.344  0.00  0.00    +0.151 HD
ENDROOT
BRANCH   1  13
ATOM     10  C   UNL     1      -2.143   1.058   1.278  0.00  0.00    -0.042 A 
ATOM     11  C   UNL     1      -3.205   1.942   1.298  0.00  0.00    +0.004 A 
ATOM     12  C   UNL     1      -4.502   1.463   1.304  0.00  0.00    +0.006 A 
ATOM     13  C   UNL     1      -4.736   0.101   1.298  0.00  0.00    -0.026 A 
ATOM     14  C   UNL     1      -3.674  -0.783   1.282  0.00  0.00    +0.006 A 
ATOM     15  C   UNL     1      -2.377  -0.305   1.272  0.00  0.00    +0.004 A 
BRANCH  10  17
ATOM     16  C   UNL     1      -0.013   1.086   0.008  0.00  0.00    +0.015 C 
ATOM     17  C   UNL     1      -0.729   1.579   1.267  0.00  0.00    -0.013 C 
ATOM     18  C   UNL     1       0.011   1.072   2.506  0.00  0.00    +0.015 C 
ATOM     19  C   UNL     1      -0.750   3.109   1.275  0.00  0.00    +0.015 C 
ENDBRANCH  10  17
ENDBRANCH   1  13
BRANCH   3  20
ATOM     20  C   UNL     1      -8.788  -0.631   4.096  0.00  0.00    +0.436 C 
ATOM     21  F   UNL     1     -10.134  -1.012   4.063  0.00  0.00    -0.166 F 
ATOM     22  F   UNL     1      -8.096  -1.441   5.003  0.00  0.00    -0.166 F 
ATOM     23  F   UNL     1      -8.693   0.706   4.498  0.00  0.00    -0.166 F 
ENDBRANCH   3  20
BRANCH   3  24
ATOM     24  O   UNL     1      -8.272  -2.155   2.291  0.00  0.00    -0.364 OA
ATOM     25  H   UNL     1      -9.177  -2.490   2.243  0.00  0.00    +0.212 HD
ENDBRANCH   3  24
BRANCH   2  26
ATOM     26  C   UNL     1      -5.928  -1.304   3.620  0.00  0.00    +0.179 C 
ATOM     27  O   UNL     1      -5.356  -2.260   3.136  0.00  0.00    -0.291 OA
BRANCH  26  28
ATOM     28  C   UNL     1      -5.864  -1.073   5.012  0.00  0.00    +0.055 A 
ATOM     29  C   UNL     1      -5.213  -1.813   5.994  0.00  0.00    +0.019 A 
ATOM     30  C   UNL     1      -5.311  -1.358   7.283  0.00  0.00    +0.008 A 
ATOM     31  C   UNL     1      -6.034  -0.234   7.538  0.00  0.00    +0.046 A 
ATOM     32  S   UNL     1      -6.603   0.238   5.970  0.00  0.00    -0.094 S 
ENDBRANCH  26  28
ENDBRANCH   2  26
TORSDOF 6
