REMARK  Name = ZINC63697924
REMARK  11 active torsions:
REMARK  status: ('A' for Active; 'I' for Inactive)
REMARK    1  A    between atoms: C_1  and  C_2
REMARK    2  A    between atoms: C_2  and  O_3
REMARK    3  A    between atoms: O_3  and  C_4
REMARK    4  A    between atoms: C_7  and  C_10
REMARK    5  A    between atoms: C_25  and  C_27
REMARK    6  A    between atoms: C_29  and  O_37
REMARK    7  A    between atoms: C_30  and  O_35
REMARK    8  A    between atoms: C_31  and  O_33
REMARK    9  A    between atoms: O_33  and  C_34
REMARK   10  A    between atoms: O_35  and  C_36
REMARK   11  A    between atoms: O_37  and  C_38
REMARK                            x       y       z     vdW  Elec       q    Type
REMARK                         _______ _______ _______ _____ _____    ______ ____
ROOT
ATOM      1  C   UNL     1      -1.753  -6.103  -0.469  0.00  0.00    +0.133 C 
ATOM      2  C   UNL     1      -1.652  -7.170   0.626  0.00  0.00    +0.131 C 
ATOM      3  C   UNL     1      -1.817  -8.518  -0.063  0.00  0.00    -0.035 C 
ATOM      4  C   UNL     1      -0.742  -9.232   0.247  0.00  0.00    -0.001 A 
ATOM      5  C   UNL     1      -0.366 -10.621  -0.063  0.00  0.00    +0.010 A 
ATOM      6  C   UNL     1       0.838 -11.037   0.412  0.00  0.00    +0.001 A 
ATOM      7  C   UNL     1       1.695 -10.219   1.155  0.00  0.00    +0.002 A 
ATOM      8  C   UNL     1       1.428  -8.931   1.490  0.00  0.00    +0.026 A 
ATOM      9  C   UNL     1       0.188  -8.382   1.051  0.00  0.00    +0.043 A 
ATOM     10  N   UNL     1      -0.329  -7.184   1.253  0.00  0.00    -0.375 N 
ATOM     11  C   UNL     1      -2.986  -8.828  -0.966  0.00  0.00    +0.052 C 
ATOM     12  C   UNL     1      -3.081  -7.674  -1.980  0.00  0.00    +0.113 C 
ATOM     13  N   UNL     1      -2.949  -6.394  -1.275  0.00  0.00    -0.288 N 
ATOM     14  C   UNL     1      -3.932  -5.477  -1.366  0.00  0.00    +0.247 C 
ATOM     15  O   UNL     1      -3.779  -4.372  -0.884  0.00  0.00    -0.270 OA
ATOM     16  H   UNL     1       0.084  -6.442   1.722  0.00  0.00    +0.160 HD
ENDROOT
BRANCH   1  20
ATOM     17  C   UNL     1      -2.115  -2.234   1.310  0.00  0.00    +0.121 A 
ATOM     18  C   UNL     1      -2.820  -3.308   1.833  0.00  0.00    +0.046 A 
ATOM     19  C   UNL     1      -2.701  -4.558   1.256  0.00  0.00    +0.009 A 
ATOM     20  C   UNL     1      -1.881  -4.739   0.158  0.00  0.00    -0.025 A 
ATOM     21  C   UNL     1      -1.177  -3.670  -0.365  0.00  0.00    +0.009 A 
ATOM     22  C   UNL     1      -1.297  -2.417   0.204  0.00  0.00    +0.046 A 
BRANCH  17  23
ATOM     23  O   UNL     1      -2.231  -1.004   1.875  0.00  0.00    -0.492 OA
BRANCH  23  25
ATOM     24  C   UNL     1      -3.093   0.558   3.506  0.00  0.00    +0.048 C 
ATOM     25  C   UNL     1      -3.091  -0.890   3.011  0.00  0.00    +0.225 C 
ENDBRANCH  23  25
ENDBRANCH  17  23
ENDBRANCH   1  20
BRANCH  14  26
ATOM     26  C   UNL     1      -5.195  -5.815  -2.051  0.00  0.00    +0.044 A 
ATOM     27  C   UNL     1      -5.689  -7.121  -2.005  0.00  0.00    +0.062 A 
ATOM     28  C   UNL     1      -6.872  -7.435  -2.647  0.00  0.00    +0.166 A 
ATOM     29  C   UNL     1      -7.572  -6.450  -3.340  0.00  0.00    +0.204 A 
ATOM     30  C   UNL     1      -7.082  -5.148  -3.388  0.00  0.00    +0.166 A 
ATOM     31  C   UNL     1      -5.902  -4.828  -2.742  0.00  0.00    +0.062 A 
BRANCH  30  32
ATOM     32  O   UNL     1      -7.768  -4.189  -4.066  0.00  0.00    -0.491 OA
ATOM     33  C   UNL     1      -7.207  -2.874  -4.074  0.00  0.00    +0.277 C 
ENDBRANCH  30  32
BRANCH  29  34
ATOM     34  O   UNL     1      -8.735  -6.761  -3.970  0.00  0.00    -0.488 OA
ATOM     35  C   UNL     1      -9.939  -6.627  -3.213  0.00  0.00    +0.277 C 
ENDBRANCH  29  34
BRANCH  28  36
ATOM     36  O   UNL     1      -7.353  -8.706  -2.602  0.00  0.00    -0.491 OA
ATOM     37  C   UNL     1      -6.584  -9.665  -1.874  0.00  0.00    +0.277 C 
ENDBRANCH  28  36
ENDBRANCH  14  26
TORSDOF 7
