REMARK  Name = ZINC15076665
REMARK  10 active torsions:
REMARK  status: ('A' for Active; 'I' for Inactive)
REMARK    1  A    between atoms: C_1  and  N_65
REMARK    2  A    between atoms: C_2  and  N_65
REMARK    3  A    between atoms: C_3  and  C_4
REMARK    4  A    between atoms: C_3  and  N_65
REMARK    5  A    between atoms: C_4  and  N_5
REMARK    6  A    between atoms: N_5  and  C_6
REMARK    7  A    between atoms: C_6  and  C_7
REMARK    8  A    between atoms: C_13  and  C_14
REMARK    9  A    between atoms: C_13  and  N_67
REMARK   10  A    between atoms: C_21  and  C_23
REMARK                            x       y       z     vdW  Elec       q    Type
REMARK                         _______ _______ _______ _____ _____    ______ ____
ROOT
ATOM      1  N   UNL     1      -2.625  -2.815  -0.298  0.00  0.00    -0.298 N 
ATOM      2  C   UNL     1      -3.420  -2.563  -1.357  0.00  0.00    +0.265 C 
ATOM      3  O   UNL     1      -4.620  -2.736  -1.271  0.00  0.00    -0.268 OA
ENDROOT
BRANCH   2   4
ATOM      4  C   UNL     1      -2.830  -2.075  -2.627  0.00  0.00    +0.126 A 
ATOM      5  C   UNL     1      -3.651  -1.944  -3.757  0.00  0.00    +0.033 A 
ATOM      6  C   UNL     1      -3.121  -1.495  -4.933  0.00  0.00    +0.012 A 
ATOM      7  C   UNL     1      -1.750  -1.177  -4.966  0.00  0.00    +0.000 A 
ATOM      8  C   UNL     1      -1.139  -0.709  -6.141  0.00  0.00    +0.010 A 
ATOM      9  C   UNL     1       0.189  -0.411  -6.136  0.00  0.00    +0.001 A 
ATOM     10  C   UNL     1       0.954  -0.562  -4.979  0.00  0.00    +0.002 A 
ATOM     11  C   UNL     1       0.396  -1.013  -3.824  0.00  0.00    +0.028 A 
ATOM     12  C   UNL     1      -0.975  -1.332  -3.787  0.00  0.00    +0.072 A 
ATOM     13  N   UNL     1      -1.548  -1.770  -2.667  0.00  0.00    -0.242 NA
ENDBRANCH   2   4
BRANCH   1  14
ATOM     14  C   UNL     1      -1.180  -2.597  -0.399  0.00  0.00    +0.089 C 
BRANCH  14  15
ATOM     15  C   UNL     1      -0.867  -1.123  -0.135  0.00  0.00    -0.060 C 
BRANCH  15  18
ATOM     16  C   UNL     1       0.900   0.530  -0.225  0.00  0.00    -0.097 C 
ATOM     17  C   UNL     1       1.297  -1.610   0.836  0.00  0.00    -0.097 C 
ATOM     18  N   UNL     1       0.591  -0.915  -0.261  0.00  0.00    +0.377 N 
ATOM     19  H   UNL     1       0.906  -1.301  -1.159  0.00  0.00    -0.083 HD
ENDBRANCH  15  18
ENDBRANCH  14  15
ENDBRANCH   1  14
BRANCH   1  20
ATOM     20  C   UNL     1      -3.206  -3.307   0.954  0.00  0.00    +0.109 C 
BRANCH  20  21
ATOM     21  C   UNL     1      -3.582  -2.119   1.842  0.00  0.00    -0.010 C 
ATOM     22  C   UNL     1      -4.696  -1.310   1.171  0.00  0.00    +0.001 C 
ATOM     23  C   UNL     1      -5.108  -0.160   2.094  0.00  0.00    -0.018 C 
ATOM     24  C   UNL     1      -5.556  -0.729   3.442  0.00  0.00    -0.078 C 
ATOM     25  C   UNL     1      -4.075  -2.631   3.198  0.00  0.00    -0.073 C 
ATOM     26  N   UNL     1      -4.432  -1.475   4.047  0.00  0.00    +0.383 N 
ATOM     27  H   UNL     1      -3.619  -0.851   4.119  0.00  0.00    -0.081 HD
BRANCH  26  28
ATOM     28  C   UNL     1      -4.803  -1.938   5.400  0.00  0.00    -0.040 C 
BRANCH  28  29
ATOM     29  C   UNL     1      -5.418  -0.792   6.162  0.00  0.00    -0.029 A 
ATOM     30  C   UNL     1      -6.782  -0.766   6.388  0.00  0.00    +0.004 A 
ATOM     31  C   UNL     1      -7.346   0.284   7.087  0.00  0.00    +0.000 A 
ATOM     32  C   UNL     1      -6.548   1.309   7.562  0.00  0.00    +0.003 A 
ATOM     33  C   UNL     1      -5.185   1.284   7.337  0.00  0.00    +0.038 A 
ATOM     34  C   UNL     1      -4.618   0.230   6.641  0.00  0.00    +0.125 A 
ATOM     35  F   UNL     1      -3.284   0.202   6.426  0.00  0.00    -0.205 F 
ENDBRANCH  28  29
ENDBRANCH  26  28
ENDBRANCH  20  21
ENDBRANCH   1  20
TORSDOF 8
