REMARK  Name = ZINC63162923
REMARK  6 active torsions:
REMARK  status: ('A' for Active; 'I' for Inactive)
REMARK    1  A    between atoms: C_4  and  C_7
REMARK    2  A    between atoms: C_11  and  S_20
REMARK    3  A    between atoms: N_13  and  C_14
REMARK    4  A    between atoms: C_14  and  C_15
REMARK    5  A    between atoms: S_20  and  C_21
REMARK    6  A    between atoms: C_21  and  C_22
REMARK                            x       y       z     vdW  Elec       q    Type
REMARK                         _______ _______ _______ _____ _____    ______ ____
ROOT
ATOM      1  C   UNL     1       3.711  -0.707  -0.038  0.00  0.00    +0.172 C 
ATOM      2  N   UNL     1       4.765   0.122   0.590  0.00  0.00    -0.233 NA
ATOM      3  N   UNL     1       4.819  -0.344   1.984  0.00  0.00    -0.229 NA
ATOM      4  C   UNL     1       4.609  -1.810   1.856  0.00  0.00    +0.200 C 
ATOM      5  N   UNL     1       3.611  -1.942   0.768  0.00  0.00    -0.250 NA
ATOM      6  H   UNL     1       4.528   1.102   0.545  0.00  0.00    +0.143 HD
ATOM      7  H   UNL     1       4.087   0.079   2.535  0.00  0.00    +0.143 HD
ENDROOT
BRANCH   1  11
ATOM      8  C   UNL     1      -0.016   1.380   0.011  0.00  0.00    +0.000 A 
ATOM      9  C   UNL     1       0.710   1.233   1.179  0.00  0.00    +0.000 A 
ATOM     10  C   UNL     1       1.916   0.557   1.163  0.00  0.00    +0.006 A 
ATOM     11  C   UNL     1       2.396   0.029  -0.020  0.00  0.00    -0.015 A 
ATOM     12  C   UNL     1       1.670   0.175  -1.188  0.00  0.00    +0.006 A 
ATOM     13  C   UNL     1       0.465   0.852  -1.172  0.00  0.00    +0.000 A 
ENDBRANCH   1  11
BRANCH   5  14
ATOM     14  C   UNL     1       3.881  -3.130  -0.054  0.00  0.00    +0.163 C 
BRANCH  14  15
ATOM     15  C   UNL     1       3.533  -4.370   0.728  0.00  0.00    +0.119 A 
ATOM     16  C   UNL     1       2.335  -4.982   0.741  0.00  0.00    +0.046 A 
ATOM     17  C   UNL     1       2.455  -6.098   1.601  0.00  0.00    +0.041 A 
ATOM     18  C   UNL     1       3.719  -6.102   2.061  0.00  0.00    +0.195 A 
ATOM     19  O   UNL     1       4.369  -5.056   1.524  0.00  0.00    -0.467 OA
ENDBRANCH  14  15
ENDBRANCH   5  14
BRANCH   4  20
ATOM     20  S   UNL     1       3.960  -2.496   3.404  0.00  0.00    -0.121 S 
BRANCH  20  21
ATOM     21  C   UNL     1       2.417  -1.583   3.676  0.00  0.00    +0.118 C 
BRANCH  21  22
ATOM     22  C   UNL     1       1.756  -2.070   4.967  0.00  0.00    +0.184 C 
ATOM     23  N   UNL     1       1.524  -3.518   4.900  0.00  0.00    -0.363 N 
ATOM     24  C   UNL     1       2.196  -4.067   5.870  0.00  0.00    +0.060 A 
ATOM     25  C   UNL     1       2.357  -5.460   6.309  0.00  0.00    +0.027 A 
ATOM     26  C   UNL     1       3.137  -5.735   7.374  0.00  0.00    +0.002 A 
ATOM     27  C   UNL     1       3.813  -4.736   8.097  0.00  0.00    +0.002 A 
ATOM     28  C   UNL     1       3.733  -3.429   7.778  0.00  0.00    +0.027 A 
ATOM     29  C   UNL     1       2.912  -3.010   6.634  0.00  0.00    +0.060 A 
ATOM     30  N   UNL     1       2.655  -1.848   6.107  0.00  0.00    -0.363 N 
ATOM     31  H   UNL     1       0.970  -3.981   4.251  0.00  0.00    +0.162 HD
ATOM     32  H   UNL     1       2.995  -0.992   6.412  0.00  0.00    +0.162 HD
ENDBRANCH  21  22
ENDBRANCH  20  21
ENDBRANCH   4  20
TORSDOF 6
