REMARK  Name = ZINC36928087
REMARK  3 active torsions:
REMARK  status: ('A' for Active; 'I' for Inactive)
REMARK    1  A    between atoms: C_1  and  C_2
REMARK    2  A    between atoms: C_5  and  N_8
REMARK    3  A    between atoms: C_9  and  C_14
REMARK                            x       y       z     vdW  Elec       q    Type
REMARK                         _______ _______ _______ _____ _____    ______ ____
ROOT
ATOM      1  N   UNL     1      -0.782  -2.050   2.802  0.00  0.00    -0.298 N 
ATOM      2  C   UNL     1      -1.511  -2.859   3.644  0.00  0.00    +0.165 A 
ATOM      3  N   UNL     1      -2.320  -2.079   4.323  0.00  0.00    -0.128 NA
ATOM      4  N   UNL     1      -2.149  -0.856   3.969  0.00  0.00    -0.121 NA
ATOM      5  C   UNL     1      -1.215  -0.779   3.045  0.00  0.00    +0.203 A 
ATOM      6  S   UNL     1      -0.636   0.690   2.264  0.00  0.00    -0.009 SA
ENDROOT
BRANCH   1  11
ATOM      7  C   UNL     1       0.832   1.659   0.678  0.00  0.00    +0.007 C 
ATOM      8  C   UNL     1       0.997   0.139   0.736  0.00  0.00    -0.014 C 
ATOM      9  C   UNL     1      -0.331  -0.532   0.377  0.00  0.00    +0.005 C 
ATOM     10  C   UNL     1      -0.166  -2.053   0.435  0.00  0.00    +0.025 C 
ATOM     11  C   UNL     1       0.249  -2.467   1.849  0.00  0.00    +0.091 C 
ATOM     12  C   UNL     1       1.577  -1.796   2.208  0.00  0.00    +0.025 C 
ATOM     13  C   UNL     1       1.412  -0.276   2.149  0.00  0.00    +0.005 C 
ENDBRANCH   1  11
BRANCH   2  14
ATOM     14  C   UNL     1      -1.404  -4.328   3.761  0.00  0.00    +0.022 A 
ATOM     15  C   UNL     1      -1.077  -5.117   2.651  0.00  0.00    +0.031 A 
ATOM     16  C   UNL     1      -0.987  -6.484   2.805  0.00  0.00    +0.111 A 
ATOM     17  N   UNL     1      -1.205  -7.049   3.978  0.00  0.00    -0.263 NA
ATOM     18  C   UNL     1      -1.516  -6.344   5.049  0.00  0.00    +0.111 A 
ATOM     19  C   UNL     1      -1.622  -4.971   4.986  0.00  0.00    +0.031 A 
ENDBRANCH   2  14
TORSDOF 2
