REMARK  Name = ZINC10993030
REMARK  9 active torsions:
REMARK  status: ('A' for Active; 'I' for Inactive)
REMARK    1  A    between atoms: C_1  and  C_2
REMARK    2  A    between atoms: C_4  and  N_7
REMARK    3  A    between atoms: C_8  and  C_10
REMARK    4  A    between atoms: C_10  and  C_12
REMARK    5  A    between atoms: C_10  and  O_13
REMARK    6  A    between atoms: O_13  and  C_14
REMARK    7  A    between atoms: C_14  and  C_16
REMARK    8  A    between atoms: C_29  and  C_30
REMARK    9  A    between atoms: C_33  and  O_36
REMARK                            x       y       z     vdW  Elec       q    Type
REMARK                         _______ _______ _______ _____ _____    ______ ____
ROOT
ATOM      1  C   UNL     1      -5.996   2.055   1.020  0.00  0.00    +0.073 A 
ATOM      2  C   UNL     1      -7.036   2.148  -0.005  0.00  0.00    +0.015 A 
ATOM      3  C   UNL     1      -7.003   1.355  -1.157  0.00  0.00    +0.011 A 
ATOM      4  C   UNL     1      -7.994   1.476  -2.086  0.00  0.00    +0.001 A 
ATOM      5  C   UNL     1      -9.038   2.380  -1.902  0.00  0.00    +0.002 A 
ATOM      6  C   UNL     1      -9.104   3.160  -0.789  0.00  0.00    +0.028 A 
ATOM      7  C   UNL     1      -8.097   3.067   0.191  0.00  0.00    +0.072 A 
ATOM      8  N   UNL     1      -8.129   3.825   1.284  0.00  0.00    -0.247 NA
ATOM      9  C   UNL     1      -7.198   3.768   2.231  0.00  0.00    +0.072 A 
ATOM     10  C   UNL     1      -6.110   2.885   2.126  0.00  0.00    -0.007 A 
ATOM     11  C   UNL     1      -5.216   3.031   3.333  0.00  0.00    +0.043 C 
ATOM     12  C   UNL     1      -5.860   4.107   4.218  0.00  0.00    +0.042 C 
ATOM     13  C   UNL     1      -7.104   4.541   3.484  0.00  0.00    -0.021 C 
ATOM     14  C   UNL     1      -7.979   5.475   3.900  0.00  0.00    +0.013 C 
ENDROOT
BRANCH  14  15
ATOM     15  C   UNL     1      -7.835   6.074   5.237  0.00  0.00    -0.024 A 
ATOM     16  C   UNL     1      -8.831   6.918   5.739  0.00  0.00    +0.011 A 
ATOM     17  C   UNL     1      -8.694   7.472   6.992  0.00  0.00    +0.046 A 
ATOM     18  C   UNL     1      -7.564   7.203   7.754  0.00  0.00    +0.117 A 
ATOM     19  C   UNL     1      -6.569   6.369   7.258  0.00  0.00    +0.046 A 
ATOM     20  C   UNL     1      -6.699   5.806   6.007  0.00  0.00    +0.011 A 
BRANCH  18  21
ATOM     21  O   UNL     1      -7.431   7.756   8.987  0.00  0.00    -0.507 OA
ATOM     22  H   UNL     1      -6.985   8.614   8.987  0.00  0.00    +0.292 HD
ENDBRANCH  18  21
ENDBRANCH  14  15
BRANCH   1  23
ATOM     23  C   UNL     1      -4.863   1.116   0.880  0.00  0.00    +0.341 C 
ATOM     24  O   UNL     1      -4.951  -0.012   1.323  0.00  0.00    -0.245 OA
BRANCH  23  25
ATOM     25  O   UNL     1      -3.733   1.510   0.262  0.00  0.00    -0.449 OA
BRANCH  25  26
ATOM     26  C   UNL     1      -2.662   0.536   0.161  0.00  0.00    +0.259 C 
ATOM     27  C   UNL     1      -2.818  -0.260  -1.137  0.00  0.00    +0.062 C 
BRANCH  26  29
ATOM     28  N   UNL     1      -0.189   0.537   0.172  0.00  0.00    -0.251 N 
ATOM     29  C   UNL     1      -1.334   1.247   0.157  0.00  0.00    +0.260 C 
ATOM     30  O   UNL     1      -1.296   2.459   0.141  0.00  0.00    -0.271 OA
ATOM     31  H   UNL     1      -0.219  -0.432   0.185  0.00  0.00    +0.158 HD
BRANCH  28  35
ATOM     32  C   UNL     1       4.662   1.658   0.156  0.00  0.00    +0.069 C 
ATOM     33  C   UNL     1       3.156   1.714   0.155  0.00  0.00    +0.082 A 
ATOM     34  C   UNL     1       2.272   0.617   0.170  0.00  0.00    +0.092 A 
ATOM     35  C   UNL     1       1.034   1.192   0.163  0.00  0.00    +0.224 A 
ATOM     36  O   UNL     1       1.237   2.519   0.139  0.00  0.00    -0.339 OA
ATOM     37  N   UNL     1       2.416   2.787   0.141  0.00  0.00    -0.081 NA
ENDBRANCH  28  35
ENDBRANCH  26  29
ENDBRANCH  25  26
ENDBRANCH  23  25
ENDBRANCH   1  23
TORSDOF 7
