REMARK  Name = ZINC01049894
REMARK  6 active torsions:
REMARK  status: ('A' for Active; 'I' for Inactive)
REMARK    1  A    between atoms: C_1  and  O_2
REMARK    2  A    between atoms: O_2  and  C_3
REMARK    3  A    between atoms: C_3  and  C_5
REMARK    4  A    between atoms: C_9  and  N_10
REMARK    5  A    between atoms: C_11  and  C_13
REMARK    6  A    between atoms: C_13  and  C_14
REMARK                            x       y       z     vdW  Elec       q    Type
REMARK                         _______ _______ _______ _____ _____    ______ ____
ROOT
ATOM      1  C   UNL     1       2.866   2.138  -2.551  0.00  0.00    +0.127 C 
ENDROOT
BRANCH   1   2
ATOM      2  C   UNL     1       3.793   2.224  -1.338  0.00  0.00    +0.166 C 
ATOM      3  C   UNL     1       3.525   1.071  -0.404  0.00  0.00    +0.238 C 
ATOM      4  O   UNL     1       4.389   0.258  -0.156  0.00  0.00    -0.273 OA
ATOM      5  N   UNL     1       2.309   0.969   0.146  0.00  0.00    -0.283 N 
ATOM      6  C   UNL     1       1.198   1.769   0.000  0.00  0.00    +0.043 A 
ATOM      7  C   UNL     1      -0.013   1.076   0.008  0.00  0.00    +0.024 A 
ATOM      8  C   UNL     1      -1.231   1.730   0.017  0.00  0.00    +0.002 A 
ATOM      9  C   UNL     1      -1.281   3.089   0.048  0.00  0.00    +0.009 A 
ATOM     10  C   UNL     1      -0.087   3.830   0.021  0.00  0.00    -0.014 A 
ATOM     11  C   UNL     1       1.169   3.169  -0.085  0.00  0.00    +0.024 A 
ATOM     12  C   UNL     1       2.305   3.980  -0.323  0.00  0.00    +0.037 A 
ATOM     13  C   UNL     1       2.190   5.358  -0.288  0.00  0.00    +0.023 A 
ATOM     14  C   UNL     1       0.971   5.980  -0.062  0.00  0.00    +0.002 A 
ATOM     15  C   UNL     1      -0.154   5.233   0.091  0.00  0.00    +0.009 A 
ATOM     16  N   UNL     1       3.531   3.442  -0.602  0.00  0.00    -0.332 N 
ATOM     17  H   UNL     1       2.193   0.212   0.741  0.00  0.00    +0.155 HD
ATOM     18  H   UNL     1       4.304   3.927  -0.273  0.00  0.00    +0.147 HD
ENDBRANCH   1   2
BRANCH   1  20
ATOM     19  N   UNL     1       2.494   3.379  -4.659  0.00  0.00    -0.279 N 
ATOM     20  C   UNL     1       3.189   3.255  -3.510  0.00  0.00    +0.220 C 
ATOM     21  O   UNL     1       4.074   4.042  -3.249  0.00  0.00    -0.275 OA
ATOM     22  H   UNL     1       1.786   2.749  -4.868  0.00  0.00    +0.155 HD
BRANCH  19  27
ATOM     23  C   UNL     1       2.193   4.696  -6.761  0.00  0.00    +0.091 A 
ATOM     24  C   UNL     1       2.697   5.842  -7.499  0.00  0.00    -0.021 A 
ATOM     25  C   UNL     1       3.709   6.510  -6.904  0.00  0.00    -0.004 A 
ATOM     26  S   UNL     1       3.993   5.644  -5.386  0.00  0.00    -0.077 S 
ATOM     27  C   UNL     1       2.791   4.406  -5.541  0.00  0.00    +0.086 A 
ATOM     28  C   UNL     1       4.422   7.719  -7.425  0.00  0.00    +0.043 C 
ATOM     29  C   UNL     1       4.087   7.874  -8.916  0.00  0.00    +0.005 C 
ATOM     30  C   UNL     1       2.572   7.737  -9.097  0.00  0.00    +0.005 C 
ATOM     31  C   UNL     1       2.147   6.289  -8.848  0.00  0.00    +0.037 C 
BRANCH  23  32
ATOM     32  C   UNL     1       1.098   3.877  -7.284  0.00  0.00    +0.342 C 
ATOM     33  O   UNL     1      -0.054   4.157  -7.012  0.00  0.00    -0.245 OA
BRANCH  32  35
ATOM     34  C   UNL     1       0.231   2.045  -8.549  0.00  0.00    +0.280 C 
ATOM     35  O   UNL     1       1.366   2.811  -8.066  0.00  0.00    -0.464 OA
ENDBRANCH  32  35
ENDBRANCH  23  32
ENDBRANCH  19  27
ENDBRANCH   1  20
TORSDOF 5
