REMARK  Name = ZINC31808994
REMARK  7 active torsions:
REMARK  status: ('A' for Active; 'I' for Inactive)
REMARK    1  A    between atoms: C_1  and  O_2
REMARK    2  A    between atoms: O_2  and  C_3
REMARK    3  A    between atoms: C_3  and  C_5
REMARK    4  A    between atoms: C_5  and  C_6
REMARK    5  A    between atoms: C_6  and  C_7
REMARK    6  A    between atoms: C_7  and  N_8
REMARK    7  A    between atoms: C_20  and  C_22
REMARK                            x       y       z     vdW  Elec       q    Type
REMARK                         _______ _______ _______ _____ _____    ______ ____
ROOT
ATOM      1  N   UNL     1       1.871  -6.421  -3.245  0.00  0.00    -0.299 N 
ATOM      2  C   UNL     1       2.443  -5.586  -4.135  0.00  0.00    +0.303 C 
ATOM      3  O   UNL     1       2.310  -4.384  -4.014  0.00  0.00    -0.253 OA
ATOM      4  N   UNL     1       3.163  -6.085  -5.160  0.00  0.00    -0.273 N 
ATOM      5  C   UNL     1       3.892  -5.193  -6.074  0.00  0.00    +0.116 C 
ATOM      6  C   UNL     1       5.397  -5.453  -5.939  0.00  0.00    +0.076 C 
ATOM      7  C   UNL     1       5.635  -6.943  -5.938  0.00  0.00    +0.066 A 
ATOM      8  C   UNL     1       4.682  -7.867  -5.692  0.00  0.00    +0.064 A 
ATOM      9  N   UNL     1       5.274  -9.089  -5.774  0.00  0.00    -0.346 N 
ATOM     10  H   UNL     1       4.845  -9.948  -5.643  0.00  0.00    +0.167 HD
ATOM     11  C   UNL     1       6.577  -8.877  -6.072  0.00  0.00    +0.197 A 
ATOM     12  N   UNL     1       6.782  -7.589  -6.168  0.00  0.00    -0.240 NA
ATOM     13  C   UNL     1       3.245  -7.539  -5.389  0.00  0.00    +0.159 C 
ATOM     14  H   UNL     1       1.915  -7.380  -3.381  0.00  0.00    +0.150 HD
ENDROOT
BRANCH  13  15
ATOM     15  C   UNL     1       2.378  -7.923  -6.561  0.00  0.00    +0.017 A 
ATOM     16  C   UNL     1       2.956  -8.200  -7.786  0.00  0.00    +0.011 A 
ATOM     17  C   UNL     1       2.163  -8.552  -8.862  0.00  0.00    +0.042 A 
ATOM     18  C   UNL     1       0.788  -8.630  -8.714  0.00  0.00    +0.161 A 
ATOM     19  C   UNL     1       0.208  -8.353  -7.486  0.00  0.00    +0.194 A 
ATOM     20  C   UNL     1       1.005  -8.005  -6.407  0.00  0.00    +0.167 A 
ATOM     21  F   UNL     1       0.442  -7.741  -5.208  0.00  0.00    -0.202 F 
ATOM     22  F   UNL     1      -1.133  -8.428  -7.340  0.00  0.00    -0.199 F 
ATOM     23  F   UNL     1       0.014  -8.974  -9.766  0.00  0.00    -0.202 F 
ENDBRANCH  13  15
BRANCH   1  24
ATOM     24  C   UNL     1       1.183  -5.879  -2.070  0.00  0.00    +0.106 C 
BRANCH  24  25
ATOM     25  C   UNL     1       0.628  -7.030  -1.229  0.00  0.00    +0.030 C 
BRANCH  25  26
ATOM     26  C   UNL     1      -0.091  -6.464  -0.002  0.00  0.00    +0.122 C 
BRANCH  26  27
ATOM     27  C   UNL     1      -0.638  -7.598   0.827  0.00  0.00    +0.307 C 
ATOM     28  O   UNL     1      -0.470  -8.741   0.473  0.00  0.00    -0.251 OA
BRANCH  27  30
ATOM     29  C   UNL     1      -1.802  -8.460   2.694  0.00  0.00    +0.280 C 
ATOM     30  O   UNL     1      -1.312  -7.337   1.958  0.00  0.00    -0.468 OA
ENDBRANCH  27  30
ENDBRANCH  26  27
ENDBRANCH  25  26
ENDBRANCH  24  25
ENDBRANCH   1  24
TORSDOF 6
