REMARK  Name = ZINC20283236
REMARK  12 active torsions:
REMARK  status: ('A' for Active; 'I' for Inactive)
REMARK    1  A    between atoms: C_1  and  C_2
REMARK    2  A    between atoms: C_5  and  C_8
REMARK    3  A    between atoms: C_8  and  C_10
REMARK    4  A    between atoms: C_10  and  S_11
REMARK    5  A    between atoms: S_11  and  C_12
REMARK    6  A    between atoms: C_13  and  C_36
REMARK    7  A    between atoms: C_14  and  C_31
REMARK    8  A    between atoms: C_16  and  C_20
REMARK    9  A    between atoms: C_17  and  C_19
REMARK   10  A    between atoms: N_22  and  C_23
REMARK   11  A    between atoms: C_28  and  O_29
REMARK   12  A    between atoms: O_29  and  C_30
REMARK                            x       y       z     vdW  Elec       q    Type
REMARK                         _______ _______ _______ _____ _____    ______ ____
ROOT
ATOM      1  C   UNL     1       3.557   3.343  -0.674  0.00  0.00    +0.080 C 
ATOM      2  C   UNL     1       2.389   4.039  -0.711  0.00  0.00    +0.069 C 
ATOM      3  C   UNL     1       1.099   3.422  -0.250  0.00  0.00    +0.105 C 
ATOM      4  C   UNL     1       1.226   1.928  -0.153  0.00  0.00    +0.044 C 
ATOM      5  C   UNL     1       2.424   1.321  -0.131  0.00  0.00    +0.014 C 
ATOM      6  N   UNL     1       3.583   2.044  -0.217  0.00  0.00    -0.312 N 
ATOM      7  C   UNL     1       2.493  -0.179  -0.016  0.00  0.00    +0.061 C 
ATOM      8  H   UNL     1       4.537   1.584   0.080  0.00  0.00    +0.152 HD
ENDROOT
BRANCH   3   9
ATOM      9  C   UNL     1       0.739   3.978   1.103  0.00  0.00    +0.002 A 
ATOM     10  C   UNL     1      -0.354   4.691   1.470  0.00  0.00    +0.012 A 
ATOM     11  C   UNL     1      -0.476   5.101   2.784  0.00  0.00    +0.008 A 
ATOM     12  C   UNL     1       0.500   4.779   3.667  0.00  0.00    +0.045 A 
ATOM     13  S   UNL     1       1.637   3.861   2.642  0.00  0.00    -0.101 S 
ENDBRANCH   3   9
BRANCH   4  14
ATOM     14  C   UNL     1       0.053   1.140  -0.076  0.00  0.00    +0.247 C 
ATOM     15  O   UNL     1      -0.619   0.951  -1.074  0.00  0.00    -0.270 OA
ATOM     16  N   UNL     1      -0.323   0.604   1.101  0.00  0.00    -0.279 N 
ATOM     17  H   UNL     1       0.243   0.834   2.016  0.00  0.00    +0.155 HD
BRANCH  16  18
ATOM     18  C   UNL     1      -1.435  -0.245   1.161  0.00  0.00    +0.076 A 
ATOM     19  C   UNL     1      -2.526  -0.022   0.333  0.00  0.00    +0.027 A 
ATOM     20  C   UNL     1      -3.620  -0.864   0.390  0.00  0.00    +0.002 A 
ATOM     21  C   UNL     1      -3.636  -1.924   1.279  0.00  0.00    +0.004 A 
ATOM     22  C   UNL     1      -2.555  -2.149   2.111  0.00  0.00    +0.047 A 
ATOM     23  C   UNL     1      -1.452  -1.312   2.056  0.00  0.00    +0.141 A 
BRANCH  23  24
ATOM     24  O   UNL     1      -0.388  -1.533   2.874  0.00  0.00    -0.493 OA
ATOM     25  C   UNL     1      -0.475  -2.646   3.766  0.00  0.00    +0.277 C 
ENDBRANCH  23  24
ENDBRANCH  16  18
ENDBRANCH   4  14
BRANCH   2  26
ATOM     26  C   UNL     1       2.389   5.386  -1.198  0.00  0.00    +0.098 C 
ATOM     27  N   UNL     1       2.388   6.454  -1.585  0.00  0.00    -0.191 NA
ENDBRANCH   2  26
BRANCH   1  28
ATOM     28  S   UNL     1       5.049   4.109  -1.215  0.00  0.00    -0.101 S 
BRANCH  28  29
ATOM     29  C   UNL     1       6.215   2.753  -0.943  0.00  0.00    +0.155 C 
BRANCH  29  30
ATOM     30  C   UNL     1       7.599   3.191  -1.348  0.00  0.00    +0.173 C 
ATOM     31  O   UNL     1       7.779   4.310  -1.778  0.00  0.00    -0.291 OA
BRANCH  30  36
ATOM     32  C   UNL     1      12.026  -0.443  -0.853  0.00  0.00    +0.044 C 
ATOM     33  C   UNL     1      10.866   0.510  -0.983  0.00  0.00    -0.050 A 
ATOM     34  C   UNL     1      11.075   1.787  -1.474  0.00  0.00    +0.004 A 
ATOM     35  C   UNL     1      10.018   2.664  -1.596  0.00  0.00    +0.011 A 
ATOM     36  C   UNL     1       8.732   2.261  -1.222  0.00  0.00    +0.018 A 
ATOM     37  C   UNL     1       8.530   0.971  -0.720  0.00  0.00    +0.011 A 
ATOM     38  C   UNL     1       9.596   0.103  -0.610  0.00  0.00    +0.004 A 
ENDBRANCH  30  36
ENDBRANCH  29  30
ENDBRANCH  28  29
ENDBRANCH   1  28
TORSDOF 9
