REMARK  Name = ZINC63330684
REMARK  9 active torsions:
REMARK  status: ('A' for Active; 'I' for Inactive)
REMARK    1  A    between atoms: C_1  and  C_2
REMARK    2  A    between atoms: C_4  and  N_17
REMARK    3  A    between atoms: N_8  and  C_11
REMARK    4  A    between atoms: N_9  and  C_10
REMARK    5  A    between atoms: N_17  and  C_18
REMARK    6  A    between atoms: C_18  and  N_20
REMARK    7  A    between atoms: N_20  and  C_21
REMARK    8  A    between atoms: C_21  and  C_22
REMARK    9  A    between atoms: C_22  and  C_23
REMARK                            x       y       z     vdW  Elec       q    Type
REMARK                         _______ _______ _______ _____ _____    ______ ____
ROOT
ATOM      1  N   UNL     1      -0.709  -0.912  -1.897  0.00  0.00    -0.314 N 
ATOM      2  H   UNL     1      -1.558  -0.906  -1.427  0.00  0.00    +0.149 HD
ENDROOT
BRANCH   1   5
ATOM      3  C   UNL     1       0.563   1.693  -0.164  0.00  0.00    +0.028 C 
ATOM      4  C   UNL     1       0.253   0.217   0.093  0.00  0.00    +0.102 C 
ATOM      5  C   UNL     1       0.532  -0.635  -1.169  0.00  0.00    +0.178 C 
ATOM      6  C   UNL     1       1.111  -1.907  -0.576  0.00  0.00    +0.256 C 
ATOM      7  O   UNL     1       1.250  -2.965  -1.153  0.00  0.00    -0.272 OA
ATOM      8  N   UNL     1       1.444  -1.654   0.704  0.00  0.00    -0.201 N 
ATOM      9  N   UNL     1       1.204  -0.362   1.070  0.00  0.00    -0.218 NA
ATOM     10  C   UNL     1       2.451   0.413   1.113  0.00  0.00    +0.128 C 
BRANCH   8  11
ATOM     11  C   UNL     1       1.979  -2.615   1.568  0.00  0.00    +0.053 A 
ATOM     12  C   UNL     1       1.462  -2.765   2.848  0.00  0.00    +0.025 A 
ATOM     13  C   UNL     1       1.992  -3.715   3.699  0.00  0.00    +0.002 A 
ATOM     14  C   UNL     1       3.037  -4.516   3.277  0.00  0.00    +0.000 A 
ATOM     15  C   UNL     1       3.555  -4.369   2.003  0.00  0.00    +0.002 A 
ATOM     16  C   UNL     1       3.025  -3.425   1.145  0.00  0.00    +0.025 A 
ENDBRANCH   8  11
ENDBRANCH   1   5
BRANCH   1  17
ATOM     17  C   UNL     1      -0.671  -1.175  -3.218  0.00  0.00    +0.131 C 
ATOM     18  S   UNL     1       0.828  -1.185  -4.046  0.00  0.00    -0.019 S 
BRANCH  17  19
ATOM     19  N   UNL     1      -1.813  -1.429  -3.888  0.00  0.00    -0.326 N 
ATOM     20  H   UNL     1      -2.662  -1.423  -3.418  0.00  0.00    +0.148 HD
BRANCH  19  21
ATOM     21  C   UNL     1      -1.771  -1.715  -5.324  0.00  0.00    +0.107 C 
BRANCH  21  22
ATOM     22  C   UNL     1      -3.191  -1.966  -5.835  0.00  0.00    +0.052 C 
BRANCH  22  23
ATOM     23  C   UNL     1      -3.149  -2.260  -7.312  0.00  0.00    -0.040 C 
ATOM     24  C   UNL     1      -3.115  -3.478  -7.899  0.00  0.00    -0.001 A 
ATOM     25  C   UNL     1      -3.107  -4.843  -7.357  0.00  0.00    +0.010 A 
ATOM     26  C   UNL     1      -3.069  -5.888  -8.214  0.00  0.00    +0.001 A 
ATOM     27  C   UNL     1      -3.036  -5.702  -9.602  0.00  0.00    +0.002 A 
ATOM     28  C   UNL     1      -3.041  -4.480 -10.175  0.00  0.00    +0.026 A 
ATOM     29  C   UNL     1      -3.080  -3.309  -9.369  0.00  0.00    +0.043 A 
ATOM     30  N   UNL     1      -3.092  -2.035  -9.679  0.00  0.00    -0.380 N 
ATOM     31  C   UNL     1      -3.142  -1.252  -8.440  0.00  0.00    +0.144 C 
ATOM     32  H   UNL     1      -3.075  -1.672 -10.579  0.00  0.00    +0.160 HD
ENDBRANCH  22  23
ENDBRANCH  21  22
ENDBRANCH  19  21
ENDBRANCH  17  19
ENDBRANCH   1  17
TORSDOF 7
