REMARK  Name = ZINC35641061
REMARK  15 active torsions:
REMARK  status: ('A' for Active; 'I' for Inactive)
REMARK    1  A    between atoms: C_1  and  C_2
REMARK    2  A    between atoms: C_2  and  N_3
REMARK    3  A    between atoms: C_4  and  C_26
REMARK    4  A    between atoms: C_5  and  C_21
REMARK    5  A    between atoms: C_6  and  C_11
REMARK    6  A    between atoms: C_14  and  O_19
REMARK    7  A    between atoms: C_15  and  O_17
REMARK    8  A    between atoms: O_17  and  C_18
REMARK    9  A    between atoms: O_19  and  C_20
REMARK   10  A    between atoms: C_21  and  O_23
REMARK   11  A    between atoms: O_23  and  C_24
REMARK   12  A    between atoms: C_24  and  C_25
REMARK   13  A    between atoms: C_26  and  N_27
REMARK   14  A    between atoms: N_27  and  C_28
REMARK   15  A    between atoms: N_27  and  C_29
REMARK                            x       y       z     vdW  Elec       q    Type
REMARK                         _______ _______ _______ _____ _____    ______ ____
ROOT
ATOM      1  N   UNL     1       0.777  -0.551  -1.026  0.00  0.00    -0.261 N 
ATOM      2  C   UNL     1       0.063  -0.796  -2.164  0.00  0.00    +0.010 C 
ATOM      3  C   UNL     1       0.678  -1.179  -3.304  0.00  0.00    +0.076 C 
ATOM      4  C   UNL     1       2.186  -1.328  -3.276  0.00  0.00    +0.144 C 
ATOM      5  N   UNL     1       2.861  -1.040  -1.999  0.00  0.00    -0.288 N 
ATOM      6  C   UNL     1       2.109  -0.662  -0.947  0.00  0.00    +0.307 C 
ATOM      7  O   UNL     1       2.658  -0.418   0.110  0.00  0.00    -0.252 OA
ATOM      8  H   UNL     1       3.825  -1.117  -1.919  0.00  0.00    +0.151 HD
ENDROOT
BRANCH   4   9
ATOM      9  C   UNL     1       2.762  -0.410  -4.323  0.00  0.00    -0.019 A 
ATOM     10  C   UNL     1       3.242  -0.933  -5.509  0.00  0.00    +0.009 A 
ATOM     11  C   UNL     1       3.772  -0.096  -6.473  0.00  0.00    +0.050 A 
ATOM     12  C   UNL     1       3.822   1.271  -6.251  0.00  0.00    +0.162 A 
ATOM     13  C   UNL     1       3.339   1.798  -5.057  0.00  0.00    +0.162 A 
ATOM     14  C   UNL     1       2.804   0.953  -4.098  0.00  0.00    +0.055 A 
BRANCH  13  15
ATOM     15  O   UNL     1       3.386   3.139  -4.835  0.00  0.00    -0.491 OA
ATOM     16  C   UNL     1       2.971   3.598  -3.547  0.00  0.00    +0.277 C 
ENDBRANCH  13  15
BRANCH  12  17
ATOM     17  O   UNL     1       4.344   2.097  -7.198  0.00  0.00    -0.491 OA
ATOM     18  C   UNL     1       4.822   1.486  -8.399  0.00  0.00    +0.277 C 
ENDBRANCH  12  17
ENDBRANCH   4   9
BRANCH   1  20
ATOM     19  C   UNL     1       0.051   1.388   0.276  0.00  0.00    +0.025 C 
ATOM     20  C   UNL     1       0.045  -0.139   0.174  0.00  0.00    +0.111 C 
ENDBRANCH   1  20
BRANCH   3  21
ATOM     21  C   UNL     1      -0.061  -1.434  -4.483  0.00  0.00    +0.339 C 
ATOM     22  O   UNL     1      -0.325  -2.579  -4.800  0.00  0.00    -0.245 OA
BRANCH  21  23
ATOM     23  O   UNL     1      -0.472  -0.407  -5.256  0.00  0.00    -0.462 OA
BRANCH  23  24
ATOM     24  C   UNL     1      -1.308  -0.729  -6.370  0.00  0.00    +0.229 C 
ATOM     25  C   UNL     1      -1.571   0.535  -7.191  0.00  0.00    +0.048 C 
ENDBRANCH  23  24
ENDBRANCH  21  23
ENDBRANCH   3  21
BRANCH   2  26
ATOM     26  C   UNL     1      -1.435  -0.636  -2.148  0.00  0.00    -0.026 C 
BRANCH  26  27
ATOM     27  N   UNL     1      -2.042  -1.775  -1.446  0.00  0.00    +0.383 N 
ATOM     28  C   UNL     1      -1.810  -3.005  -2.216  0.00  0.00    -0.095 C 
ATOM     29  H   UNL     1      -1.626  -1.867  -0.532  0.00  0.00    -0.081 HD
BRANCH  27  30
ATOM     30  C   UNL     1      -3.487  -1.551  -1.306  0.00  0.00    -0.068 C 
ATOM     31  C   UNL     1      -3.729  -0.271  -0.504  0.00  0.00    -0.015 C 
ATOM     32  C   UNL     1      -5.234  -0.037  -0.358  0.00  0.00    -0.002 C 
ATOM     33  C   UNL     1      -5.866  -1.224   0.373  0.00  0.00    -0.000 C 
ATOM     34  C   UNL     1      -5.624  -2.504  -0.429  0.00  0.00    -0.002 C 
ATOM     35  C   UNL     1      -4.119  -2.738  -0.575  0.00  0.00    -0.015 C 
ENDBRANCH  27  30
ENDBRANCH  26  27
ENDBRANCH   2  26
TORSDOF 10
