REMARK  Name = ZINC13064866
REMARK  13 active torsions:
REMARK  status: ('A' for Active; 'I' for Inactive)
REMARK    1  A    between atoms: C_1  and  C_2
REMARK    2  A    between atoms: C_2  and  C_3
REMARK    3  A    between atoms: C_3  and  C_5
REMARK    4  A    between atoms: C_3  and  N_73
REMARK    5  A    between atoms: N_9  and  C_10
REMARK    6  A    between atoms: C_10  and  C_11
REMARK    7  A    between atoms: C_17  and  C_18
REMARK    8  A    between atoms: C_17  and  N_73
REMARK    9  A    between atoms: C_18  and  C_19
REMARK   10  A    between atoms: C_25  and  C_26
REMARK   11  A    between atoms: C_25  and  N_73
REMARK   12  A    between atoms: C_29  and  C_39
REMARK   13  A    between atoms: C_31  and  C_38
REMARK                            x       y       z     vdW  Elec       q    Type
REMARK                         _______ _______ _______ _____ _____    ______ ____
ROOT
ATOM      1  N   UNL     1       2.587   1.032   1.171  0.00  0.00    +0.389 N 
ATOM      2  H   UNL     1       2.511   1.812   1.835  0.00  0.00    -0.080 HD
ENDROOT
BRANCH   1   3
ATOM      3  C   UNL     1       3.965   0.498   1.214  0.00  0.00    +0.003 C 
BRANCH   3   4
ATOM      4  C   UNL     1       4.184  -0.490   0.098  0.00  0.00    +0.138 A 
ATOM      5  N   UNL     1       3.878  -0.324  -1.166  0.00  0.00    -0.115 NA
ATOM      6  N   UNL     1       4.221  -1.390  -1.802  0.00  0.00    -0.023 NA
ATOM      7  N   UNL     1       4.732  -2.235  -0.976  0.00  0.00    -0.044 NA
ATOM      8  N   UNL     1       4.726  -1.717   0.206  0.00  0.00    -0.228 N 
BRANCH   8   9
ATOM      9  C   UNL     1       5.218  -2.346   1.434  0.00  0.00    +0.178 C 
BRANCH   9  10
ATOM     10  C   UNL     1       4.134  -3.262   2.007  0.00  0.00    +0.140 C 
ATOM     11  C   UNL     1       4.605  -3.851   3.354  0.00  0.00    +0.035 C 
ATOM     12  C   UNL     1       4.077  -5.309   3.279  0.00  0.00    +0.031 C 
ATOM     13  C   UNL     1       4.223  -5.598   1.763  0.00  0.00    +0.160 C 
ATOM     14  O   UNL     1       3.902  -4.358   1.113  0.00  0.00    -0.375 OA
ENDBRANCH   9  10
ENDBRANCH   8   9
ENDBRANCH   3   4
BRANCH   3  16
ATOM     15  C   UNL     1       4.796   2.612   2.255  0.00  0.00    +0.002 C 
ATOM     16  C   UNL     1       4.949   1.661   1.066  0.00  0.00    -0.011 C 
ENDBRANCH   3  16
ENDBRANCH   1   3
BRANCH   1  17
ATOM     17  C   UNL     1       1.625  -0.022   1.557  0.00  0.00    -0.073 C 
BRANCH  17  18
ATOM     18  C   UNL     1       1.791  -0.319   3.049  0.00  0.00    +0.016 C 
BRANCH  18  19
ATOM     19  C   UNL     1       0.703  -1.260   3.498  0.00  0.00    -0.049 A 
ATOM     20  C   UNL     1      -0.540  -0.764   3.844  0.00  0.00    +0.003 A 
ATOM     21  C   UNL     1      -1.540  -1.628   4.251  0.00  0.00    +0.000 A 
ATOM     22  C   UNL     1      -1.293  -2.987   4.321  0.00  0.00    +0.000 A 
ATOM     23  C   UNL     1      -0.048  -3.482   3.980  0.00  0.00    +0.000 A 
ATOM     24  C   UNL     1       0.950  -2.618   3.568  0.00  0.00    +0.003 A 
ENDBRANCH  18  19
ENDBRANCH  17  18
ENDBRANCH   1  17
BRANCH   1  25
ATOM     25  C   UNL     1       2.279   1.525  -0.188  0.00  0.00    -0.037 C 
BRANCH  25  26
ATOM     26  C   UNL     1       1.110   2.473  -0.103  0.00  0.00    +0.001 A 
ATOM     27  C   UNL     1       1.328   3.806   0.006  0.00  0.00    +0.017 A 
ATOM     28  C   UNL     1       0.171   4.700   0.086  0.00  0.00    +0.002 A 
ATOM     29  C   UNL     1       0.333   6.085   0.200  0.00  0.00    -0.041 A 
ATOM     30  C   UNL     1      -0.767   6.892   0.272  0.00  0.00    +0.007 A 
ATOM     31  C   UNL     1      -2.044   6.349   0.234  0.00  0.00    -0.048 A 
ATOM     32  C   UNL     1      -2.228   4.988   0.122  0.00  0.00    +0.029 A 
ATOM     33  C   UNL     1      -1.122   4.147   0.047  0.00  0.00    +0.050 A 
ATOM     34  N   UNL     1      -1.276   2.782  -0.071  0.00  0.00    -0.322 N 
ATOM     35  H   UNL     1      -2.169   2.402  -0.101  0.00  0.00    +0.169 HD
ATOM     36  C   UNL     1      -0.208   1.968  -0.138  0.00  0.00    +0.251 A 
ATOM     37  O   UNL     1      -0.382   0.766  -0.236  0.00  0.00    -0.268 OA
ATOM     38  C   UNL     1      -3.243   7.259   0.316  0.00  0.00    +0.044 C 
ATOM     39  C   UNL     1       1.715   6.684   0.243  0.00  0.00    +0.044 C 
ENDBRANCH  25  26
ENDBRANCH   1  25
TORSDOF 10
