REMARK  Name = ZINC66249415
REMARK  5 active torsions:
REMARK  status: ('A' for Active; 'I' for Inactive)
REMARK    1  A    between atoms: C_1  and  C_2
REMARK    2  A    between atoms: N_5  and  C_8
REMARK    3  A    between atoms: C_8  and  C_9
REMARK    4  A    between atoms: N_14  and  S_15
REMARK    5  A    between atoms: S_15  and  C_18
REMARK                            x       y       z     vdW  Elec       q    Type
REMARK                         _______ _______ _______ _____ _____    ______ ____
ROOT
ATOM      1  C   UNL     1      -0.034  -4.388   2.671  0.00  0.00    +0.008 A 
ATOM      2  C   UNL     1      -0.690  -5.075   3.606  0.00  0.00    +0.068 A 
ATOM      3  S   UNL     1       0.576  -5.334   4.838  0.00  0.00    -0.057 S 
ATOM      4  C   UNL     1       1.909  -4.491   4.000  0.00  0.00    +0.191 A 
ATOM      5  N   UNL     1       1.284  -4.082   2.841  0.00  0.00    -0.338 N 
ATOM      6  N   UNL     1       3.150  -4.314   4.381  0.00  0.00    -0.103 NA
ATOM      7  H   UNL     1       1.770  -3.586   2.164  0.00  0.00    +0.167 HD
ENDROOT
BRANCH   6   8
ATOM      8  S   UNL     1       3.664  -4.918   5.835  0.00  0.00    +0.103 S 
ATOM      9  O   UNL     1       2.962  -4.202   6.843  0.00  0.00    -0.146 OA
ATOM     10  O   UNL     1       3.610  -6.334   5.729  0.00  0.00    -0.146 OA
BRANCH   8  11
ATOM     11  C   UNL     1       5.365  -4.490   6.005  0.00  0.00    +0.139 A 
ATOM     12  C   UNL     1       5.895  -3.672   6.929  0.00  0.00    +0.114 A 
ATOM     13  N   UNL     1       7.249  -3.580   6.748  0.00  0.00    -0.344 N 
ATOM     14  H   UNL     1       7.848  -3.048   7.294  0.00  0.00    +0.167 HD
ATOM     15  C   UNL     1       7.635  -4.354   5.679  0.00  0.00    +0.140 A 
ATOM     16  C   UNL     1       6.471  -4.963   5.171  0.00  0.00    +0.046 A 
ATOM     17  C   UNL     1       6.567  -5.819   4.072  0.00  0.00    +0.015 A 
ATOM     18  C   UNL     1       7.818  -6.037   3.526  0.00  0.00    +0.020 A 
ATOM     19  C   UNL     1       8.922  -5.407   4.080  0.00  0.00    +0.113 A 
ATOM     20  N   UNL     1       8.808  -4.598   5.111  0.00  0.00    -0.237 NA
ENDBRANCH   8  11
ENDBRANCH   6   8
BRANCH   1  21
ATOM     21  C   UNL     1      -0.750  -3.952   1.419  0.00  0.00    -0.024 C 
BRANCH  21  26
ATOM     22  C   UNL     1      -2.194   1.558   1.146  0.00  0.00    +0.007 C 
ATOM     23  C   UNL     1      -2.248   0.029   1.167  0.00  0.00    -0.018 C 
ATOM     24  C   UNL     1      -1.696  -0.484   2.499  0.00  0.00    -0.016 C 
ATOM     25  C   UNL     1      -1.678  -2.014   2.482  0.00  0.00    -0.078 C 
ATOM     26  N   UNL     1      -0.826  -2.485   1.383  0.00  0.00    +0.383 N 
ATOM     27  C   UNL     1      -1.389  -2.057   0.097  0.00  0.00    -0.078 C 
ATOM     28  C   UNL     1      -1.396  -0.528   0.023  0.00  0.00    -0.016 C 
ATOM     29  H   UNL     1       0.100  -2.100   1.489  0.00  0.00    -0.081 HD
ENDBRANCH  21  26
ENDBRANCH   1  21
TORSDOF 4
