REMARK  Name = ZINC32825514
REMARK  6 active torsions:
REMARK  status: ('A' for Active; 'I' for Inactive)
REMARK    1  A    between atoms: C_4  and  N_8
REMARK    2  A    between atoms: C_9  and  C_11
REMARK    3  A    between atoms: N_16  and  C_17
REMARK    4  A    between atoms: C_17  and  C_18
REMARK    5  A    between atoms: N_20  and  C_21
REMARK    6  A    between atoms: C_21  and  C_26
REMARK                            x       y       z     vdW  Elec       q    Type
REMARK                         _______ _______ _______ _____ _____    ______ ____
ROOT
ATOM      1  C   UNL     1       1.413  -0.447  -0.026  0.00  0.00    +0.020 C 
ATOM      2  C   UNL     1       2.224   0.726   0.581  0.00  0.00    -0.008 C 
ATOM      3  C   UNL     1       1.456   1.956   0.030  0.00  0.00    -0.020 C 
ATOM      4  C   UNL     1      -0.012   1.480   0.035  0.00  0.00    -0.077 C 
ATOM      5  N   UNL     1       0.006   0.006   0.015  0.00  0.00    +0.393 N 
ATOM      6  H   UNL     1      -0.484  -0.381   0.920  0.00  0.00    -0.080 HD
ENDROOT
BRANCH   1   8
ATOM      7  N   UNL     1       2.801  -2.271   0.903  0.00  0.00    -0.286 N 
ATOM      8  C   UNL     1       1.588  -1.691   0.805  0.00  0.00    +0.204 C 
ATOM      9  O   UNL     1       0.638  -2.171   1.387  0.00  0.00    -0.277 OA
ATOM     10  H   UNL     1       3.642  -1.891   0.305  0.00  0.00    +0.155 HD
BRANCH   7  14
ATOM     11  C   UNL     1       3.364  -5.506   3.470  0.00  0.00    +0.021 A 
ATOM     12  C   UNL     1       4.199  -5.337   2.381  0.00  0.00    +0.023 A 
ATOM     13  C   UNL     1       4.015  -4.266   1.528  0.00  0.00    +0.062 A 
ATOM     14  C   UNL     1       2.990  -3.357   1.766  0.00  0.00    +0.053 A 
ATOM     15  C   UNL     1       2.157  -3.527   2.863  0.00  0.00    +0.044 A 
ATOM     16  C   UNL     1       2.343  -4.604   3.710  0.00  0.00    +0.043 A 
ATOM     17 CL   UNL     1       1.298  -4.821   5.079  0.00  0.00    -0.083 Cl
ATOM     18 CL   UNL     1       5.062  -4.054   0.160  0.00  0.00    -0.082 Cl
ENDBRANCH   7  14
ENDBRANCH   1   8
BRANCH   5  19
ATOM     19  C   UNL     1      -0.748  -0.514  -1.132  0.00  0.00    +0.020 C 
BRANCH  19  20
ATOM     20  C   UNL     1      -2.219  -0.259  -0.924  0.00  0.00    +0.198 C 
ATOM     21  O   UNL     1      -2.601   0.302   0.081  0.00  0.00    -0.278 OA
ATOM     22  N   UNL     1      -3.110  -0.653  -1.856  0.00  0.00    -0.299 N 
ATOM     23  H   UNL     1      -2.764  -1.162  -2.768  0.00  0.00    +0.150 HD
BRANCH  22  24
ATOM     24  C   UNL     1      -4.539  -0.405  -1.653  0.00  0.00    +0.121 C 
ATOM     25  C   UNL     1      -5.033  -1.152  -0.397  0.00  0.00    +0.041 C 
ATOM     26  C   UNL     1      -6.456  -1.633  -0.777  0.00  0.00    +0.003 C 
ATOM     27  C   UNL     1      -6.299  -2.027  -2.266  0.00  0.00    +0.003 C 
ATOM     28  C   UNL     1      -5.344  -0.961  -2.841  0.00  0.00    +0.041 C 
BRANCH  24  29
ATOM     29  C   UNL     1      -4.785   1.039  -1.510  0.00  0.00    +0.088 C 
ATOM     30  N   UNL     1      -4.974   2.154  -1.400  0.00  0.00    -0.194 NA
ENDBRANCH  24  29
ENDBRANCH  22  24
ENDBRANCH  19  20
ENDBRANCH   5  19
TORSDOF 6
