REMARK  Name = ZINC20721888
REMARK  9 active torsions:
REMARK  status: ('A' for Active; 'I' for Inactive)
REMARK    1  A    between atoms: C_1  and  C_2
REMARK    2  A    between atoms: C_2  and  C_3
REMARK    3  A    between atoms: C_3  and  C_5
REMARK    4  A    between atoms: C_3  and  C_6
REMARK    5  A    between atoms: C_6  and  C_8
REMARK    6  A    between atoms: C_6  and  N_12
REMARK    7  A    between atoms: C_8  and  O_10
REMARK    8  A    between atoms: O_10  and  C_11
REMARK    9  A    between atoms: C_24  and  C_26
REMARK                            x       y       z     vdW  Elec       q    Type
REMARK                         _______ _______ _______ _____ _____    ______ ____
ROOT
ATOM      1  N   UNL     1      -2.776  -2.221   1.517  0.00  0.00    -0.286 N 
ATOM      2  C   UNL     1      -3.548  -1.221   1.048  0.00  0.00    +0.304 C 
ATOM      3  O   UNL     1      -3.083  -0.106   0.914  0.00  0.00    -0.253 OA
ATOM      4  N   UNL     1      -4.836  -1.457   0.729  0.00  0.00    -0.273 N 
ATOM      5  C   UNL     1      -5.660  -0.412   0.103  0.00  0.00    +0.116 C 
ATOM      6  C   UNL     1      -6.062  -0.866  -1.306  0.00  0.00    +0.074 C 
ATOM      7  C   UNL     1      -6.515  -2.301  -1.243  0.00  0.00    +0.040 A 
ATOM      8  C   UNL     1      -6.246  -3.151  -0.229  0.00  0.00    +0.062 A 
ATOM      9  N   UNL     1      -6.801  -4.330  -0.517  0.00  0.00    -0.348 N 
ATOM     10  C   UNL     1      -7.409  -4.246  -1.672  0.00  0.00    +0.171 A 
ATOM     11  N   UNL     1      -7.253  -2.992  -2.156  0.00  0.00    -0.349 N 
ATOM     12  H   UNL     1      -7.601  -2.650  -2.994  0.00  0.00    +0.166 HD
ATOM     13  C   UNL     1      -5.451  -2.771   0.992  0.00  0.00    +0.156 C 
ATOM     14  H   UNL     1      -3.125  -3.126   1.556  0.00  0.00    +0.151 HD
ATOM     15  H   UNL     1      -6.760  -5.123   0.040  0.00  0.00    +0.167 HD
ENDROOT
BRANCH  13  16
ATOM     16  C   UNL     1      -6.365  -2.679   2.186  0.00  0.00    -0.018 A 
ATOM     17  C   UNL     1      -7.478  -1.859   2.143  0.00  0.00    +0.006 A 
ATOM     18  C   UNL     1      -8.318  -1.774   3.237  0.00  0.00    +0.003 A 
ATOM     19  C   UNL     1      -8.046  -2.508   4.377  0.00  0.00    +0.038 A 
ATOM     20  C   UNL     1      -6.932  -3.328   4.421  0.00  0.00    +0.124 A 
ATOM     21  C   UNL     1      -6.095  -3.418   3.322  0.00  0.00    +0.044 A 
ATOM     22  F   UNL     1      -6.665  -4.046   5.535  0.00  0.00    -0.205 F 
ENDBRANCH  13  16
BRANCH   1  23
ATOM     23  C   UNL     1      -1.411  -1.943   1.968  0.00  0.00    +0.186 C 
BRANCH  23  24
ATOM     24  C   UNL     1      -1.440  -1.479   3.426  0.00  0.00    +0.017 C 
ATOM     25  C   UNL     1      -2.191  -2.507   4.274  0.00  0.00    +0.010 C 
BRANCH  24  27
ATOM     26  C   UNL     1      -1.315   0.937   2.799  0.00  0.00    +0.004 C 
ATOM     27  C   UNL     1      -2.149  -0.126   3.517  0.00  0.00    +0.002 C 
ENDBRANCH  24  27
ENDBRANCH  23  24
BRANCH  23  28
ATOM     28  C   UNL     1      -0.579  -3.195   1.856  0.00  0.00    +0.328 C 
ATOM     29  O   UNL     1      -1.117  -4.275   1.812  0.00  0.00    -0.249 OA
BRANCH  28  30
ATOM     30  O   UNL     1       0.759  -3.109   1.804  0.00  0.00    -0.467 OA
ATOM     31  C   UNL     1       1.480  -4.324   1.591  0.00  0.00    +0.280 C 
ENDBRANCH  28  30
ENDBRANCH  23  28
ENDBRANCH   1  23
TORSDOF 6
