REMARK  Name = ZINC25041748
REMARK  9 active torsions:
REMARK  status: ('A' for Active; 'I' for Inactive)
REMARK    1  A    between atoms: C_1  and  C_2
REMARK    2  A    between atoms: C_2  and  C_4
REMARK    3  A    between atoms: C_2  and  S_14
REMARK    4  A    between atoms: N_10  and  C_11
REMARK    5  A    between atoms: N_10  and  C_12
REMARK    6  A    between atoms: S_14  and  C_15
REMARK    7  A    between atoms: N_20  and  C_21
REMARK    8  A    between atoms: C_24  and  O_27
REMARK    9  A    between atoms: O_27  and  C_28
REMARK                            x       y       z     vdW  Elec       q    Type
REMARK                         _______ _______ _______ _____ _____    ______ ____
ROOT
ATOM      1  C   UNL     1       0.444  -0.858   2.332  0.00  0.00    +0.161 A 
ATOM      2  N   UNL     1      -0.353  -1.560   1.549  0.00  0.00    -0.133 NA
ATOM      3  N   UNL     1      -0.545  -2.900   1.794  0.00  0.00    -0.125 NA
ATOM      4  C   UNL     1       0.059  -3.474   2.816  0.00  0.00    +0.187 A 
ATOM      5  S   UNL     1       0.970  -2.099   3.503  0.00  0.00    -0.024 S 
ATOM      6  N   UNL     1       0.004  -4.795   3.244  0.00  0.00    -0.292 N 
ATOM      7  H   UNL     1       0.496  -5.091   4.182  0.00  0.00    +0.154 HD
ENDROOT
BRANCH   6   8
ATOM      8  C   UNL     1      -0.680  -5.750   2.482  0.00  0.00    +0.033 A 
ATOM      9  C   UNL     1      -1.205  -6.881   3.093  0.00  0.00    +0.027 A 
ATOM     10  C   UNL     1      -1.883  -7.819   2.341  0.00  0.00    +0.048 A 
ATOM     11  C   UNL     1      -2.031  -7.638   0.973  0.00  0.00    +0.130 A 
ATOM     12  C   UNL     1      -1.502  -6.511   0.361  0.00  0.00    +0.048 A 
ATOM     13  C   UNL     1      -0.828  -5.569   1.113  0.00  0.00    +0.027 A 
BRANCH  11  14
ATOM     14  O   UNL     1      -2.695  -8.565   0.232  0.00  0.00    -0.406 OA
BRANCH  14  15
ATOM     15  C   UNL     1      -3.214  -9.700   0.928  0.00  0.00    +0.575 C 
ATOM     16  F   UNL     1      -4.124  -9.275   1.901  0.00  0.00    -0.133 F 
ATOM     17  F   UNL     1      -3.862 -10.546   0.021  0.00  0.00    -0.133 F 
ATOM     18  F   UNL     1      -2.164 -10.391   1.541  0.00  0.00    -0.133 F 
ENDBRANCH  14  15
ENDBRANCH  11  14
ENDBRANCH   6   8
BRANCH   1  19
ATOM     19  S   UNL     1       0.869   0.850   2.248  0.00  0.00    -0.086 S 
BRANCH  19  21
ATOM     20  C   UNL     1       0.491   0.781  -0.460  0.00  0.00    +0.027 C 
ATOM     21  C   UNL     1      -0.043   1.459   0.803  0.00  0.00    +0.118 C 
BRANCH  21  22
ATOM     22  C   UNL     1       0.138   2.951   0.687  0.00  0.00    +0.149 A 
ATOM     23  N   UNL     1       1.337   3.484   0.842  0.00  0.00    -0.198 NA
ATOM     24  C   UNL     1       1.501   4.800   0.736  0.00  0.00    +0.217 A 
ATOM     25  N   UNL     1       0.456   5.580   0.484  0.00  0.00    -0.181 NA
ATOM     26  C   UNL     1      -0.750   5.041   0.334  0.00  0.00    +0.222 A 
ATOM     27  N   UNL     1      -0.905   3.723   0.437  0.00  0.00    -0.198 NA
ATOM     28  N   UNL     1      -1.839   5.847   0.072  0.00  0.00    -0.306 N 
ATOM     29  C   UNL     1      -3.167   5.252  -0.094  0.00  0.00    +0.132 C 
ATOM     30  C   UNL     1      -1.667   7.298  -0.041  0.00  0.00    +0.132 C 
ATOM     31  N   UNL     1       2.755   5.355   0.893  0.00  0.00    -0.327 N 
ATOM     32  H   UNL     1       2.890   6.443   0.805  0.00  0.00    +0.145 HD
ATOM     33  H   UNL     1       3.620   4.709   1.105  0.00  0.00    +0.145 HD
ENDBRANCH  21  22
ENDBRANCH  19  21
ENDBRANCH   1  19
TORSDOF 6
