REMARK  Name = ZINC07660677
REMARK  9 active torsions:
REMARK  status: ('A' for Active; 'I' for Inactive)
REMARK    1  A    between atoms: C_1  and  C_2
REMARK    2  A    between atoms: C_2  and  C_3
REMARK    3  A    between atoms: C_2  and  C_4
REMARK    4  A    between atoms: C_2  and  C_5
REMARK    5  A    between atoms: C_14  and  O_28
REMARK    6  A    between atoms: C_16  and  C_19
REMARK    7  A    between atoms: C_22  and  O_26
REMARK    8  A    between atoms: C_23  and  O_25
REMARK    9  A    between atoms: O_26  and  C_27
REMARK                            x       y       z     vdW  Elec       q    Type
REMARK                         _______ _______ _______ _____ _____    ______ ____
ROOT
ATOM      1  C   UNL     1       0.718  -0.497  -1.257  0.00  0.00    -0.000 C 
ATOM      2  C   UNL     1       0.746  -2.029  -1.264  0.00  0.00    +0.009 C 
ATOM      3  C   UNL     1       1.234  -2.534  -2.624  0.00  0.00    +0.037 C 
ATOM      4  C   UNL     1       2.549  -1.844  -2.958  0.00  0.00    -0.023 A 
ATOM      5  C   UNL     1       2.922  -0.707  -2.327  0.00  0.00    -0.004 A 
ATOM      6  S   UNL     1       4.491  -0.289  -3.038  0.00  0.00    -0.078 S 
ATOM      7  C   UNL     1       4.651  -1.547  -4.106  0.00  0.00    +0.080 A 
ATOM      8  C   UNL     1       3.496  -2.321  -3.949  0.00  0.00    +0.068 A 
ATOM      9  C   UNL     1       3.358  -3.527  -4.806  0.00  0.00    +0.220 C 
ATOM     10  N   UNL     1       4.413  -3.930  -5.460  0.00  0.00    -0.223 NA
ATOM     11  C   UNL     1       5.731  -3.316  -5.360  0.00  0.00    +0.224 C 
ATOM     12  N   UNL     1       5.640  -1.889  -5.001  0.00  0.00    -0.313 N 
ATOM     13  C   UNL     1       2.161   0.028  -1.267  0.00  0.00    +0.046 C 
ATOM     14  H   UNL     1       6.244  -1.228  -5.374  0.00  0.00    +0.149 HD
ENDROOT
BRANCH  11  15
ATOM     15  C   UNL     1       6.530  -4.037  -4.305  0.00  0.00    -0.002 A 
ATOM     16  C   UNL     1       7.487  -3.354  -3.578  0.00  0.00    +0.011 A 
ATOM     17  C   UNL     1       8.223  -4.011  -2.609  0.00  0.00    +0.050 A 
ATOM     18  C   UNL     1       8.002  -5.357  -2.365  0.00  0.00    +0.161 A 
ATOM     19  C   UNL     1       7.039  -6.044  -3.097  0.00  0.00    +0.159 A 
ATOM     20  C   UNL     1       6.301  -5.378  -4.063  0.00  0.00    +0.056 A 
BRANCH  19  21
ATOM     21  O   UNL     1       6.818  -7.365  -2.861  0.00  0.00    -0.503 OA
ATOM     22  H   UNL     1       6.145  -7.538  -2.189  0.00  0.00    +0.292 HD
ENDBRANCH  19  21
BRANCH  18  23
ATOM     23  O   UNL     1       8.725  -6.005  -1.413  0.00  0.00    -0.491 OA
ATOM     24  C   UNL     1       9.697  -5.236  -0.702  0.00  0.00    +0.277 C 
ENDBRANCH  18  23
ENDBRANCH  11  15
BRANCH   1  26
ATOM     25  C   UNL     1      -0.019   1.526   0.010  0.00  0.00    +0.011 C 
ATOM     26  C   UNL     1       0.002  -0.004   0.002  0.00  0.00    -0.035 C 
ATOM     27  C   UNL     1       0.742  -0.511   1.242  0.00  0.00    +0.011 C 
ATOM     28  C   UNL     1      -1.433  -0.534   0.013  0.00  0.00    +0.011 C 
ENDBRANCH   1  26
BRANCH   9  29
ATOM     29  O   UNL     1       2.180  -4.186  -4.903  0.00  0.00    -0.492 OA
ATOM     30  H   UNL     1       2.207  -4.956  -5.488  0.00  0.00    +0.294 HD
ENDBRANCH   9  29
TORSDOF 5
