REMARK  Name = ZINC08395191
REMARK  5 active torsions:
REMARK  status: ('A' for Active; 'I' for Inactive)
REMARK    1  A    between atoms: C_4  and  C_7
REMARK    2  A    between atoms: C_8  and  C_28
REMARK    3  A    between atoms: C_9  and  C_21
REMARK    4  A    between atoms: C_15  and  C_17
REMARK    5  A    between atoms: C_24  and  O_27
REMARK                            x       y       z     vdW  Elec       q    Type
REMARK                         _______ _______ _______ _____ _____    ______ ____
ROOT
ATOM      1  C   UNL     1       3.697  -0.686  -0.037  0.00  0.00    +0.090 C 
ATOM      2  C   UNL     1       3.704  -2.070   0.055  0.00  0.00    +0.082 C 
ATOM      3  C   UNL     1       5.059  -2.755   0.033  0.00  0.00    +0.171 C 
ATOM      4  N   UNL     1       6.227  -1.876  -0.084  0.00  0.00    -0.186 N 
ATOM      5  C   UNL     1       6.039  -0.516  -0.166  0.00  0.00    +0.239 C 
ATOM      6  N   UNL     1       4.831   0.012  -0.146  0.00  0.00    -0.212 NA
ATOM      7  N   UNL     1       7.261   0.047  -0.265  0.00  0.00    -0.191 NA
ATOM      8  C   UNL     1       8.188  -0.873  -0.250  0.00  0.00    +0.243 C 
ATOM      9  N   UNL     1       7.606  -2.097  -0.139  0.00  0.00    -0.121 NA
ENDROOT
BRANCH   1  13
ATOM     10  C   UNL     1      -0.016   1.380   0.010  0.00  0.00    +0.000 A 
ATOM     11  C   UNL     1       1.017   1.801   0.828  0.00  0.00    +0.001 A 
ATOM     12  C   UNL     1       2.225   1.135   0.817  0.00  0.00    +0.010 A 
ATOM     13  C   UNL     1       2.403   0.034  -0.021  0.00  0.00    +0.001 A 
ATOM     14  C   UNL     1       1.357  -0.387  -0.843  0.00  0.00    +0.010 A 
ATOM     15  C   UNL     1       0.154   0.288  -0.823  0.00  0.00    +0.001 A 
ENDBRANCH   1  13
BRANCH   3  16
ATOM     16  C   UNL     1       5.203  -3.552   1.304  0.00  0.00    -0.020 A 
ATOM     17  C   UNL     1       5.556  -2.917   2.480  0.00  0.00    +0.009 A 
ATOM     18  C   UNL     1       5.689  -3.645   3.647  0.00  0.00    +0.046 A 
ATOM     19  C   UNL     1       5.467  -5.014   3.638  0.00  0.00    +0.117 A 
ATOM     20  C   UNL     1       5.112  -5.649   2.456  0.00  0.00    +0.046 A 
ATOM     21  C   UNL     1       4.976  -4.916   1.293  0.00  0.00    +0.009 A 
BRANCH  19  22
ATOM     22  O   UNL     1       5.598  -5.733   4.784  0.00  0.00    -0.507 OA
ATOM     23  H   UNL     1       4.782  -5.804   5.298  0.00  0.00    +0.292 HD
ENDBRANCH  19  22
ENDBRANCH   3  16
BRANCH   8  24
ATOM     24  C   UNL     1       9.670  -0.618  -0.341  0.00  0.00    +0.451 C 
ATOM     25  F   UNL     1       9.901   0.758  -0.445  0.00  0.00    -0.163 F 
ATOM     26  F   UNL     1      10.300  -1.112   0.806  0.00  0.00    -0.163 F 
ATOM     27  F   UNL     1      10.186  -1.263  -1.470  0.00  0.00    -0.163 F 
ENDBRANCH   8  24
BRANCH   2  28
ATOM     28  C   UNL     1       2.489  -2.819   0.167  0.00  0.00    +0.099 C 
ATOM     29  N   UNL     1       1.524  -3.413   0.255  0.00  0.00    -0.191 NA
ENDBRANCH   2  28
TORSDOF 5
