REMARK  Name = ZINC64781165
REMARK  4 active torsions:
REMARK  status: ('A' for Active; 'I' for Inactive)
REMARK    1  A    between atoms: C_5  and  C_7
REMARK    2  A    between atoms: C_9  and  C_12
REMARK    3  A    between atoms: N_14  and  C_15
REMARK    4  A    between atoms: C_17  and  N_22
REMARK                            x       y       z     vdW  Elec       q    Type
REMARK                         _______ _______ _______ _____ _____    ______ ____
ROOT
ATOM      1  C   UNL     1      -0.584  -5.301  -0.026  0.00  0.00    +0.267 C 
ATOM      2  O   UNL     1      -0.328  -6.490  -0.037  0.00  0.00    -0.268 OA
ATOM      3  N   UNL     1      -1.867  -4.887  -0.024  0.00  0.00    -0.278 N 
ATOM      4  H   UNL     1      -2.072  -3.942   0.050  0.00  0.00    +0.155 HD
ENDROOT
BRANCH   3   5
ATOM      5  C   UNL     1      -2.904  -5.822  -0.130  0.00  0.00    +0.071 A 
ATOM      6  C   UNL     1      -2.773  -7.075   0.453  0.00  0.00    +0.059 A 
ATOM      7  C   UNL     1      -3.798  -7.995   0.347  0.00  0.00    +0.128 A 
ATOM      8  C   UNL     1      -4.954  -7.670  -0.339  0.00  0.00    +0.035 A 
ATOM      9  C   UNL     1      -5.089  -6.424  -0.922  0.00  0.00    +0.042 A 
ATOM     10  C   UNL     1      -4.069  -5.495  -0.815  0.00  0.00    +0.145 A 
ATOM     11  F   UNL     1      -4.203  -4.275  -1.380  0.00  0.00    -0.204 F 
BRANCH   7  12
ATOM     12  N   UNL     1      -3.659  -9.331   0.969  0.00  0.00    +0.056 N 
ATOM     13  O   UNL     1      -2.648  -9.616   1.568  0.00  0.00    -0.126 OA
ATOM     14  O   UNL     1      -4.555 -10.137   0.876  0.00  0.00    -0.126 OA
ENDBRANCH   7  12
ENDBRANCH   3   5
BRANCH   1  17
ATOM     15  C   UNL     1       1.249  -2.163   0.011  0.00  0.00    +0.112 A 
ATOM     16  N   UNL     1       0.240  -3.014  -0.000  0.00  0.00    -0.234 NA
ATOM     17  C   UNL     1       0.508  -4.313  -0.013  0.00  0.00    +0.133 A 
ATOM     18  C   UNL     1       1.815  -4.722  -0.015  0.00  0.00    +0.080 A 
ATOM     19  S   UNL     1       2.654  -3.263  -0.006  0.00  0.00    -0.075 S 
BRANCH  15  24
ATOM     20  C   UNL     1      -0.014   1.374   0.050  0.00  0.00    +0.001 A 
ATOM     21  C   UNL     1       1.173   2.086   0.054  0.00  0.00    +0.003 A 
ATOM     22  C   UNL     1       2.385   1.421   0.044  0.00  0.00    +0.039 A 
ATOM     23  C   UNL     1       2.418   0.039   0.030  0.00  0.00    +0.133 A 
ATOM     24  C   UNL     1       1.223  -0.684   0.026  0.00  0.00    +0.042 A 
ATOM     25  C   UNL     1       0.004  -0.005   0.037  0.00  0.00    +0.013 A 
ATOM     26  F   UNL     1       3.603  -0.610   0.020  0.00  0.00    -0.205 F 
ENDBRANCH  15  24
ENDBRANCH   1  17
TORSDOF 4
