REMARK  Name = ZINC40385437
REMARK  7 active torsions:
REMARK  status: ('A' for Active; 'I' for Inactive)
REMARK    1  A    between atoms: C_1  and  C_2
REMARK    2  A    between atoms: C_2  and  C_3
REMARK    3  A    between atoms: C_12  and  C_13
REMARK    4  A    between atoms: C_13  and  C_15
REMARK    5  A    between atoms: C_13  and  C_27
REMARK    6  A    between atoms: C_15  and  C_16
REMARK    7  A    between atoms: C_21  and  C_24
REMARK                            x       y       z     vdW  Elec       q    Type
REMARK                         _______ _______ _______ _____ _____    ______ ____
ROOT
ATOM      1  C   UNL     1       5.278  -1.492  -3.042  0.00  0.00    +0.060 C 
ENDROOT
BRANCH   1  11
ATOM      2  C   UNL     1       0.707  -0.490  -1.238  0.00  0.00    -0.024 A 
ATOM      3  C   UNL     1      -0.018  -0.817  -2.363  0.00  0.00    +0.005 A 
ATOM      4  C   UNL     1       0.620  -1.265  -3.511  0.00  0.00    +0.001 A 
ATOM      5  C   UNL     1       1.980  -1.391  -3.545  0.00  0.00    +0.010 A 
ATOM      6  C   UNL     1       2.735  -1.065  -2.417  0.00  0.00    +0.004 A 
ATOM      7  C   UNL     1       2.094  -0.605  -1.252  0.00  0.00    +0.050 A 
ATOM      8  N   UNL     1       3.075  -0.360  -0.318  0.00  0.00    -0.360 N 
ATOM      9  H   UNL     1       2.919  -0.035   0.582  0.00  0.00    +0.165 HD
ATOM     10  C   UNL     1       4.304  -0.641  -0.850  0.00  0.00    +0.088 A 
ATOM     11  C   UNL     1       4.167  -1.079  -2.112  0.00  0.00    -0.015 A 
BRANCH   2  13
ATOM     12  C   UNL     1      -0.019   1.526   0.010  0.00  0.00    +0.009 C 
ATOM     13  C   UNL     1       0.002  -0.004   0.002  0.00  0.00    +0.034 C 
ENDBRANCH   2  13
ENDBRANCH   1  11
BRANCH   1  14
ATOM     14  C   UNL     1       6.222  -0.335  -3.243  0.00  0.00    -0.039 A 
ATOM     15  C   UNL     1       6.885   0.212  -2.160  0.00  0.00    +0.005 A 
ATOM     16  C   UNL     1       7.751   1.274  -2.344  0.00  0.00    +0.020 A 
ATOM     17  C   UNL     1       7.954   1.790  -3.612  0.00  0.00    +0.041 A 
ATOM     18  C   UNL     1       7.290   1.242  -4.695  0.00  0.00    +0.020 A 
ATOM     19  C   UNL     1       6.428   0.177  -4.511  0.00  0.00    +0.005 A 
ATOM     20 CL   UNL     1       9.040   3.123  -3.843  0.00  0.00    -0.084 Cl
ENDBRANCH   1  14
BRANCH   1  21
ATOM     21  C   UNL     1       6.040  -2.672  -2.435  0.00  0.00    +0.109 C 
BRANCH  21  22
ATOM     22  C   UNL     1       7.071  -3.164  -3.418  0.00  0.00    +0.216 C 
ATOM     23  O   UNL     1       7.185  -2.624  -4.498  0.00  0.00    -0.276 OA
ATOM     24  N   UNL     1       7.866  -4.203  -3.097  0.00  0.00    -0.301 N 
ATOM     25  C   UNL     1       7.736  -4.871  -1.795  0.00  0.00    +0.108 C 
ATOM     26  C   UNL     1       9.108  -4.898  -1.114  0.00  0.00    +0.032 C 
ATOM     27  C   UNL     1      10.127  -5.547  -2.054  0.00  0.00    +0.078 C 
ATOM     28  C   UNL     1      10.239  -4.719  -3.337  0.00  0.00    +0.032 C 
ATOM     29  C   UNL     1       8.876  -4.694  -4.045  0.00  0.00    +0.108 C 
BRANCH  27  30
ATOM     30  C   UNL     1      11.471  -5.605  -1.375  0.00  0.00    +0.214 C 
ATOM     31  O   UNL     1      11.601  -5.171  -0.250  0.00  0.00    -0.276 OA
ATOM     32  N   UNL     1      12.528  -6.140  -2.018  0.00  0.00    -0.329 N 
ATOM     33  H   UNL     1      12.424  -6.487  -2.917  0.00  0.00    +0.145 HD
ATOM     34  H   UNL     1      13.393  -6.178  -1.581  0.00  0.00    +0.145 HD
ENDBRANCH  27  30
ENDBRANCH  21  22
ENDBRANCH   1  21
TORSDOF 6
