REMARK  Name = ZINC41153053
REMARK  3 active torsions:
REMARK  status: ('A' for Active; 'I' for Inactive)
REMARK    1  A    between atoms: C_6  and  C_7
REMARK    2  A    between atoms: C_9  and  C_12
REMARK    3  A    between atoms: C_12  and  N_17
REMARK                            x       y       z     vdW  Elec       q    Type
REMARK                         _______ _______ _______ _____ _____    ______ ____
ROOT
ATOM      1  C   UNL     1      -1.266  -0.763   0.011  0.00  0.00    +0.258 A 
ATOM      2  N   UNL     1      -1.382  -2.072   0.010  0.00  0.00    -0.193 NA
ATOM      3  C   UNL     1      -2.672  -2.416   0.020  0.00  0.00    +0.161 A 
ATOM      4  N   UNL     1      -3.401  -1.335   0.027  0.00  0.00    -0.062 NA
ATOM      5  O   UNL     1      -2.502  -0.236   0.026  0.00  0.00    -0.333 OA
ENDROOT
BRANCH   1  11
ATOM      6  C   UNL     1      -0.017   1.392   0.010  0.00  0.00    +0.014 A 
ATOM      7  C   UNL     1       1.170   2.095   0.002  0.00  0.00    +0.016 A 
ATOM      8  C   UNL     1       2.378   1.419  -0.013  0.00  0.00    +0.018 A 
ATOM      9  C   UNL     1       2.403   0.034  -0.021  0.00  0.00    +0.016 A 
ATOM     10  C   UNL     1       1.224  -0.680  -0.013  0.00  0.00    +0.014 A 
ATOM     11  C   UNL     1       0.002  -0.004   0.002  0.00  0.00    +0.039 A 
ATOM     12 BR   UNL     1       4.000   2.390  -0.024  0.00  0.00    -0.050 Br
ENDBRANCH   1  11
BRANCH   3  13
ATOM     13  C   UNL     1      -3.201  -3.827   0.022  0.00  0.00    -0.006 C 
ATOM     14  C   UNL     1      -2.777  -4.552  -1.271  0.00  0.00    -0.005 C 
ATOM     15  C   UNL     1      -3.998  -5.436  -1.629  0.00  0.00    -0.001 C 
ATOM     16  C   UNL     1      -5.197  -4.531  -1.252  0.00  0.00    -0.001 C 
ATOM     17  C   UNL     1      -4.740  -3.813   0.035  0.00  0.00    -0.005 C 
BRANCH  13  18
ATOM     18  N   UNL     1      -2.695  -4.551   1.196  0.00  0.00    +0.387 N 
ATOM     19  H   UNL     1      -3.006  -4.089   2.037  0.00  0.00    -0.089 HD
ATOM     20  H   UNL     1      -3.045  -5.498   1.183  0.00  0.00    -0.089 HD
ATOM     21  H   UNL     1      -1.686  -4.565   1.173  0.00  0.00    -0.089 HD
ENDBRANCH  13  18
ENDBRANCH   3  13
TORSDOF 3
