REMARK  Name = ZINC49388490
REMARK  7 active torsions:
REMARK  status: ('A' for Active; 'I' for Inactive)
REMARK    1  A    between atoms: C_1  and  C_2
REMARK    2  A    between atoms: C_5  and  N_12
REMARK    3  A    between atoms: C_8  and  C_10
REMARK    4  A    between atoms: C_8  and  C_11
REMARK    5  A    between atoms: C_13  and  C_15
REMARK    6  A    between atoms: C_15  and  N_16
REMARK    7  A    between atoms: N_19  and  C_22
REMARK                            x       y       z     vdW  Elec       q    Type
REMARK                         _______ _______ _______ _____ _____    ______ ____
ROOT
ATOM      1  N   UNL     1      -3.334  -2.891  -3.341  0.00  0.00    -0.275 N 
ATOM      2  C   UNL     1      -4.097  -1.683  -3.689  0.00  0.00    +0.129 C 
ATOM      3  C   UNL     1      -4.526  -1.926  -5.149  0.00  0.00    +0.134 C 
ATOM      4  N   UNL     1      -3.959  -3.245  -5.468  0.00  0.00    -0.254 N 
ATOM      5  C   UNL     1      -3.302  -3.712  -4.399  0.00  0.00    +0.310 C 
ATOM      6  O   UNL     1      -2.730  -4.785  -4.388  0.00  0.00    -0.252 OA
ENDROOT
BRANCH   4   7
ATOM      7  C   UNL     1      -4.082  -3.906  -6.698  0.00  0.00    +0.041 A 
ATOM      8  C   UNL     1      -4.671  -3.261  -7.777  0.00  0.00    +0.027 A 
ATOM      9  C   UNL     1      -4.794  -3.911  -8.990  0.00  0.00    +0.051 A 
ATOM     10  C   UNL     1      -4.328  -5.208  -9.133  0.00  0.00    +0.166 A 
ATOM     11  C   UNL     1      -3.736  -5.858  -8.053  0.00  0.00    +0.168 A 
ATOM     12  C   UNL     1      -3.611  -5.204  -6.838  0.00  0.00    +0.073 A 
ATOM     13  O   UNL     1      -3.366  -7.112  -8.447  0.00  0.00    -0.453 OA
ATOM     14  C   UNL     1      -4.103  -7.368  -9.656  0.00  0.00    +0.466 C 
ATOM     15  O   UNL     1      -4.328  -6.056 -10.205  0.00  0.00    -0.453 OA
ENDBRANCH   4   7
BRANCH   1  16
ATOM     16  C   UNL     1      -2.704  -3.152  -2.044  0.00  0.00    +0.205 C 
BRANCH  16  18
ATOM     17  N   UNL     1      -0.521  -2.740  -0.957  0.00  0.00    -0.311 N 
ATOM     18  C   UNL     1      -1.297  -2.613  -2.051  0.00  0.00    +0.231 C 
ATOM     19  O   UNL     1      -0.863  -2.064  -3.042  0.00  0.00    -0.274 OA
ATOM     20  H   UNL     1      -0.868  -3.179  -0.165  0.00  0.00    +0.149 HD
BRANCH  17  24
ATOM     21  C   UNL     1       1.935  -3.581   2.468  0.00  0.00    +0.007 C 
ATOM     22  C   UNL     1       1.391  -3.608   1.038  0.00  0.00    -0.012 C 
ATOM     23  C   UNL     1       1.391  -2.189   0.466  0.00  0.00    +0.025 C 
ATOM     24  C   UNL     1       0.847  -2.216  -0.964  0.00  0.00    +0.074 C 
ATOM     25  C   UNL     1       1.733  -3.114  -1.830  0.00  0.00    +0.028 C 
ATOM     26  C   UNL     1       1.734  -4.533  -1.258  0.00  0.00    -0.033 C 
ATOM     27  C   UNL     1       2.277  -4.506   0.172  0.00  0.00    +0.009 C 
ATOM     28  C   UNL     1       2.620  -5.431  -2.124  0.00  0.00    +0.011 C 
ATOM     29  C   UNL     1       0.305  -5.081  -1.250  0.00  0.00    +0.011 C 
ENDBRANCH  17  24
ENDBRANCH  16  18
ENDBRANCH   1  16
TORSDOF 4
