REMARK  Name = ZINC65182817
REMARK  11 active torsions:
REMARK  status: ('A' for Active; 'I' for Inactive)
REMARK    1  A    between atoms: C_1  and  C_2
REMARK    2  A    between atoms: C_7  and  C_13
REMARK    3  A    between atoms: C_9  and  C_12
REMARK    4  A    between atoms: C_16  and  C_19
REMARK    5  A    between atoms: C_19  and  C_20
REMARK    6  A    between atoms: C_20  and  N_21
REMARK    7  A    between atoms: N_21  and  C_22
REMARK    8  A    between atoms: C_23  and  C_25
REMARK    9  A    between atoms: C_28  and  O_32
REMARK   10  A    between atoms: C_30  and  C_31
REMARK   11  A    between atoms: O_32  and  C_33
REMARK                            x       y       z     vdW  Elec       q    Type
REMARK                         _______ _______ _______ _____ _____    ______ ____
ROOT
ATOM      1  C   UNL     1       1.460  -5.093   2.123  0.00  0.00    +0.318 C 
ATOM      2  N   UNL     1       1.713  -6.368   1.431  0.00  0.00    -0.291 N 
ATOM      3  C   UNL     1       1.502  -7.368   2.351  0.00  0.00    +0.139 C 
ATOM      4  N   UNL     1       1.161  -6.894   3.493  0.00  0.00    -0.072 NA
ATOM      5  O   UNL     1       1.105  -5.477   3.461  0.00  0.00    -0.367 OA
ATOM      6  H   UNL     1       1.977  -6.480   0.505  0.00  0.00    +0.151 HD
ENDROOT
BRANCH   1  13
ATOM      7  C   UNL     1       0.512   1.529  -0.136  0.00  0.00    +0.044 C 
ATOM      8  C   UNL     1       0.541   0.023  -0.101  0.00  0.00    -0.050 A 
ATOM      9  C   UNL     1       0.818  -0.682  -1.281  0.00  0.00    +0.005 A 
ATOM     10  C   UNL     1       0.863  -2.030  -1.331  0.00  0.00    +0.026 A 
ATOM     11  C   UNL     1       0.624  -2.801  -0.161  0.00  0.00    +0.043 A 
ATOM     12  N   UNL     1       0.610  -4.096   0.043  0.00  0.00    -0.373 N 
ATOM     13  C   UNL     1       0.304  -4.344   1.457  0.00  0.00    +0.168 C 
ATOM     14  C   UNL     1       0.133  -2.981   2.089  0.00  0.00    -0.036 C 
ATOM     15  C   UNL     1       0.329  -2.081   1.098  0.00  0.00    -0.001 A 
ATOM     16  C   UNL     1       0.306  -0.614   1.069  0.00  0.00    +0.013 A 
ATOM     17  C   UNL     1      -0.193  -2.685   3.530  0.00  0.00    +0.042 C 
ATOM     18  H   UNL     1       0.774  -4.777  -0.628  0.00  0.00    +0.160 HD
ENDBRANCH   1  13
BRANCH   3  19
ATOM     19  C   UNL     1       1.653  -8.838   2.054  0.00  0.00    +0.094 C 
BRANCH  19  20
ATOM     20  C   UNL     1       1.339  -9.648   3.314  0.00  0.00    +0.115 C 
BRANCH  20  21
ATOM     21  N   UNL     1       1.486 -11.076   3.026  0.00  0.00    -0.300 N 
ATOM     22  C   UNL     1       2.780 -11.734   3.223  0.00  0.00    +0.132 C 
ATOM     23  C   UNL     1       0.431 -11.786   2.579  0.00  0.00    +0.247 C 
ATOM     24  O   UNL     1      -0.615 -11.222   2.321  0.00  0.00    -0.270 OA
BRANCH  23  25
ATOM     25  C   UNL     1       0.544 -13.247   2.404  0.00  0.00    +0.040 A 
ATOM     26  C   UNL     1       1.089 -14.034   3.422  0.00  0.00    +0.017 A 
ATOM     27  C   UNL     1       1.193 -15.397   3.255  0.00  0.00    +0.046 A 
ATOM     28  C   UNL     1       0.757 -15.990   2.075  0.00  0.00    +0.120 A 
ATOM     29  C   UNL     1       0.215 -15.210   1.061  0.00  0.00    +0.049 A 
ATOM     30  C   UNL     1       0.103 -13.847   1.222  0.00  0.00    -0.035 A 
ATOM     31  C   UNL     1      -0.491 -13.004   0.124  0.00  0.00    +0.044 C 
BRANCH  28  32
ATOM     32  O   UNL     1       0.862 -17.333   1.914  0.00  0.00    -0.495 OA
ATOM     33  C   UNL     1       1.429 -18.074   2.997  0.00  0.00    +0.277 C 
ENDBRANCH  28  32
ENDBRANCH  23  25
ENDBRANCH  20  21
ENDBRANCH  19  20
ENDBRANCH   3  19
TORSDOF 6
