REMARK  Name = ZINC65734153
REMARK  15 active torsions:
REMARK  status: ('A' for Active; 'I' for Inactive)
REMARK    1  A    between atoms: C_2  and  C_3
REMARK    2  A    between atoms: C_3  and  O_4
REMARK    3  A    between atoms: O_4  and  C_5
REMARK    4  A    between atoms: N_7  and  C_8
REMARK    5  A    between atoms: C_10  and  O_39
REMARK    6  A    between atoms: C_12  and  O_22
REMARK    7  A    between atoms: C_14  and  C_20
REMARK    8  A    between atoms: C_17  and  O_19
REMARK    9  A    between atoms: C_20  and  O_21
REMARK   10  A    between atoms: O_22  and  C_23
REMARK   11  A    between atoms: C_25  and  O_38
REMARK   12  A    between atoms: C_27  and  O_37
REMARK   13  A    between atoms: C_29  and  O_36
REMARK   14  A    between atoms: C_31  and  C_34
REMARK   15  A    between atoms: C_34  and  O_35
REMARK                            x       y       z     vdW  Elec       q    Type
REMARK                         _______ _______ _______ _____ _____    ______ ____
ROOT
ATOM      1  C   UNL     1      -3.488  -4.497  -2.083  0.00  0.00    +0.163 C 
ATOM      2  C   UNL     1      -3.515  -5.122  -3.481  0.00  0.00    +0.171 C 
ATOM      3  C   UNL     1      -4.708  -6.077  -3.578  0.00  0.00    +0.183 C 
ATOM      4  C   UNL     1      -4.599  -7.131  -2.472  0.00  0.00    +0.178 C 
ATOM      5  O   UNL     1      -4.547  -6.481  -1.200  0.00  0.00    -0.341 OA
ATOM      6  C   UNL     1      -3.427  -5.610  -1.034  0.00  0.00    +0.271 C 
ENDROOT
BRANCH   1   9
ATOM      7  C   UNL     1      -2.308  -2.622  -1.067  0.00  0.00    +0.401 C 
ATOM      8  O   UNL     1      -3.286  -2.419  -0.376  0.00  0.00    -0.226 OA
ATOM      9  N   UNL     1      -2.308  -3.637  -1.954  0.00  0.00    -0.271 N 
ATOM     10  H   UNL     1      -1.527  -3.799  -2.506  0.00  0.00    +0.153 HD
BRANCH   7  11
ATOM     11  O   UNL     1      -1.224  -1.832  -0.949  0.00  0.00    -0.446 OA
BRANCH  11  12
ATOM     12  C   UNL     1      -1.293  -0.775   0.010  0.00  0.00    +0.261 C 
BRANCH  12  14
ATOM     13  C   UNL     1      -0.016   1.306   0.009  0.00  0.00    +0.007 C 
ATOM     14  C   UNL     1       0.002  -0.004   0.002  0.00  0.00    +0.006 C 
ENDBRANCH  12  14
ENDBRANCH  11  12
ENDBRANCH   7  11
ENDBRANCH   1   9
BRANCH   6  15
ATOM     15  O   UNL     1      -2.218  -6.354  -1.199  0.00  0.00    -0.365 OA
ATOM     16  H   UNL     1      -2.112  -7.078  -0.566  0.00  0.00    +0.213 HD
ENDBRANCH   6  15
BRANCH   2  17
ATOM     17  O   UNL     1      -2.303  -5.844  -3.705  0.00  0.00    -0.387 OA
ATOM     18  H   UNL     1      -1.505  -5.300  -3.653  0.00  0.00    +0.210 HD
ENDBRANCH   2  17
BRANCH   4  19
ATOM     19  C   UNL     1      -5.819  -8.053  -2.525  0.00  0.00    +0.190 C 
BRANCH  19  20
ATOM     20  O   UNL     1      -5.662  -9.105  -1.571  0.00  0.00    -0.392 OA
ATOM     21  H   UNL     1      -6.400  -9.730  -1.549  0.00  0.00    +0.210 HD
ENDBRANCH  19  20
ENDBRANCH   4  19
BRANCH   3  22
ATOM     22  O   UNL     1      -5.923  -5.341  -3.420  0.00  0.00    -0.340 OA
BRANCH  22  23
ATOM     23  C   UNL     1      -7.036  -5.900  -4.121  0.00  0.00    +0.282 C 
ATOM     24  C   UNL     1      -8.302  -5.108  -3.783  0.00  0.00    +0.201 C 
ATOM     25  C   UNL     1      -8.132  -3.662  -4.258  0.00  0.00    +0.179 C 
ATOM     26  C   UNL     1      -7.830  -3.661  -5.759  0.00  0.00    +0.177 C 
ATOM     27  C   UNL     1      -6.582  -4.509  -6.021  0.00  0.00    +0.178 C 
ATOM     28  O   UNL     1      -6.796  -5.833  -5.528  0.00  0.00    -0.341 OA
BRANCH  26  29
ATOM     29  O   UNL     1      -7.599  -2.321  -6.199  0.00  0.00    -0.386 OA
ATOM     30  H   UNL     1      -8.348  -1.727  -6.060  0.00  0.00    +0.210 HD
ENDBRANCH  26  29
BRANCH  25  31
ATOM     31  O   UNL     1      -7.051  -3.050  -3.550  0.00  0.00    -0.386 OA
ATOM     32  H   UNL     1      -7.174  -3.022  -2.592  0.00  0.00    +0.210 HD
ENDBRANCH  25  31
BRANCH  24  33
ATOM     33  O   UNL     1      -9.425  -5.699  -4.440  0.00  0.00    -0.384 OA
ATOM     34  H   UNL     1      -9.589  -6.618  -4.189  0.00  0.00    +0.210 HD
ENDBRANCH  24  33
BRANCH  27  35
ATOM     35  C   UNL     1      -6.308  -4.563  -7.525  0.00  0.00    +0.190 C 
BRANCH  35  36
ATOM     36  O   UNL     1      -5.080  -5.255  -7.761  0.00  0.00    -0.392 OA
ATOM     37  H   UNL     1      -4.843  -5.327  -8.696  0.00  0.00    +0.210 HD
ENDBRANCH  35  36
ENDBRANCH  27  35
ENDBRANCH  22  23
ENDBRANCH   3  22
TORSDOF 15
