REMARK  Name = ZINC30802676
REMARK  4 active torsions:
REMARK  status: ('A' for Active; 'I' for Inactive)
REMARK    1  A    between atoms: C_7  and  C_15
REMARK    2  A    between atoms: N_17  and  N_18
REMARK    3  A    between atoms: C_19  and  C_20
REMARK    4  A    between atoms: C_23  and  N_26
REMARK                            x       y       z     vdW  Elec       q    Type
REMARK                         _______ _______ _______ _____ _____    ______ ____
ROOT
ATOM      1  C   UNL     1       1.264   2.135   0.324  0.00  0.00    +0.244 C 
ATOM      2  O   UNL     1       1.675   2.381  -0.790  0.00  0.00    -0.273 OA
ATOM      3  N   UNL     1       2.133   1.877   1.321  0.00  0.00    -0.206 N 
ATOM      4  H   UNL     1       1.760   1.653   2.332  0.00  0.00    +0.177 HD
ENDROOT
BRANCH   1  11
ATOM      5  C   UNL     1      -1.780   1.693  -2.812  0.00  0.00    +0.001 A 
ATOM      6  C   UNL     1      -2.316   2.948  -3.038  0.00  0.00    +0.004 A 
ATOM      7  C   UNL     1      -2.173   3.940  -2.090  0.00  0.00    +0.046 A 
ATOM      8  C   UNL     1      -1.493   3.680  -0.905  0.00  0.00    +0.133 A 
ATOM      9  C   UNL     1      -0.958   2.422  -0.681  0.00  0.00    +0.011 A 
ATOM     10  C   UNL     1      -1.104   1.431  -1.636  0.00  0.00    +0.008 A 
ATOM     11  C   UNL     1      -0.219   2.117   0.593  0.00  0.00    +0.143 C 
ATOM     12  C   UNL     1      -0.544   3.138   1.649  0.00  0.00    +0.011 A 
ATOM     13  C   UNL     1      -0.281   2.848   2.977  0.00  0.00    +0.008 A 
ATOM     14  C   UNL     1      -0.573   3.772   3.961  0.00  0.00    +0.001 A 
ATOM     15  C   UNL     1      -1.130   4.992   3.622  0.00  0.00    +0.004 A 
ATOM     16  C   UNL     1      -1.393   5.287   2.300  0.00  0.00    +0.046 A 
ATOM     17  C   UNL     1      -1.099   4.359   1.306  0.00  0.00    +0.133 A 
ATOM     18  O   UNL     1      -1.365   4.667   0.014  0.00  0.00    -0.455 OA
ENDBRANCH   1  11
BRANCH   3  19
ATOM     19  N   UNL     1       3.511   1.894   1.071  0.00  0.00    -0.188 NA
ATOM     20  C   UNL     1       4.344   1.531   1.998  0.00  0.00    +0.138 C 
BRANCH  20  21
ATOM     21  C   UNL     1       3.885   0.673   3.106  0.00  0.00    -0.005 A 
ATOM     22  C   UNL     1       4.683   0.503   4.240  0.00  0.00    +0.012 A 
ATOM     23  C   UNL     1       4.245  -0.296   5.275  0.00  0.00    +0.033 A 
ATOM     24  C   UNL     1       3.023  -0.939   5.187  0.00  0.00    +0.126 A 
ATOM     25  C   UNL     1       2.229  -0.780   4.065  0.00  0.00    +0.033 A 
ATOM     26  C   UNL     1       2.652   0.021   3.025  0.00  0.00    +0.012 A 
BRANCH  24  27
ATOM     27  N   UNL     1       2.562  -1.801   6.300  0.00  0.00    +0.056 N 
ATOM     28  O   UNL     1       1.487  -2.368   6.225  0.00  0.00    -0.126 OA
ATOM     29  O   UNL     1       3.259  -1.942   7.289  0.00  0.00    -0.126 OA
ENDBRANCH  24  27
ENDBRANCH  20  21
ENDBRANCH   3  19
TORSDOF 4
