REMARK  Name = ZINC23737528
REMARK  6 active torsions:
REMARK  status: ('A' for Active; 'I' for Inactive)
REMARK    1  A    between atoms: C_4  and  C_7
REMARK    2  A    between atoms: C_7  and  C_9
REMARK    3  A    between atoms: C_7  and  N_29
REMARK    4  A    between atoms: C_9  and  N_10
REMARK    5  A    between atoms: C_11  and  C_13
REMARK    6  A    between atoms: C_13  and  N_14
REMARK                            x       y       z     vdW  Elec       q    Type
REMARK                         _______ _______ _______ _____ _____    ______ ____
ROOT
ATOM      1  N   UNL     1      -1.411  -0.532   0.134  0.00  0.00    -0.315 N 
ATOM      2  C   UNL     1      -0.412   0.325  -0.152  0.00  0.00    +0.231 C 
ATOM      3  O   UNL     1       0.630  -0.090  -0.613  0.00  0.00    -0.274 OA
ATOM      4  H   UNL     1      -2.357  -0.155   0.551  0.00  0.00    +0.149 HD
ENDROOT
BRANCH   1   5
ATOM      5  C   UNL     1      -1.239  -1.966  -0.111  0.00  0.00    +0.093 C 
BRANCH   5   6
ATOM      6  C   UNL     1      -2.565  -2.689   0.138  0.00  0.00    -0.020 C 
BRANCH   6  10
ATOM      7  C   UNL     1      -2.007  -6.896  -0.352  0.00  0.00    +0.000 A 
ATOM      8  C   UNL     1      -2.156  -6.361   0.914  0.00  0.00    +0.000 A 
ATOM      9  C   UNL     1      -2.336  -5.000   1.073  0.00  0.00    +0.002 A 
ATOM     10  C   UNL     1      -2.368  -4.173  -0.035  0.00  0.00    -0.059 A 
ATOM     11  C   UNL     1      -2.224  -4.708  -1.301  0.00  0.00    +0.002 A 
ATOM     12  C   UNL     1      -2.039  -6.069  -1.460  0.00  0.00    +0.000 A 
ENDBRANCH   6  10
BRANCH   6  13
ATOM     13  N   UNL     1      -3.570  -2.213  -0.822  0.00  0.00    +0.385 N 
ATOM     14  C   UNL     1      -4.774  -3.082  -0.807  0.00  0.00    -0.078 C 
ATOM     15  C   UNL     1      -5.870  -2.180  -1.428  0.00  0.00    -0.020 C 
ATOM     16  C   UNL     1      -5.531  -0.783  -0.859  0.00  0.00    -0.020 C 
ATOM     17  C   UNL     1      -4.045  -0.859  -0.465  0.00  0.00    -0.078 C 
ATOM     18  H   UNL     1      -3.073  -2.220  -1.804  0.00  0.00    -0.081 HD
ENDBRANCH   6  13
ENDBRANCH   5   6
ENDBRANCH   1   5
BRANCH   2  19
ATOM     19  C   UNL     1      -0.589   1.801   0.099  0.00  0.00    +0.213 C 
BRANCH  19  20
ATOM     20  N   UNL     1       0.630   2.513  -0.291  0.00  0.00    -0.215 N 
ATOM     21  C   UNL     1       0.857   3.009  -1.527  0.00  0.00    +0.251 C 
ATOM     22  O   UNL     1       0.121   2.954  -2.489  0.00  0.00    -0.272 OA
ATOM     23  C   UNL     1       2.220   3.646  -1.454  0.00  0.00    +0.138 C 
ATOM     24  C   UNL     1       2.155   5.142  -1.786  0.00  0.00    +0.045 C 
ATOM     25  C   UNL     1       3.521   5.383  -2.469  0.00  0.00    +0.038 C 
ATOM     26  C   UNL     1       3.925   4.038  -3.035  0.00  0.00    -0.042 A 
ATOM     27  C   UNL     1       3.173   3.035  -2.446  0.00  0.00    -0.012 A 
ATOM     28  C   UNL     1       3.378   1.717  -2.816  0.00  0.00    +0.006 A 
ATOM     29  C   UNL     1       4.327   1.399  -3.768  0.00  0.00    +0.000 A 
ATOM     30  C   UNL     1       5.077   2.400  -4.355  0.00  0.00    +0.000 A 
ATOM     31  C   UNL     1       4.875   3.716  -3.989  0.00  0.00    +0.004 A 
ATOM     32  N   UNL     1       2.657   3.425  -0.075  0.00  0.00    -0.281 N 
ATOM     33  C   UNL     1       1.657   2.757   0.534  0.00  0.00    +0.310 C 
ATOM     34  O   UNL     1       1.684   2.413   1.699  0.00  0.00    -0.252 OA
ATOM     35  H   UNL     1       3.640   3.791   0.256  0.00  0.00    +0.152 HD
ENDBRANCH  19  20
ENDBRANCH   2  19
TORSDOF 6
