REMARK  Name = ZINC45697870
REMARK  7 active torsions:
REMARK  status: ('A' for Active; 'I' for Inactive)
REMARK    1  A    between atoms: C_10  and  C_11
REMARK    2  A    between atoms: C_11  and  C_12
REMARK    3  A    between atoms: C_12  and  N_13
REMARK    4  A    between atoms: N_16  and  C_17
REMARK    5  A    between atoms: C_20  and  O_23
REMARK    6  A    between atoms: O_23  and  C_24
REMARK    7  A    between atoms: C_24  and  C_25
REMARK                            x       y       z     vdW  Elec       q    Type
REMARK                         _______ _______ _______ _____ _____    ______ ____
ROOT
ATOM      1  N   UNL     1       6.607   1.273   1.380  0.00  0.00    -0.299 N 
ATOM      2  C   UNL     1       7.140   1.708   2.539  0.00  0.00    +0.304 C 
ATOM      3  O   UNL     1       6.577   1.476   3.592  0.00  0.00    -0.253 OA
ATOM      4  N   UNL     1       8.296   2.399   2.531  0.00  0.00    -0.269 N 
ATOM      5  H   UNL     1       7.056   1.458   0.541  0.00  0.00    +0.150 HD
ATOM      6  H   UNL     1       8.780   2.527   1.700  0.00  0.00    +0.156 HD
ENDROOT
BRANCH   4   7
ATOM      7  C   UNL     1       8.801   2.935   3.724  0.00  0.00    +0.035 A 
ATOM      8  C   UNL     1       9.466   4.154   3.712  0.00  0.00    +0.027 A 
ATOM      9  C   UNL     1       9.962   4.681   4.888  0.00  0.00    +0.047 A 
ATOM     10  C   UNL     1       9.796   3.994   6.081  0.00  0.00    +0.121 A 
ATOM     11  C   UNL     1       9.132   2.776   6.094  0.00  0.00    +0.047 A 
ATOM     12  C   UNL     1       8.631   2.250   4.920  0.00  0.00    +0.027 A 
BRANCH  10  13
ATOM     13  O   UNL     1      10.285   4.513   7.239  0.00  0.00    -0.483 OA
BRANCH  13  14
ATOM     14  C   UNL     1      10.079   3.752   8.430  0.00  0.00    +0.324 C 
BRANCH  14  15
ATOM     15  C   UNL     1      10.684   4.480   9.602  0.00  0.00    +0.248 C 
ATOM     16  O   UNL     1      11.238   5.546   9.434  0.00  0.00    -0.272 OA
ATOM     17  N   UNL     1      10.610   3.946  10.838  0.00  0.00    -0.327 N 
ATOM     18  H   UNL     1      10.167   3.094  10.972  0.00  0.00    +0.145 HD
ATOM     19  H   UNL     1      11.000   4.415  11.593  0.00  0.00    +0.145 HD
ENDBRANCH  14  15
ENDBRANCH  13  14
ENDBRANCH  10  13
ENDBRANCH   4   7
BRANCH   1  20
ATOM     20  C   UNL     1       5.349   0.521   1.389  0.00  0.00    +0.110 C 
BRANCH  20  21
ATOM     21  C   UNL     1       4.968   0.149  -0.045  0.00  0.00    +0.054 C 
BRANCH  21  31
ATOM     22  C   UNL     1      -0.008   1.352  -0.017  0.00  0.00    +0.001 A 
ATOM     23  C   UNL     1       1.178   2.084  -0.024  0.00  0.00    +0.001 A 
ATOM     24  C   UNL     1       2.388   1.460  -0.031  0.00  0.00    +0.009 A 
ATOM     25  C   UNL     1       2.445   0.055  -0.030  0.00  0.00    -0.015 A 
ATOM     26  C   UNL     1       1.239  -0.690  -0.022  0.00  0.00    -0.018 A 
ATOM     27  C   UNL     1       0.009  -0.009  -0.016  0.00  0.00    +0.008 A 
ATOM     28  C   UNL     1       1.296  -2.093  -0.021  0.00  0.00    +0.008 A 
ATOM     29  C   UNL     1       2.506  -2.718  -0.027  0.00  0.00    +0.001 A 
ATOM     30  C   UNL     1       3.691  -1.986  -0.034  0.00  0.00    +0.004 A 
ATOM     31  C   UNL     1       3.674  -0.625  -0.036  0.00  0.00    -0.038 A 
ENDBRANCH  21  31
ENDBRANCH  20  21
ENDBRANCH   1  20
TORSDOF 7
