REMARK  Name = ZINC57163518
REMARK  8 active torsions:
REMARK  status: ('A' for Active; 'I' for Inactive)
REMARK    1  A    between atoms: C_1  and  C_2
REMARK    2  A    between atoms: C_3  and  C_13
REMARK    3  A    between atoms: C_4  and  C_12
REMARK    4  A    between atoms: C_13  and  C_14
REMARK    5  A    between atoms: N_16  and  C_17
REMARK    6  A    between atoms: C_17  and  C_18
REMARK    7  A    between atoms: C_23  and  O_24
REMARK    8  A    between atoms: O_24  and  C_25
REMARK                            x       y       z     vdW  Elec       q    Type
REMARK                         _______ _______ _______ _____ _____    ______ ____
ROOT
ATOM      1  C   UNL     1      -3.241   0.436   0.709  0.00  0.00    +0.218 C 
ATOM      2  O   UNL     1      -2.344   0.124   1.463  0.00  0.00    -0.275 OA
ATOM      3  N   UNL     1      -4.330   1.074   1.184  0.00  0.00    -0.311 N 
ATOM      4  H   UNL     1      -5.047   1.323   0.581  0.00  0.00    +0.149 HD
ENDROOT
BRANCH   1   5
ATOM      5  C   UNL     1      -3.139   0.111  -0.759  0.00  0.00    +0.134 C 
BRANCH   5   8
ATOM      6  C   UNL     1      -0.706   1.643  -1.220  0.00  0.00    +0.066 C 
ATOM      7  C   UNL     1      -0.665   0.137  -1.249  0.00  0.00    +0.047 A 
ATOM      8  C   UNL     1      -1.836  -0.597  -1.028  0.00  0.00    +0.004 A 
ATOM      9  C   UNL     1      -1.785  -1.954  -1.057  0.00  0.00    +0.049 A 
ATOM     10  N   UNL     1      -0.595  -2.564  -1.301  0.00  0.00    -0.199 N 
ATOM     11  C   UNL     1       0.530  -1.818  -1.513  0.00  0.00    +0.255 A 
ATOM     12  N   UNL     1       0.469  -0.482  -1.488  0.00  0.00    -0.216 NA
ATOM     13  N   UNL     1       1.533  -2.666  -1.722  0.00  0.00    -0.176 NA
ATOM     14  C   UNL     1       1.085  -3.917  -1.651  0.00  0.00    +0.234 A 
ATOM     15  N   UNL     1      -0.207  -3.906  -1.395  0.00  0.00    -0.128 NA
ATOM     16  N   UNL     1       1.863  -5.059  -1.820  0.00  0.00    -0.326 N 
ATOM     17  C   UNL     1      -3.029  -2.772  -0.822  0.00  0.00    +0.066 C 
ATOM     18  H   UNL     1       2.811  -4.978  -2.006  0.00  0.00    +0.145 HD
ATOM     19  H   UNL     1       1.456  -5.937  -1.752  0.00  0.00    +0.145 HD
ENDBRANCH   5   8
ENDBRANCH   1   5
BRANCH   3  20
ATOM     20  C   UNL     1      -4.429   1.390   2.611  0.00  0.00    +0.143 C 
BRANCH  20  21
ATOM     21  C   UNL     1      -5.732   2.098   2.879  0.00  0.00    +0.011 A 
ATOM     22  C   UNL     1      -5.759   3.473   3.005  0.00  0.00    +0.009 A 
ATOM     23  C   UNL     1      -6.954   4.123   3.251  0.00  0.00    +0.001 A 
ATOM     24  C   UNL     1      -8.126   3.398   3.372  0.00  0.00    +0.004 A 
ATOM     25  C   UNL     1      -8.104   2.023   3.247  0.00  0.00    +0.046 A 
ATOM     26  C   UNL     1      -6.907   1.369   2.994  0.00  0.00    +0.126 A 
BRANCH  26  27
ATOM     27  O   UNL     1      -6.884   0.016   2.865  0.00  0.00    -0.488 OA
BRANCH  27  28
ATOM     28  C   UNL     1      -8.144  -0.658   2.880  0.00  0.00    +0.173 C 
ATOM     29  C   UNL     1      -8.556  -0.976   4.332  0.00  0.00    +0.044 C 
ATOM     30  C   UNL     1      -9.239  -2.364   4.238  0.00  0.00    +0.004 C 
ATOM     31  C   UNL     1      -8.373  -3.099   3.184  0.00  0.00    +0.004 C 
ATOM     32  C   UNL     1      -8.027  -2.008   2.150  0.00  0.00    +0.044 C 
ENDBRANCH  27  28
ENDBRANCH  26  27
ENDBRANCH  20  21
ENDBRANCH   3  20
TORSDOF 6
