REMARK  Name = ZINC01773211
REMARK  9 active torsions:
REMARK  status: ('A' for Active; 'I' for Inactive)
REMARK    1  A    between atoms: C_1  and  C_2
REMARK    2  A    between atoms: C_5  and  C_8
REMARK    3  A    between atoms: C_8  and  O_10
REMARK    4  A    between atoms: O_10  and  C_11
REMARK    5  A    between atoms: C_14  and  C_17
REMARK    6  A    between atoms: C_18  and  C_19
REMARK    7  A    between atoms: C_18  and  C_21
REMARK    8  A    between atoms: N_23  and  C_24
REMARK    9  A    between atoms: C_25  and  C_33
REMARK                            x       y       z     vdW  Elec       q    Type
REMARK                         _______ _______ _______ _____ _____    ______ ____
ROOT
ATOM      1  C   UNL     1      -0.005   1.080   0.016  0.00  0.00    +0.032 C 
ATOM      2  C   UNL     1      -1.133   1.867  -0.066  0.00  0.00    +0.114 C 
ENDROOT
BRANCH   1   6
ATOM      3  C   UNL     1       3.800   2.744  -0.798  0.00  0.00    +0.132 A 
ATOM      4  C   UNL     1       3.673   1.740   0.157  0.00  0.00    +0.047 A 
ATOM      5  C   UNL     1       2.443   1.198   0.425  0.00  0.00    +0.011 A 
ATOM      6  C   UNL     1       1.312   1.655  -0.266  0.00  0.00    -0.023 A 
ATOM      7  C   UNL     1       1.448   2.663  -1.232  0.00  0.00    +0.011 A 
ATOM      8  C   UNL     1       2.683   3.202  -1.487  0.00  0.00    +0.047 A 
BRANCH   3   9
ATOM      9  O   UNL     1       5.021   3.277  -1.059  0.00  0.00    -0.422 OA
BRANCH   9  10
ATOM     10  C   UNL     1       5.860   2.543  -1.815  0.00  0.00    +0.344 C 
ATOM     11  O   UNL     1       5.547   1.420  -2.156  0.00  0.00    -0.245 OA
BRANCH  10  16
ATOM     12  C   UNL     1      10.931   4.728  -3.434  0.00  0.00    +0.044 C 
ATOM     13  C   UNL     1       9.602   4.156  -3.010  0.00  0.00    -0.050 A 
ATOM     14  C   UNL     1       9.248   2.876  -3.399  0.00  0.00    +0.004 A 
ATOM     15  C   UNL     1       8.034   2.346  -3.015  0.00  0.00    +0.015 A 
ATOM     16  C   UNL     1       7.162   3.104  -2.231  0.00  0.00    +0.059 A 
ATOM     17  C   UNL     1       7.524   4.397  -1.847  0.00  0.00    +0.015 A 
ATOM     18  C   UNL     1       8.743   4.912  -2.234  0.00  0.00    +0.004 A 
ENDBRANCH  10  16
ENDBRANCH   9  10
ENDBRANCH   3   9
ENDBRANCH   1   6
BRANCH   2  19
ATOM     19  C   UNL     1      -2.466   1.256   0.042  0.00  0.00    +0.259 C 
ATOM     20  O   UNL     1      -2.573   0.055   0.205  0.00  0.00    -0.269 OA
ATOM     21  N   UNL     1      -3.569   2.026  -0.038  0.00  0.00    -0.275 N 
ATOM     22  H   UNL     1      -3.484   2.983  -0.167  0.00  0.00    +0.156 HD
BRANCH  21  23
ATOM     23  C   UNL     1      -4.825   1.450   0.064  0.00  0.00    +0.085 A 
ATOM     24  C   UNL     1      -6.065   2.070   0.013  0.00  0.00    +0.068 A 
ATOM     25  C   UNL     1      -7.243   1.229   0.143  0.00  0.00    -0.023 A 
ATOM     26  C   UNL     1      -6.994  -0.087   0.314  0.00  0.00    -0.004 A 
ATOM     27  S   UNL     1      -5.228  -0.220   0.296  0.00  0.00    -0.077 S 
ATOM     28  C   UNL     1      -8.001  -1.183   0.483  0.00  0.00    +0.043 C 
ATOM     29  C   UNL     1      -9.359  -0.545   0.808  0.00  0.00    +0.005 C 
ATOM     30  C   UNL     1      -9.620   0.593  -0.183  0.00  0.00    +0.005 C 
ATOM     31  C   UNL     1      -8.671   1.758   0.102  0.00  0.00    +0.037 C 
BRANCH  24  32
ATOM     32  C   UNL     1      -6.183   3.520  -0.171  0.00  0.00    +0.244 C 
ATOM     33  O   UNL     1      -6.256   3.987  -1.293  0.00  0.00    -0.270 OA
ATOM     34  N   UNL     1      -6.210   4.335   0.901  0.00  0.00    -0.325 N 
ATOM     35  H   UNL     1      -6.152   3.963   1.795  0.00  0.00    +0.145 HD
ATOM     36  H   UNL     1      -6.288   5.295   0.780  0.00  0.00    +0.145 HD
ENDBRANCH  24  32
ENDBRANCH  21  23
ENDBRANCH   2  19
BRANCH   2  37
ATOM     37  C   UNL     1      -1.007   3.281  -0.257  0.00  0.00    +0.104 C 
ATOM     38  N   UNL     1      -0.907   4.402  -0.409  0.00  0.00    -0.191 NA
ENDBRANCH   2  37
TORSDOF 8
