REMARK  Name = ZINC64103659
REMARK  11 active torsions:
REMARK  status: ('A' for Active; 'I' for Inactive)
REMARK    1  A    between atoms: C_1  and  C_2
REMARK    2  A    between atoms: C_4  and  C_9
REMARK    3  A    between atoms: N_6  and  C_8
REMARK    4  A    between atoms: C_9  and  N_10
REMARK    5  A    between atoms: N_10  and  C_11
REMARK    6  A    between atoms: N_10  and  C_12
REMARK    7  A    between atoms: C_12  and  C_14
REMARK    8  A    between atoms: C_12  and  C_22
REMARK    9  A    between atoms: C_14  and  C_15
REMARK   10  A    between atoms: N_25  and  C_28
REMARK   11  A    between atoms: C_28  and  C_29
REMARK                            x       y       z     vdW  Elec       q    Type
REMARK                         _______ _______ _______ _____ _____    ______ ____
ROOT
ATOM      1  C   UNL     1      -4.460   1.047  -1.415  0.00  0.00    -0.061 C 
ENDROOT
BRANCH   1   2
ATOM      2  C   UNL     1      -3.994   0.605  -2.804  0.00  0.00    -0.028 C 
ATOM      3  C   UNL     1      -2.885   1.540  -3.293  0.00  0.00    -0.017 C 
ATOM      4  C   UNL     1      -2.478   1.141  -4.713  0.00  0.00    -0.079 C 
ATOM      5  N   UNL     1      -3.639   1.247  -5.606  0.00  0.00    +0.381 N 
ATOM      6  C   UNL     1      -4.679   0.300  -5.185  0.00  0.00    -0.079 C 
ATOM      7  C   UNL     1      -5.170   0.667  -3.783  0.00  0.00    -0.017 C 
ATOM      8  H   UNL     1      -4.005   2.186  -5.570  0.00  0.00    -0.082 HD
BRANCH   5   9
ATOM      9  C   UNL     1      -3.226   0.938  -6.982  0.00  0.00    -0.050 C 
BRANCH   9  10
ATOM     10  C   UNL     1      -4.404   1.169  -7.931  0.00  0.00    +0.086 C 
ATOM     11  C   UNL     1      -3.950   1.033  -9.367  0.00  0.00    +0.005 C 
ATOM     12  C   UNL     1      -4.185   2.231  -9.950  0.00  0.00    -0.004 A 
ATOM     13  C   UNL     1      -3.966   2.735 -11.311  0.00  0.00    +0.010 A 
ATOM     14  C   UNL     1      -4.309   4.010 -11.601  0.00  0.00    +0.001 A 
ATOM     15  C   UNL     1      -4.868   4.861 -10.637  0.00  0.00    +0.002 A 
ATOM     16  C   UNL     1      -5.099   4.470  -9.366  0.00  0.00    +0.026 A 
ATOM     17  C   UNL     1      -4.776   3.149  -8.950  0.00  0.00    +0.043 A 
ATOM     18  N   UNL     1      -4.903   2.541  -7.794  0.00  0.00    -0.380 N 
ATOM     19  H   UNL     1      -5.265   2.934  -6.984  0.00  0.00    +0.160 HD
ENDBRANCH   9  10
ENDBRANCH   5   9
ENDBRANCH   1   2
BRANCH   1  20
ATOM     20  N   UNL     1      -3.488   0.602  -0.407  0.00  0.00    +0.383 N 
ATOM     21  C   UNL     1      -3.862   1.143   0.906  0.00  0.00    -0.095 C 
ATOM     22  H   UNL     1      -2.569   0.932  -0.658  0.00  0.00    -0.081 HD
BRANCH  20  23
ATOM     23  C   UNL     1      -3.482  -0.866  -0.348  0.00  0.00    -0.045 C 
BRANCH  23  26
ATOM     24  C   UNL     1      -0.304  -0.223  -0.203  0.00  0.00    +0.030 C 
ATOM     25  C   UNL     1      -0.940  -1.535   0.260  0.00  0.00    +0.095 C 
ATOM     26  C   UNL     1      -2.401  -1.326   0.595  0.00  0.00    -0.053 C 
ATOM     27  C   UNL     1      -2.545  -1.623   1.871  0.00  0.00    +0.086 C 
ATOM     28  N   UNL     1      -1.350  -2.011   2.444  0.00  0.00    -0.277 N 
ATOM     29  N   UNL     1      -0.333  -1.984   1.529  0.00  0.00    -0.234 NA
ATOM     30  C   UNL     1      -1.191  -2.400   3.847  0.00  0.00    +0.149 C 
ATOM     31  H   UNL     1       0.401  -1.355   1.821  0.00  0.00    +0.145 HD
ENDBRANCH  23  26
ENDBRANCH  20  23
ENDBRANCH   1  20
BRANCH   1  32
ATOM     32  C   UNL     1      -4.573   2.572  -1.377  0.00  0.00    +0.023 C 
BRANCH  32  33
ATOM     33  C   UNL     1      -5.687   3.017  -2.288  0.00  0.00    -0.014 A 
ATOM     34  C   UNL     1      -5.393   3.659  -3.477  0.00  0.00    +0.006 A 
ATOM     35  C   UNL     1      -6.415   4.067  -4.313  0.00  0.00    +0.000 A 
ATOM     36  C   UNL     1      -7.732   3.834  -3.962  0.00  0.00    +0.003 A 
ATOM     37  C   UNL     1      -8.028   3.192  -2.775  0.00  0.00    +0.038 A 
ATOM     38  C   UNL     1      -7.005   2.778  -1.939  0.00  0.00    +0.126 A 
ATOM     39  F   UNL     1      -7.293   2.146  -0.780  0.00  0.00    -0.205 F 
ENDBRANCH  32  33
ENDBRANCH   1  32
TORSDOF 8
