REMARK  Name = ZINC13810542
REMARK  13 active torsions:
REMARK  status: ('A' for Active; 'I' for Inactive)
REMARK    1  A    between atoms: C_1  and  C_2
REMARK    2  A    between atoms: C_2  and  C_3
REMARK    3  A    between atoms: C_3  and  C_4
REMARK    4  A    between atoms: C_4  and  S_5
REMARK    5  A    between atoms: S_5  and  C_6
REMARK    6  A    between atoms: C_6  and  S_29
REMARK    7  A    between atoms: C_7  and  C_27
REMARK    8  A    between atoms: C_14  and  C_21
REMARK    9  A    between atoms: C_16  and  C_19
REMARK   10  A    between atoms: S_29  and  C_30
REMARK   11  A    between atoms: C_30  and  C_31
REMARK   12  A    between atoms: C_31  and  C_32
REMARK   13  A    between atoms: C_32  and  C_33
REMARK                            x       y       z     vdW  Elec       q    Type
REMARK                         _______ _______ _______ _____ _____    ______ ____
ROOT
ATOM      1  C   UNL     1       5.545   1.833  -1.338  0.00  0.00    +0.157 C 
ATOM      2  C   UNL     1       5.099   2.667  -0.113  0.00  0.00    +0.148 C 
ATOM      3  C   UNL     1       3.726   2.251   0.329  0.00  0.00    -0.029 C 
ATOM      4  C   UNL     1       2.656   2.974   0.101  0.00  0.00    -0.011 C 
ATOM      5  C   UNL     1       1.266   2.591   0.541  0.00  0.00    +0.049 C 
ATOM      6  C   UNL     1       1.191   1.108   0.894  0.00  0.00    +0.006 C 
ATOM      7  C   UNL     1       2.353   0.799   1.848  0.00  0.00    +0.005 C 
ATOM      8  C   UNL     1       3.652   0.926   1.062  0.00  0.00    +0.034 C 
ATOM      9  C   UNL     1       3.902   4.394  -1.484  0.00  0.00    +0.113 C 
ATOM     10  C   UNL     1       5.183   4.085  -0.701  0.00  0.00    +0.156 C 
ATOM     11  C   UNL     1       6.319   3.958  -1.706  0.00  0.00    +0.092 C 
ATOM     12  N   UNL     1       7.050   5.008  -2.196  0.00  0.00    -0.347 N 
ATOM     13  H   UNL     1       6.858   5.912  -1.902  0.00  0.00    +0.143 HD
ATOM     14  H   UNL     1       7.761   4.847  -2.836  0.00  0.00    +0.143 HD
ATOM     15  N   UNL     1       2.716   4.234  -0.583  0.00  0.00    -0.401 NA
ATOM     16  H   UNL     1       2.744   4.980   0.122  0.00  0.00    +0.124 HD
ATOM     17  H   UNL     1       1.866   4.330  -1.150  0.00  0.00    +0.124 HD
ATOM     18  N   UNL     1       6.505   2.717  -2.043  0.00  0.00    -0.351 N 
ATOM     19  H   UNL     1       7.219   2.393  -2.705  0.00  0.00    +0.163 HD
ENDROOT
BRANCH   9  20
ATOM     20  C   UNL     1       3.795   3.471  -2.670  0.00  0.00    -0.027 A 
ATOM     21  C   UNL     1       4.879   3.296  -3.510  0.00  0.00    +0.005 A 
ATOM     22  C   UNL     1       4.782   2.444  -4.595  0.00  0.00    +0.000 A 
ATOM     23  C   UNL     1       3.598   1.776  -4.846  0.00  0.00    +0.000 A 
ATOM     24  C   UNL     1       2.512   1.955  -4.008  0.00  0.00    +0.000 A 
ATOM     25  C   UNL     1       2.611   2.803  -2.920  0.00  0.00    +0.005 A 
ENDBRANCH   9  20
BRANCH  10  26
ATOM     26  C   UNL     1       5.452   5.097   0.334  0.00  0.00    +0.081 C 
ATOM     27  N   UNL     1       5.661   5.878   1.132  0.00  0.00    -0.195 NA
ENDBRANCH  10  26
BRANCH   2  28
ATOM     28  C   UNL     1       6.056   2.518   0.996  0.00  0.00    +0.080 C 
ATOM     29  N   UNL     1       6.795   2.404   1.851  0.00  0.00    -0.195 NA
ENDBRANCH   2  28
BRANCH   1  30
ATOM     30  S   UNL     1       6.370   0.307  -0.807  0.00  0.00    -0.120 S 
BRANCH  30  31
ATOM     31  C   UNL     1       6.949  -0.440  -2.354  0.00  0.00    +0.072 C 
BRANCH  31  32
ATOM     32  C   UNL     1       7.780  -1.686  -2.039  0.00  0.00    +0.010 C 
BRANCH  32  34
ATOM     33  C   UNL     1       9.099  -3.562  -3.030  0.00  0.00    +0.004 C 
ATOM     34  C   UNL     1       8.269  -2.317  -3.345  0.00  0.00    -0.003 C 
ENDBRANCH  32  34
ENDBRANCH  31  32
ENDBRANCH  30  31
ENDBRANCH   1  30
BRANCH   1  35
ATOM     35  S   UNL     1       4.127   1.456  -2.404  0.00  0.00    -0.120 S 
BRANCH  35  36
ATOM     36  C   UNL     1       3.453  -0.079  -1.711  0.00  0.00    +0.072 C 
BRANCH  36  37
ATOM     37  C   UNL     1       2.615  -0.793  -2.774  0.00  0.00    +0.010 C 
BRANCH  37  38
ATOM     38  C   UNL     1       2.085  -2.111  -2.204  0.00  0.00    -0.003 C 
ATOM     39  C   UNL     1       1.280  -2.844  -3.279  0.00  0.00    +0.004 C 
ENDBRANCH  37  38
ENDBRANCH  36  37
ENDBRANCH  35  36
ENDBRANCH   1  35
TORSDOF 11
