REMARK  Name = ZINC20764389
REMARK  11 active torsions:
REMARK  status: ('A' for Active; 'I' for Inactive)
REMARK    1  A    between atoms: C_1  and  C_2
REMARK    2  A    between atoms: C_2  and  O_3
REMARK    3  A    between atoms: O_3  and  C_4
REMARK    4  A    between atoms: C_7  and  C_10
REMARK    5  A    between atoms: C_12  and  C_28
REMARK    6  A    between atoms: C_15  and  C_18
REMARK    7  A    between atoms: C_22  and  O_25
REMARK    8  A    between atoms: C_23  and  O_24
REMARK    9  A    between atoms: O_25  and  C_26
REMARK   10  A    between atoms: C_26  and  C_27
REMARK   11  A    between atoms: C_31  and  C_34
REMARK                            x       y       z     vdW  Elec       q    Type
REMARK                         _______ _______ _______ _____ _____    ______ ____
ROOT
ATOM      1  C   UNL     1      -2.950   3.272   1.499  0.00  0.00    +0.040 C 
ATOM      2  N   UNL     1      -3.208   4.074   0.535  0.00  0.00    -0.299 NA
ATOM      3  C   UNL     1      -2.456   4.121  -0.713  0.00  0.00    +0.081 C 
ATOM      4  N   UNL     1      -1.155   3.459  -0.560  0.00  0.00    +0.401 N 
ATOM      5  C   UNL     1      -1.332   2.117   0.020  0.00  0.00    -0.028 C 
ATOM      6  C   UNL     1      -1.822   2.279   1.462  0.00  0.00    +0.044 C 
ATOM      7  H   UNL     1      -0.673   3.366  -1.544  0.00  0.00    -0.081 HD
ATOM      8  H   UNL     1      -0.516   4.058   0.106  0.00  0.00    -0.081 HD
ENDROOT
BRANCH   1  12
ATOM      9  C   UNL     1      -5.397   3.425   4.965  0.00  0.00    +0.121 A 
ATOM     10  C   UNL     1      -5.649   4.282   3.901  0.00  0.00    +0.046 A 
ATOM     11  C   UNL     1      -4.858   4.236   2.774  0.00  0.00    +0.013 A 
ATOM     12  C   UNL     1      -3.800   3.326   2.703  0.00  0.00    -0.004 A 
ATOM     13  C   UNL     1      -3.553   2.462   3.774  0.00  0.00    +0.013 A 
ATOM     14  C   UNL     1      -4.346   2.518   4.899  0.00  0.00    +0.046 A 
BRANCH   9  15
ATOM     15  O   UNL     1      -6.179   3.474   6.074  0.00  0.00    -0.492 OA
BRANCH  15  17
ATOM     16  C   UNL     1      -6.847   2.767   8.286  0.00  0.00    +0.048 C 
ATOM     17  C   UNL     1      -5.864   2.565   7.130  0.00  0.00    +0.225 C 
ENDBRANCH  15  17
ENDBRANCH   9  15
ENDBRANCH   1  12
BRANCH   5  18
ATOM     18  C   UNL     1      -0.017   1.381   0.010  0.00  0.00    -0.016 A 
ATOM     19  C   UNL     1       1.171   2.089   0.002  0.00  0.00    +0.006 A 
ATOM     20  C   UNL     1       2.379   1.417  -0.013  0.00  0.00    +0.004 A 
ATOM     21  C   UNL     1       2.405   0.035  -0.021  0.00  0.00    +0.049 A 
ATOM     22  C   UNL     1       1.218  -0.680  -0.013  0.00  0.00    +0.162 A 
ATOM     23  C   UNL     1       0.002  -0.004   0.002  0.00  0.00    +0.160 A 
BRANCH  23  24
ATOM     24  O   UNL     1      -1.165  -0.702   0.009  0.00  0.00    -0.503 OA
ATOM     25  H   UNL     1      -1.149  -1.801   0.003  0.00  0.00    +0.292 HD
ENDBRANCH  23  24
BRANCH  22  26
ATOM     26  O   UNL     1       1.242  -2.040  -0.020  0.00  0.00    -0.489 OA
BRANCH  26  27
ATOM     27  C   UNL     1       2.526  -2.667  -0.036  0.00  0.00    +0.226 C 
ATOM     28  C   UNL     1       2.352  -4.187  -0.042  0.00  0.00    +0.048 C 
ENDBRANCH  26  27
ENDBRANCH  22  26
ENDBRANCH   5  18
BRANCH   3  29
ATOM     29  C   UNL     1      -3.243   3.423  -1.793  0.00  0.00    -0.040 A 
ATOM     30  C   UNL     1      -2.584   2.814  -2.844  0.00  0.00    +0.004 A 
ATOM     31  C   UNL     1      -3.306   2.170  -3.832  0.00  0.00    +0.012 A 
ATOM     32  C   UNL     1      -4.687   2.144  -3.773  0.00  0.00    +0.055 A 
ATOM     33  C   UNL     1      -5.346   2.758  -2.725  0.00  0.00    +0.012 A 
ATOM     34  C   UNL     1      -4.624   3.398  -1.734  0.00  0.00    +0.004 A 
BRANCH  32  35
ATOM     35  C   UNL     1      -5.474   1.447  -4.853  0.00  0.00    +0.417 C 
ATOM     36  F   UNL     1      -5.768   2.354  -5.876  0.00  0.00    -0.166 F 
ATOM     37  F   UNL     1      -4.720   0.389  -5.370  0.00  0.00    -0.166 F 
ATOM     38  F   UNL     1      -6.666   0.950  -4.314  0.00  0.00    -0.166 F 
ENDBRANCH  32  35
ENDBRANCH   3  29
TORSDOF 9
