REMARK  Name = ZINC44737526
REMARK  10 active torsions:
REMARK  status: ('A' for Active; 'I' for Inactive)
REMARK    1  A    between atoms: C_1  and  C_2
REMARK    2  A    between atoms: C_2  and  C_3
REMARK    3  A    between atoms: C_3  and  C_5
REMARK    4  A    between atoms: C_3  and  C_6
REMARK    5  A    between atoms: C_6  and  C_7
REMARK    6  A    between atoms: C_11  and  C_20
REMARK    7  A    between atoms: N_22  and  C_23
REMARK    8  A    between atoms: C_23  and  C_25
REMARK    9  A    between atoms: C_23  and  C_26
REMARK   10  A    between atoms: C_31  and  C_35
REMARK                            x       y       z     vdW  Elec       q    Type
REMARK                         _______ _______ _______ _____ _____    ______ ____
ROOT
ATOM      1  C   UNL     1       1.318  -2.544   2.739  0.00  0.00    +0.216 C 
ATOM      2  O   UNL     1       1.840  -1.778   3.522  0.00  0.00    -0.276 OA
ATOM      3  N   UNL     1       1.370  -3.873   2.960  0.00  0.00    -0.300 N 
ATOM      4  C   UNL     1       0.803  -4.955   2.122  0.00  0.00    +0.121 C 
ATOM      5  C   UNL     1       1.865  -6.077   2.162  0.00  0.00    +0.100 C 
ATOM      6  C   UNL     1       2.650  -5.827   3.460  0.00  0.00    -0.004 C 
ATOM      7  C   UNL     1       2.013  -4.581   4.093  0.00  0.00    +0.115 C 
ATOM      8  C   UNL     1       2.517  -7.024   4.397  0.00  0.00    -0.010 C 
ATOM      9  C   UNL     1       3.354  -6.776   5.656  0.00  0.00    -0.082 C 
ATOM     10  N   UNL     1       4.759  -6.578   5.280  0.00  0.00    +0.379 N 
ATOM     11  C   UNL     1       4.891  -5.371   4.455  0.00  0.00    -0.082 C 
ATOM     12  C   UNL     1       4.119  -5.559   3.145  0.00  0.00    -0.010 C 
ATOM     13  H   UNL     1       5.317  -6.476   6.114  0.00  0.00    -0.086 HD
ATOM     14  H   UNL     1       5.082  -7.378   4.758  0.00  0.00    -0.086 HD
ENDROOT
BRANCH   5  15
ATOM     15  C   UNL     1       1.199  -7.428   2.201  0.00  0.00    +0.219 C 
ATOM     16  O   UNL     1       0.117  -7.557   2.734  0.00  0.00    -0.275 OA
ATOM     17  N   UNL     1       1.805  -8.494   1.642  0.00  0.00    -0.305 N 
ATOM     18  H   UNL     1       2.670  -8.392   1.215  0.00  0.00    +0.149 HD
BRANCH  17  19
ATOM     19  C   UNL     1       1.158  -9.808   1.679  0.00  0.00    +0.136 C 
ATOM     20  C   UNL     1       0.185  -9.931   0.505  0.00  0.00    +0.036 C 
BRANCH  19  21
ATOM     21  C   UNL     1       2.206 -10.887   1.579  0.00  0.00    +0.128 A 
ATOM     22  N   UNL     1       3.379 -10.739   1.036  0.00  0.00    -0.231 NA
ATOM     23  C   UNL     1       4.069 -11.905   1.114  0.00  0.00    +0.089 A 
ATOM     24  C   UNL     1       5.344 -12.301   0.700  0.00  0.00    +0.030 A 
ATOM     25  C   UNL     1       5.767 -13.580   0.927  0.00  0.00    +0.005 A 
ATOM     26  C   UNL     1       4.942 -14.495   1.565  0.00  0.00    -0.048 A 
ATOM     27  C   UNL     1       3.681 -14.128   1.982  0.00  0.00    +0.031 A 
ATOM     28  C   UNL     1       3.234 -12.832   1.761  0.00  0.00    +0.067 A 
ATOM     29  N   UNL     1       2.065 -12.156   2.048  0.00  0.00    -0.340 N 
ATOM     30  C   UNL     1       5.429 -15.902   1.804  0.00  0.00    +0.044 C 
ATOM     31  H   UNL     1       1.286 -12.520   2.498  0.00  0.00    +0.167 HD
ENDBRANCH  19  21
ENDBRANCH  17  19
ENDBRANCH   5  15
BRANCH   1  32
ATOM     32  C   UNL     1       0.612  -2.010   1.520  0.00  0.00    +0.099 C 
BRANCH  32  33
ATOM     33  C   UNL     1       0.699  -0.482   1.509  0.00  0.00    -0.006 C 
ATOM     34  C   UNL     1       2.160  -0.056   1.350  0.00  0.00    +0.008 C 
BRANCH  33  36
ATOM     35  C   UNL     1      -0.138   1.596   0.402  0.00  0.00    +0.004 C 
ATOM     36  C   UNL     1      -0.123   0.067   0.341  0.00  0.00    +0.000 C 
ENDBRANCH  33  36
ENDBRANCH  32  33
ENDBRANCH   1  32
TORSDOF 6
