REMARK  Name = ZINC59500782
REMARK  11 active torsions:
REMARK  status: ('A' for Active; 'I' for Inactive)
REMARK    1  A    between atoms: C_1  and  C_2
REMARK    2  A    between atoms: C_2  and  C_3
REMARK    3  A    between atoms: C_3  and  C_4
REMARK    4  A    between atoms: C_4  and  C_5
REMARK    5  A    between atoms: C_5  and  C_6
REMARK    6  A    between atoms: C_9  and  C_12
REMARK    7  A    between atoms: C_12  and  C_28
REMARK    8  A    between atoms: C_14  and  C_26
REMARK    9  A    between atoms: C_14  and  C_27
REMARK   10  A    between atoms: C_20  and  N_22
REMARK   11  A    between atoms: C_23  and  C_25
REMARK                            x       y       z     vdW  Elec       q    Type
REMARK                         _______ _______ _______ _____ _____    ______ ____
ROOT
ATOM      1  C   UNL     1       2.166  -9.119  -2.794  0.00  0.00    +0.022 C 
ATOM      2  C   UNL     1       0.782  -9.176  -3.419  0.00  0.00    +0.041 C 
ATOM      3  C   UNL     1      -0.138 -10.207  -2.774  0.00  0.00    +0.038 C 
ATOM      4  N   UNL     1      -0.165  -9.982  -1.321  0.00  0.00    -0.266 N 
ATOM      5  C   UNL     1       1.052  -9.862  -0.640  0.00  0.00    +0.043 A 
ATOM      6  C   UNL     1       2.189  -9.464  -1.332  0.00  0.00    -0.016 A 
ATOM      7  C   UNL     1       3.398  -9.374  -0.654  0.00  0.00    +0.008 A 
ATOM      8  C   UNL     1       3.470  -9.640   0.698  0.00  0.00    +0.023 A 
ATOM      9  C   UNL     1       2.326  -9.998   1.397  0.00  0.00    +0.026 A 
ATOM     10  C   UNL     1       1.116 -10.105   0.723  0.00  0.00    +0.046 A 
ATOM     11  C   UNL     1      -1.348  -9.882  -0.684  0.00  0.00    +0.217 C 
ATOM     12  O   UNL     1      -2.373 -10.187  -1.256  0.00  0.00    -0.276 OA
ATOM     13  C   UNL     1      -1.398  -9.393   0.741  0.00  0.00    +0.109 C 
ATOM     14  C   UNL     1      -1.564 -10.016  -3.321  0.00  0.00    +0.032 C 
ATOM     15  C   UNL     1       0.312 -11.636  -3.075  0.00  0.00    +0.032 C 
ATOM     16  C   UNL     1       3.127 -10.038  -3.556  0.00  0.00    +0.021 C 
ENDROOT
BRANCH   1  20
ATOM     17  C   UNL     1       3.614  -5.109  -3.222  0.00  0.00    -0.047 A 
ATOM     18  C   UNL     1       4.326  -6.163  -3.763  0.00  0.00    +0.004 A 
ATOM     19  C   UNL     1       3.859  -7.456  -3.625  0.00  0.00    +0.005 A 
ATOM     20  C   UNL     1       2.680  -7.697  -2.945  0.00  0.00    -0.037 A 
ATOM     21  C   UNL     1       1.967  -6.643  -2.403  0.00  0.00    +0.005 A 
ATOM     22  C   UNL     1       2.437  -5.350  -2.538  0.00  0.00    +0.004 A 
BRANCH  17  23
ATOM     23  C   UNL     1       4.123  -3.699  -3.373  0.00  0.00    +0.035 C 
BRANCH  23  24
ATOM     24  C   UNL     1       5.037  -3.358  -2.194  0.00  0.00    +0.005 C 
BRANCH  24  25
ATOM     25  C   UNL     1       5.554  -1.926  -2.347  0.00  0.00    +0.000 C 
BRANCH  25  27
ATOM     26  C   UNL     1       6.986  -0.154  -1.322  0.00  0.00    +0.004 C 
ATOM     27  C   UNL     1       6.469  -1.586  -1.169  0.00  0.00    -0.003 C 
ENDBRANCH  25  27
ENDBRANCH  24  25
ENDBRANCH  23  24
ENDBRANCH  17  23
ENDBRANCH   1  20
BRANCH   9  28
ATOM     28  N   UNL     1       2.388 -10.250   2.769  0.00  0.00    -0.358 N 
ATOM     29  H   UNL     1       3.234 -10.175   3.238  0.00  0.00    +0.142 HD
ATOM     30  H   UNL     1       1.585 -10.500   3.252  0.00  0.00    +0.142 HD
ENDBRANCH   9  28
TORSDOF 6
