REMARK  Name = ZINC34835432
REMARK  13 active torsions:
REMARK  status: ('A' for Active; 'I' for Inactive)
REMARK    1  A    between atoms: C_1  and  C_2
REMARK    2  A    between atoms: C_2  and  C_3
REMARK    3  A    between atoms: C_3  and  N_4
REMARK    4  A    between atoms: N_4  and  C_5
REMARK    5  A    between atoms: C_5  and  C_6
REMARK    6  A    between atoms: C_7  and  C_27
REMARK    7  A    between atoms: N_9  and  C_20
REMARK    8  A    between atoms: C_10  and  N_11
REMARK    9  A    between atoms: N_14  and  C_17
REMARK   10  A    between atoms: C_17  and  C_18
REMARK   11  A    between atoms: C_17  and  C_19
REMARK   12  A    between atoms: C_27  and  C_28
REMARK   13  A    between atoms: C_29  and  C_31
REMARK                            x       y       z     vdW  Elec       q    Type
REMARK                         _______ _______ _______ _____ _____    ______ ____
ROOT
ATOM      1  C   UNL     1      -0.580  -3.283  -4.096  0.00  0.00    +0.033 A 
ATOM      2  C   UNL     1      -0.968  -2.029  -4.577  0.00  0.00    +0.070 A 
ATOM      3  N   UNL     1      -0.212  -1.725  -5.601  0.00  0.00    -0.169 NA
ATOM      4  N   UNL     1       0.689  -2.776  -5.813  0.00  0.00    -0.218 N 
ATOM      5  C   UNL     1       0.449  -3.726  -4.870  0.00  0.00    +0.130 A 
ENDROOT
BRANCH   5   6
ATOM      6  N   UNL     1       1.129  -4.932  -4.724  0.00  0.00    -0.318 N 
ATOM      7  C   UNL     1       1.049  -5.975  -5.759  0.00  0.00    +0.088 C 
ATOM      8  C   UNL     1       2.473  -6.420  -6.111  0.00  0.00    -0.059 C 
ATOM      9  N   UNL     1       3.172  -6.832  -4.888  0.00  0.00    +0.383 N 
ATOM     10  C   UNL     1       3.328  -5.682  -3.989  0.00  0.00    -0.059 C 
ATOM     11  C   UNL     1       1.952  -5.198  -3.535  0.00  0.00    +0.088 C 
ATOM     12  H   UNL     1       2.638  -7.551  -4.422  0.00  0.00    -0.081 HD
BRANCH   9  13
ATOM     13  C   UNL     1       4.497  -7.362  -5.238  0.00  0.00    -0.075 C 
ATOM     14  C   UNL     1       5.227  -7.792  -3.964  0.00  0.00    -0.014 C 
ATOM     15  C   UNL     1       4.335  -8.568  -6.165  0.00  0.00    -0.014 C 
ENDBRANCH   9  13
ENDBRANCH   5   6
BRANCH   4  16
ATOM     16  C   UNL     1       1.668  -2.834  -6.816  0.00  0.00    +0.068 A 
ATOM     17  C   UNL     1       2.938  -3.313  -6.520  0.00  0.00    +0.030 A 
ATOM     18  C   UNL     1       3.900  -3.370  -7.509  0.00  0.00    +0.040 A 
ATOM     19  C   UNL     1       3.600  -2.951  -8.794  0.00  0.00    +0.124 A 
ATOM     20  C   UNL     1       2.335  -2.473  -9.090  0.00  0.00    +0.040 A 
ATOM     21  C   UNL     1       1.368  -2.420  -8.106  0.00  0.00    +0.030 A 
ATOM     22  F   UNL     1       4.543  -3.007  -9.760  0.00  0.00    -0.205 F 
ENDBRANCH   4  16
BRANCH   2  23
ATOM     23  C   UNL     1      -2.072  -1.172  -4.011  0.00  0.00    +0.054 C 
ATOM     24  C   UNL     1      -1.477  -0.150  -3.040  0.00  0.00    +0.010 C 
ENDBRANCH   2  23
BRANCH   1  25
ATOM     25  C   UNL     1      -1.189  -4.012  -2.926  0.00  0.00    +0.148 C 
BRANCH  25  26
ATOM     26  N   UNL     1      -2.089  -5.058  -3.418  0.00  0.00    -0.293 N 
ATOM     27  C   UNL     1      -3.408  -4.808  -3.542  0.00  0.00    +0.250 C 
ATOM     28  O   UNL     1      -3.848  -3.711  -3.260  0.00  0.00    -0.270 OA
BRANCH  27  29
ATOM     29  C   UNL     1      -4.318  -5.868  -4.021  0.00  0.00    +0.072 A 
ATOM     30  C   UNL     1      -3.999  -7.213  -3.817  0.00  0.00    +0.016 A 
ATOM     31  C   UNL     1      -4.853  -8.197  -4.266  0.00  0.00    +0.001 A 
ATOM     32  C   UNL     1      -6.026  -7.857  -4.918  0.00  0.00    +0.003 A 
ATOM     33  C   UNL     1      -6.351  -6.530  -5.125  0.00  0.00    +0.039 A 
ATOM     34  C   UNL     1      -5.507  -5.531  -4.675  0.00  0.00    +0.135 A 
ATOM     35  F   UNL     1      -5.827  -4.233  -4.872  0.00  0.00    -0.205 F 
ENDBRANCH  27  29
BRANCH  26  36
ATOM     36  C   UNL     1      -1.557  -6.376  -3.774  0.00  0.00    +0.108 C 
BRANCH  36  38
ATOM     37  C   UNL     1      -0.645  -8.520  -2.870  0.00  0.00    +0.005 C 
ATOM     38  C   UNL     1      -1.202  -7.144  -2.499  0.00  0.00    +0.016 C 
ENDBRANCH  36  38
ENDBRANCH  26  36
ENDBRANCH  25  26
ENDBRANCH   1  25
TORSDOF 9
