REMARK  Name = ZINC40647229
REMARK  4 active torsions:
REMARK  status: ('A' for Active; 'I' for Inactive)
REMARK    1  A    between atoms: C_9  and  S_11
REMARK    2  A    between atoms: S_11  and  C_12
REMARK    3  A    between atoms: C_13  and  N_26
REMARK    4  A    between atoms: C_14  and  N_18
REMARK                            x       y       z     vdW  Elec       q    Type
REMARK                         _______ _______ _______ _____ _____    ______ ____
ROOT
ATOM      1  C   UNL     1      -0.498  -2.892   0.122  0.00  0.00    +0.137 A 
ATOM      2  C   UNL     1      -0.877  -4.224   0.269  0.00  0.00    +0.198 A 
ATOM      3  C   UNL     1      -2.232  -4.513   0.398  0.00  0.00    +0.159 A 
ATOM      4  N   UNL     1      -3.111  -3.512   0.377  0.00  0.00    -0.218 NA
ATOM      5  C   UNL     1      -2.713  -2.264   0.237  0.00  0.00    +0.224 A 
ATOM      6  N   UNL     1      -1.439  -1.949   0.117  0.00  0.00    -0.226 NA
ENDROOT
BRANCH   3   7
ATOM      7  N   UNL     1      -2.661  -5.825   0.545  0.00  0.00    -0.282 N 
ATOM      8  C   UNL     1      -4.023  -6.113   0.565  0.00  0.00    +0.124 A 
ATOM      9  C   UNL     1      -4.446  -7.438   0.602  0.00  0.00    +0.045 A 
ATOM     10  C   UNL     1      -5.802  -7.711   0.622  0.00  0.00    +0.025 A 
ATOM     11  C   UNL     1      -6.693  -6.645   0.603  0.00  0.00    +0.059 A 
ATOM     12  C   UNL     1      -6.202  -5.354   0.567  0.00  0.00    +0.132 A 
ATOM     13  N   UNL     1      -4.903  -5.125   0.553  0.00  0.00    -0.239 NA
ATOM     14 CL   UNL     1      -8.405  -6.933   0.626  0.00  0.00    -0.082 Cl
ATOM     15  H   UNL     1      -2.012  -6.540   0.635  0.00  0.00    +0.155 HD
ENDBRANCH   3   7
BRANCH   2  16
ATOM     16  N   UNL     1       0.135  -5.304   0.285  0.00  0.00    +0.062 N 
ATOM     17  O   UNL     1       0.628  -5.654   1.332  0.00  0.00    -0.126 OA
ATOM     18  O   UNL     1       0.468  -5.837  -0.748  0.00  0.00    -0.126 OA
ENDBRANCH   2  16
BRANCH   1  19
ATOM     19  S   UNL     1       1.202  -2.460  -0.046  0.00  0.00    -0.065 S 
BRANCH  19  28
ATOM     20  C   UNL     1       1.593   1.394   1.073  0.00  0.00    +0.002 A 
ATOM     21  C   UNL     1       1.197   2.101  -0.022  0.00  0.00    +0.010 A 
ATOM     22  C   UNL     1       0.783   1.424  -1.181  0.00  0.00    +0.001 A 
ATOM     23  C   UNL     1       0.368   2.126  -2.329  0.00  0.00    +0.011 A 
ATOM     24  C   UNL     1      -0.021   1.403  -3.420  0.00  0.00    +0.020 A 
ATOM     25  C   UNL     1      -0.001   0.010  -3.375  0.00  0.00    +0.111 A 
ATOM     26  N   UNL     1       0.386  -0.639  -2.303  0.00  0.00    -0.254 NA
ATOM     27  C   UNL     1       0.779   0.008  -1.204  0.00  0.00    +0.085 A 
ATOM     28  C   UNL     1       1.195  -0.698  -0.053  0.00  0.00    +0.040 A 
ATOM     29  C   UNL     1       1.595   0.003   1.065  0.00  0.00    +0.017 A 
ENDBRANCH  19  28
ENDBRANCH   1  19
TORSDOF 4
