REMARK  Name = ZINC58846022
REMARK  9 active torsions:
REMARK  status: ('A' for Active; 'I' for Inactive)
REMARK    1  A    between atoms: C_1  and  C_2
REMARK    2  A    between atoms: C_5  and  N_8
REMARK    3  A    between atoms: N_8  and  S_9
REMARK    4  A    between atoms: S_9  and  C_12
REMARK    5  A    between atoms: C_25  and  C_28
REMARK    6  A    between atoms: C_31  and  O_34
REMARK    7  A    between atoms: O_34  and  C_35
REMARK    8  A    between atoms: C_35  and  C_36
REMARK    9  A    between atoms: C_35  and  C_37
REMARK                            x       y       z     vdW  Elec       q    Type
REMARK                         _______ _______ _______ _____ _____    ______ ____
ROOT
ATOM      1  C   UNL     1       0.468  -4.522   2.682  0.00  0.00    +0.109 A 
ATOM      2  C   UNL     1       0.873  -3.353   3.300  0.00  0.00    +0.030 A 
ATOM      3  C   UNL     1       0.416  -3.053   4.567  0.00  0.00    +0.025 A 
ATOM      4  C   UNL     1      -0.452  -3.922   5.220  0.00  0.00    +0.031 A 
ATOM      5  C   UNL     1      -0.870  -5.088   4.597  0.00  0.00    -0.018 A 
ATOM      6  C   UNL     1      -0.401  -5.381   3.324  0.00  0.00    +0.034 A 
ATOM      7  C   UNL     1      -1.830  -6.024   5.249  0.00  0.00    +0.049 C 
ATOM      8  C   UNL     1      -1.146  -7.255   5.787  0.00  0.00    -0.023 C 
ATOM      9  C   UNL     1      -1.711  -7.635   6.905  0.00  0.00    -0.030 C 
ATOM     10  C   UNL     1      -2.848  -6.710   7.278  0.00  0.00    +0.033 C 
ATOM     11  C   UNL     1      -2.576  -5.436   6.445  0.00  0.00    +0.029 C 
ATOM     12  C   UNL     1      -1.738  -4.492   7.283  0.00  0.00    +0.105 C 
ATOM     13  N   UNL     1      -0.889  -3.616   6.503  0.00  0.00    -0.336 N 
ATOM     14  H   UNL     1      -0.593  -2.784   6.904  0.00  0.00    +0.147 HD
ENDROOT
BRANCH  12  15
ATOM     15  C   UNL     1      -0.893  -5.311   8.224  0.00  0.00    -0.027 A 
ATOM     16  C   UNL     1       0.273  -5.899   7.770  0.00  0.00    +0.009 A 
ATOM     17  C   UNL     1       1.050  -6.650   8.631  0.00  0.00    +0.046 A 
ATOM     18  C   UNL     1       0.659  -6.814   9.953  0.00  0.00    +0.121 A 
ATOM     19  C   UNL     1      -0.511  -6.222  10.405  0.00  0.00    +0.046 A 
ATOM     20  C   UNL     1      -1.282  -5.467   9.542  0.00  0.00    +0.009 A 
BRANCH  18  21
ATOM     21  O   UNL     1       1.421  -7.553  10.801  0.00  0.00    -0.489 OA
BRANCH  21  22
ATOM     22  C   UNL     1       1.002  -7.609  12.166  0.00  0.00    +0.167 C 
ATOM     23  C   UNL     1       1.569  -8.870  12.822  0.00  0.00    +0.051 C 
ATOM     24  C   UNL     1       1.516  -6.373  12.909  0.00  0.00    +0.051 C 
ENDBRANCH  21  22
ENDBRANCH  18  21
ENDBRANCH  12  15
BRANCH   1  25
ATOM     25  S   UNL     1       1.057  -4.913   1.068  0.00  0.00    +0.072 S 
ATOM     26  O   UNL     1       0.843  -6.305   0.884  0.00  0.00    -0.150 OA
ATOM     27  O   UNL     1       2.341  -4.317   0.949  0.00  0.00    -0.150 OA
BRANCH  25  28
ATOM     28  N   UNL     1       0.073  -4.136  -0.013  0.00  0.00    -0.216 N 
ATOM     29  H   UNL     1       0.442  -3.466  -0.611  0.00  0.00    +0.174 HD
BRANCH  28  34
ATOM     30  C   UNL     1      -5.454  -5.386  -0.226  0.00  0.00    +0.044 C 
ATOM     31  C   UNL     1      -3.986  -5.054  -0.170  0.00  0.00    -0.050 A 
ATOM     32  C   UNL     1      -3.577  -3.733  -0.164  0.00  0.00    +0.005 A 
ATOM     33  C   UNL     1      -2.232  -3.425  -0.112  0.00  0.00    +0.025 A 
ATOM     34  C   UNL     1      -1.289  -4.444  -0.066  0.00  0.00    +0.048 A 
ATOM     35  C   UNL     1      -1.703  -5.769  -0.071  0.00  0.00    +0.025 A 
ATOM     36  C   UNL     1      -3.050  -6.071  -0.118  0.00  0.00    +0.005 A 
ENDBRANCH  28  34
ENDBRANCH  25  28
ENDBRANCH   1  25
TORSDOF 6
