REMARK  Name = ZINC27520947
REMARK  11 active torsions:
REMARK  status: ('A' for Active; 'I' for Inactive)
REMARK    1  A    between atoms: C_1  and  C_2
REMARK    2  A    between atoms: C_2  and  O_3
REMARK    3  A    between atoms: O_3  and  C_4
REMARK    4  A    between atoms: C_4  and  C_6
REMARK    5  A    between atoms: C_7  and  C_34
REMARK    6  A    between atoms: C_8  and  C_33
REMARK    7  A    between atoms: C_10  and  N_11
REMARK    8  A    between atoms: C_13  and  C_22
REMARK    9  A    between atoms: N_24  and  C_25
REMARK   10  A    between atoms: C_30  and  O_31
REMARK   11  A    between atoms: O_31  and  C_32
REMARK                            x       y       z     vdW  Elec       q    Type
REMARK                         _______ _______ _______ _____ _____    ______ ____
ROOT
ATOM      1  N   UNL     1       4.330   4.015   1.095  0.00  0.00    -0.319 N 
ATOM      2  C   UNL     1       3.425   3.314   0.437  0.00  0.00    +0.212 A 
ATOM      3  C   UNL     1       3.588   1.864   0.226  0.00  0.00    +0.098 A 
ATOM      4  C   UNL     1       2.436   1.113   0.041  0.00  0.00    +0.030 A 
ATOM      5  C   UNL     1       1.189   1.792   0.035  0.00  0.00    +0.018 A 
ATOM      6  C   UNL     1      -0.013   1.071   0.047  0.00  0.00    +0.011 A 
ATOM      7  C   UNL     1      -1.205   1.739   0.067  0.00  0.00    +0.001 A 
ATOM      8  C   UNL     1      -1.236   3.126   0.076  0.00  0.00    +0.004 A 
ATOM      9  C   UNL     1      -0.065   3.855   0.041  0.00  0.00    +0.047 A 
ATOM     10  C   UNL     1       1.157   3.198   0.007  0.00  0.00    +0.137 A 
ATOM     11  O   UNL     1       2.312   3.904  -0.068  0.00  0.00    -0.439 OA
ATOM     12  H   UNL     1       5.225   3.518   1.497  0.00  0.00    +0.169 HD
ENDROOT
BRANCH   1  17
ATOM     13  C   UNL     1       4.991   6.255   1.938  0.00  0.00    +0.093 A 
ATOM     14  C   UNL     1       4.544   7.625   1.972  0.00  0.00    -0.024 A 
ATOM     15  C   UNL     1       3.378   7.936   1.378  0.00  0.00    -0.008 A 
ATOM     16  S   UNL     1       2.816   6.377   0.725  0.00  0.00    -0.075 S 
ATOM     17  C   UNL     1       4.157   5.339   1.275  0.00  0.00    +0.095 A 
ATOM     18  C   UNL     1       2.710   9.284   1.282  0.00  0.00    +0.052 C 
ATOM     19  C   UNL     1       5.365   8.686   2.659  0.00  0.00    +0.045 C 
BRANCH  13  20
ATOM     20  C   UNL     1       6.209   5.853   2.542  0.00  0.00    +0.342 C 
ATOM     21  O   UNL     1       7.242   5.869   1.898  0.00  0.00    -0.245 OA
BRANCH  20  22
ATOM     22  O   UNL     1       6.223   5.452   3.830  0.00  0.00    -0.461 OA
BRANCH  22  24
ATOM     23  C   UNL     1       7.304   4.642   5.834  0.00  0.00    +0.048 C 
ATOM     24  C   UNL     1       7.486   5.061   4.374  0.00  0.00    +0.229 C 
ENDBRANCH  22  24
ENDBRANCH  20  22
ENDBRANCH  13  20
ENDBRANCH   1  17
BRANCH   3  25
ATOM     25  C   UNL     1       4.921   1.238   0.213  0.00  0.00    +0.253 C 
ATOM     26  O   UNL     1       5.915   1.919   0.378  0.00  0.00    -0.270 OA
ATOM     27  N   UNL     1       5.040  -0.090   0.017  0.00  0.00    -0.278 N 
ATOM     28  H   UNL     1       4.140  -0.718  -0.059  0.00  0.00    +0.155 HD
BRANCH  27  29
ATOM     29  C   UNL     1       6.309  -0.672  -0.089  0.00  0.00    +0.076 A 
ATOM     30  C   UNL     1       7.368  -0.172   0.655  0.00  0.00    +0.027 A 
ATOM     31  C   UNL     1       8.620  -0.748   0.549  0.00  0.00    +0.002 A 
ATOM     32  C   UNL     1       8.821  -1.823  -0.298  0.00  0.00    +0.004 A 
ATOM     33  C   UNL     1       7.771  -2.326  -1.043  0.00  0.00    +0.047 A 
ATOM     34  C   UNL     1       6.511  -1.758  -0.939  0.00  0.00    +0.141 A 
BRANCH  34  35
ATOM     35  O   UNL     1       5.477  -2.255  -1.667  0.00  0.00    -0.493 OA
ATOM     36  C   UNL     1       5.758  -3.369  -2.517  0.00  0.00    +0.277 C 
ENDBRANCH  34  35
ENDBRANCH  27  29
ENDBRANCH   3  25
TORSDOF 7
