REMARK  Name = ZINC35263842
REMARK  14 active torsions:
REMARK  status: ('A' for Active; 'I' for Inactive)
REMARK    1  A    between atoms: C_1  and  C_2
REMARK    2  A    between atoms: C_3  and  C_33
REMARK    3  A    between atoms: C_4  and  C_19
REMARK    4  A    between atoms: C_10  and  C_11
REMARK    5  A    between atoms: C_22  and  O_27
REMARK    6  A    between atoms: C_23  and  O_25
REMARK    7  A    between atoms: O_25  and  C_26
REMARK    8  A    between atoms: O_27  and  C_28
REMARK    9  A    between atoms: C_28  and  C_29
REMARK   10  A    between atoms: C_29  and  C_30
REMARK   11  A    between atoms: C_30  and  C_31
REMARK   12  A    between atoms: C_30  and  C_32
REMARK   13  A    between atoms: C_33  and  O_35
REMARK   14  A    between atoms: O_35  and  C_36
REMARK                            x       y       z     vdW  Elec       q    Type
REMARK                         _______ _______ _______ _____ _____    ______ ____
ROOT
ATOM      1  C   UNL     1      -0.018   1.503   0.010  0.00  0.00    +0.066 C 
ATOM      2  C   UNL     1       0.002  -0.004   0.002  0.00  0.00    +0.053 C 
ATOM      3  C   UNL     1      -1.176  -0.698   0.004  0.00  0.00    +0.085 C 
ATOM      4  C   UNL     1      -1.114  -2.208  -0.005  0.00  0.00    +0.162 C 
ATOM      5  N   UNL     1       0.238  -2.832  -0.015  0.00  0.00    -0.275 N 
ATOM      6  C   UNL     1       0.511  -4.142  -0.023  0.00  0.00    +0.268 A 
ATOM      7  O   UNL     1      -0.394  -4.958  -0.024  0.00  0.00    -0.266 OA
ATOM      8  C   UNL     1       1.865  -4.571  -0.033  0.00  0.00    +0.081 A 
ATOM      9  C   UNL     1       2.371  -5.838  -0.042  0.00  0.00    +0.035 C 
ATOM     10  S   UNL     1       2.727  -3.007  -0.028  0.00  0.00    -0.046 S 
ATOM     11  C   UNL     1       1.294  -1.948  -0.015  0.00  0.00    +0.178 A 
ATOM     12  N   UNL     1       1.163  -0.646  -0.013  0.00  0.00    -0.228 NA
ENDROOT
BRANCH   4  13
ATOM     13  C   UNL     1      -1.846  -2.709   1.214  0.00  0.00    -0.016 A 
ATOM     14  C   UNL     1      -1.220  -2.700   2.447  0.00  0.00    +0.010 A 
ATOM     15  C   UNL     1      -1.887  -3.158   3.567  0.00  0.00    +0.050 A 
ATOM     16  C   UNL     1      -3.186  -3.629   3.456  0.00  0.00    +0.162 A 
ATOM     17  C   UNL     1      -3.816  -3.638   2.215  0.00  0.00    +0.162 A 
ATOM     18  C   UNL     1      -3.143  -3.173   1.097  0.00  0.00    +0.055 A 
BRANCH  17  19
ATOM     19  O   UNL     1      -5.090  -4.099   2.101  0.00  0.00    -0.491 OA
ATOM     20  C   UNL     1      -5.673  -4.080   0.797  0.00  0.00    +0.277 C 
ENDBRANCH  17  19
BRANCH  16  21
ATOM     21  O   UNL     1      -3.843  -4.081   4.558  0.00  0.00    -0.488 OA
BRANCH  21  22
ATOM     22  C   UNL     1      -3.135  -4.042   5.798  0.00  0.00    +0.229 C 
BRANCH  22  23
ATOM     23  C   UNL     1      -4.029  -4.586   6.914  0.00  0.00    +0.044 C 
BRANCH  23  24
ATOM     24  C   UNL     1      -3.270  -4.544   8.242  0.00  0.00    -0.014 C 
ATOM     25  C   UNL     1      -4.204  -4.970   9.376  0.00  0.00    +0.007 C 
ATOM     26  C   UNL     1      -2.077  -5.499   8.177  0.00  0.00    +0.007 C 
ENDBRANCH  23  24
ENDBRANCH  22  23
ENDBRANCH  21  22
ENDBRANCH  16  21
ENDBRANCH   4  13
BRANCH   9  27
ATOM     27  C   UNL     1       3.770  -6.041  -0.051  0.00  0.00    +0.013 A 
ATOM     28  C   UNL     1       4.484  -7.235  -0.067  0.00  0.00    +0.015 A 
ATOM     29  C   UNL     1       5.852  -7.110  -0.072  0.00  0.00    +0.008 A 
ATOM     30  C   UNL     1       6.402  -5.870  -0.061  0.00  0.00    +0.046 A 
ATOM     31  S   UNL     1       5.080  -4.832  -0.051  0.00  0.00    -0.097 S 
ENDBRANCH   9  27
BRANCH   3  32
ATOM     32  C   UNL     1      -2.409  -0.027   0.014  0.00  0.00    +0.339 C 
ATOM     33  O   UNL     1      -2.439   1.191   0.021  0.00  0.00    -0.245 OA
BRANCH  32  34
ATOM     34  O   UNL     1      -3.562  -0.731   0.016  0.00  0.00    -0.465 OA
ATOM     35  C   UNL     1      -4.779   0.017   0.026  0.00  0.00    +0.280 C 
ENDBRANCH  32  34
ENDBRANCH   3  32
TORSDOF 9
