REMARK  Name = ZINC04245310
REMARK  6 active torsions:
REMARK  status: ('A' for Active; 'I' for Inactive)
REMARK    1  A    between atoms: C_1  and  O_2
REMARK    2  A    between atoms: O_2  and  C_3
REMARK    3  A    between atoms: C_6  and  C_12
REMARK    4  A    between atoms: C_8  and  N_9
REMARK    5  A    between atoms: C_15  and  C_17
REMARK    6  A    between atoms: C_21  and  N_23
REMARK                            x       y       z     vdW  Elec       q    Type
REMARK                         _______ _______ _______ _____ _____    ______ ____
ROOT
ATOM      1  C   UNL     1      -4.776   0.642   0.030  0.00  0.00    +0.079 A 
ATOM      2  C   UNL     1      -4.559  -0.712   0.022  0.00  0.00    +0.075 A 
ATOM      3  S   UNL     1      -2.772  -0.760   0.013  0.00  0.00    -0.075 S 
ATOM      4  C   UNL     1      -2.501   1.007   0.020  0.00  0.00    +0.109 A 
ATOM      5  N   UNL     1      -3.744   1.463   0.034  0.00  0.00    -0.239 NA
ENDROOT
BRANCH   1   9
ATOM      6  C   UNL     1      -8.742   2.180   0.059  0.00  0.00    +0.150 A 
ATOM      7  C   UNL     1      -8.529   0.811   0.156  0.00  0.00    +0.048 A 
ATOM      8  C   UNL     1      -7.245   0.310   0.147  0.00  0.00    +0.014 A 
ATOM      9  C   UNL     1      -6.160   1.178   0.040  0.00  0.00    +0.003 A 
ATOM     10  C   UNL     1      -6.377   2.552  -0.052  0.00  0.00    +0.046 A 
ATOM     11  C   UNL     1      -7.664   3.047  -0.048  0.00  0.00    +0.168 A 
BRANCH  11  12
ATOM     12  N   UNL     1      -7.896   4.505  -0.151  0.00  0.00    +0.060 N 
ATOM     13  O   UNL     1      -6.950   5.267  -0.245  0.00  0.00    -0.126 OA
ATOM     14  O   UNL     1      -9.032   4.944  -0.142  0.00  0.00    -0.126 OA
ENDBRANCH  11  12
BRANCH   6  16
ATOM     15  C   UNL     1     -11.072   1.722   0.181  0.00  0.00    +0.277 C 
ATOM     16  O   UNL     1     -10.009   2.671   0.069  0.00  0.00    -0.493 OA
ENDBRANCH   6  16
ENDBRANCH   1   9
BRANCH   4  17
ATOM     17  C   UNL     1      -1.228   1.759   0.017  0.00  0.00    +0.009 A 
ATOM     18  C   UNL     1      -1.239   3.155   0.030  0.00  0.00    +0.010 A 
ATOM     19  C   UNL     1      -0.050   3.854   0.022  0.00  0.00    +0.002 A 
ATOM     20  C   UNL     1       1.156   3.178   0.008  0.00  0.00    +0.023 A 
ATOM     21  C   UNL     1       1.177   1.788   0.000  0.00  0.00    +0.025 A 
ATOM     22  C   UNL     1      -0.013   1.076   0.008  0.00  0.00    +0.033 A 
BRANCH  21  23
ATOM     23  N   UNL     1       2.398   1.108  -0.015  0.00  0.00    -0.358 N 
ATOM     24  H   UNL     1       2.413   0.138  -0.020  0.00  0.00    +0.142 HD
ATOM     25  H   UNL     1       3.230   1.606  -0.020  0.00  0.00    +0.142 HD
ENDBRANCH  21  23
ENDBRANCH   4  17
TORSDOF 5
