REMARK  Name = ZINC58201190
REMARK  6 active torsions:
REMARK  status: ('A' for Active; 'I' for Inactive)
REMARK    1  A    between atoms: C_7  and  C_11
REMARK    2  A    between atoms: C_11  and  C_12
REMARK    3  A    between atoms: N_14  and  C_15
REMARK    4  A    between atoms: C_15  and  C_16
REMARK    5  A    between atoms: N_21  and  C_23
REMARK    6  A    between atoms: C_23  and  C_24
REMARK                            x       y       z     vdW  Elec       q    Type
REMARK                         _______ _______ _______ _____ _____    ______ ____
ROOT
ATOM      1  C   UNL     1       0.242  -3.584  -1.434  0.00  0.00    +0.217 C 
ATOM      2  O   UNL     1       0.660  -2.913  -2.353  0.00  0.00    -0.275 OA
ATOM      3  N   UNL     1      -0.601  -4.607  -1.676  0.00  0.00    -0.315 N 
ATOM      4  H   UNL     1      -0.935  -5.145  -0.941  0.00  0.00    +0.149 HD
ENDROOT
BRANCH   1   5
ATOM      5  C   UNL     1       0.666  -3.275  -0.021  0.00  0.00    +0.133 C 
BRANCH   5  12
ATOM      6  C   UNL     1      -0.017   1.362   0.009  0.00  0.00    +0.001 A 
ATOM      7  C   UNL     1       1.170   2.083   0.002  0.00  0.00    +0.002 A 
ATOM      8  C   UNL     1       2.386   1.436  -0.013  0.00  0.00    +0.026 A 
ATOM      9  C   UNL     1       2.428   0.046  -0.021  0.00  0.00    +0.047 A 
ATOM     10  C   UNL     1       1.223  -0.681  -0.013  0.00  0.00    +0.003 A 
ATOM     11  C   UNL     1       0.002  -0.004   0.002  0.00  0.00    +0.010 A 
ATOM     12  C   UNL     1       1.604  -2.095  -0.025  0.00  0.00    -0.014 A 
ATOM     13  C   UNL     1       2.945  -2.141  -0.038  0.00  0.00    +0.087 A 
ATOM     14  N   UNL     1       3.455  -0.871  -0.036  0.00  0.00    -0.360 N 
ATOM     15  H   UNL     1       4.399  -0.650  -0.044  0.00  0.00    +0.165 HD
ENDBRANCH   5  12
ENDBRANCH   1   5
BRANCH   3  16
ATOM     16  C   UNL     1      -1.013  -4.908  -3.049  0.00  0.00    +0.106 C 
BRANCH  16  17
ATOM     17  C   UNL     1      -1.964  -6.106  -3.046  0.00  0.00    -0.011 C 
ATOM     18  C   UNL     1      -3.255  -5.732  -2.311  0.00  0.00    +0.001 C 
ATOM     19  C   UNL     1      -4.230  -6.911  -2.381  0.00  0.00    -0.018 C 
ATOM     20  C   UNL     1      -4.481  -7.271  -3.846  0.00  0.00    -0.078 C 
ATOM     21  N   UNL     1      -3.214  -7.644  -4.486  0.00  0.00    +0.383 N 
ATOM     22  C   UNL     1      -2.299  -6.497  -4.487  0.00  0.00    -0.073 C 
ATOM     23  H   UNL     1      -2.794  -8.408  -3.978  0.00  0.00    -0.081 HD
BRANCH  21  24
ATOM     24  C   UNL     1      -3.471  -8.064  -5.870  0.00  0.00    -0.036 C 
BRANCH  24  25
ATOM     25  C   UNL     1      -4.303  -9.321  -5.868  0.00  0.00    -0.027 A 
ATOM     26  C   UNL     1      -5.652  -9.452  -5.885  0.00  0.00    +0.009 A 
ATOM     27  C   UNL     1      -6.202 -10.720  -5.879  0.00  0.00    +0.008 A 
ATOM     28  C   UNL     1      -5.377 -11.795  -5.856  0.00  0.00    +0.045 A 
ATOM     29  S   UNL     1      -3.767 -11.024  -5.849  0.00  0.00    -0.103 S 
ENDBRANCH  24  25
ENDBRANCH  21  24
ENDBRANCH  16  17
ENDBRANCH   3  16
TORSDOF 6
