REMARK  Name = ZINC42010913
REMARK  7 active torsions:
REMARK  status: ('A' for Active; 'I' for Inactive)
REMARK    1  A    between atoms: C_1  and  C_2
REMARK    2  A    between atoms: C_2  and  C_3
REMARK    3  A    between atoms: C_3  and  C_4
REMARK    4  A    between atoms: C_3  and  C_10
REMARK    5  A    between atoms: C_3  and  S_13
REMARK    6  A    between atoms: S_13  and  C_14
REMARK    7  A    between atoms: C_20  and  N_22
REMARK                            x       y       z     vdW  Elec       q    Type
REMARK                         _______ _______ _______ _____ _____    ______ ____
ROOT
ATOM      1  C   UNL     1       0.848  -0.509   1.173  0.00  0.00    +0.149 C 
ENDROOT
BRANCH   1   2
ATOM      2  C   UNL     1       2.176   0.203   1.177  0.00  0.00    -0.020 A 
ATOM      3  C   UNL     1       2.971   0.189   0.046  0.00  0.00    +0.005 A 
ATOM      4  C   UNL     1       4.189   0.842   0.050  0.00  0.00    +0.000 A 
ATOM      5  C   UNL     1       4.613   1.509   1.185  0.00  0.00    +0.000 A 
ATOM      6  C   UNL     1       3.817   1.523   2.315  0.00  0.00    +0.000 A 
ATOM      7  C   UNL     1       2.597   0.874   2.310  0.00  0.00    +0.005 A 
ENDBRANCH   1   2
BRANCH   1   8
ATOM      8  C   UNL     1       1.058  -1.967   1.493  0.00  0.00    +0.376 C 
ATOM      9  O   UNL     1       1.762  -2.654   0.773  0.00  0.00    -0.244 OA
ATOM     10  O   UNL     1       0.523  -2.459   2.472  0.00  0.00    -0.244 OA
ENDBRANCH   1   8
BRANCH   1  12
ATOM     11  C   UNL     1       0.062   1.103  -0.567  0.00  0.00    +0.006 C 
ATOM     12  C   UNL     1       0.203  -0.378  -0.208  0.00  0.00    +0.031 C 
ENDBRANCH   1  12
BRANCH   1  13
ATOM     13  S   UNL     1      -0.240   0.233   2.421  0.00  0.00    -0.065 S 
BRANCH  13  14
ATOM     14  C   UNL     1      -1.732  -0.696   2.293  0.00  0.00    +0.172 A 
ATOM     15  N   UNL     1      -2.782  -0.387   3.104  0.00  0.00    -0.302 N 
ATOM     16  H   UNL     1      -2.703   0.338   3.743  0.00  0.00    +0.171 HD
ATOM     17  C   UNL     1      -3.932  -1.088   3.020  0.00  0.00    +0.254 A 
ATOM     18  O   UNL     1      -4.878  -0.818   3.743  0.00  0.00    -0.268 OA
ATOM     19  C   UNL     1      -4.021  -2.129   2.091  0.00  0.00    +0.113 A 
ATOM     20  C   UNL     1      -2.923  -2.404   1.288  0.00  0.00    +0.124 A 
ATOM     21  N   UNL     1      -1.811  -1.672   1.411  0.00  0.00    -0.209 NA
BRANCH  20  22
ATOM     22  N   UNL     1      -2.981  -3.425   0.361  0.00  0.00    -0.343 N 
ATOM     23  H   UNL     1      -3.790  -3.953   0.270  0.00  0.00    +0.144 HD
ATOM     24  H   UNL     1      -2.212  -3.616  -0.200  0.00  0.00    +0.144 HD
ENDBRANCH  20  22
ENDBRANCH  13  14
ENDBRANCH   1  13
TORSDOF 6
