REMARK  Name = ZINC20701523
REMARK  5 active torsions:
REMARK  status: ('A' for Active; 'I' for Inactive)
REMARK    1  A    between atoms: C_2  and  C_3
REMARK    2  A    between atoms: C_3  and  N_4
REMARK    3  A    between atoms: C_5  and  C_7
REMARK    4  A    between atoms: C_14  and  C_23
REMARK    5  A    between atoms: C_28  and  O_29
REMARK                            x       y       z     vdW  Elec       q    Type
REMARK                         _______ _______ _______ _____ _____    ______ ____
ROOT
ATOM      1  C   UNL     1       4.188   5.843   0.498  0.00  0.00    +0.058 A 
ATOM      2  C   UNL     1       5.077   6.851   0.128  0.00  0.00    +0.015 A 
ATOM      3  C   UNL     1       6.140   6.563  -0.699  0.00  0.00    +0.001 A 
ATOM      4  C   UNL     1       6.328   5.269  -1.156  0.00  0.00    +0.006 A 
ATOM      5  C   UNL     1       5.462   4.260  -0.795  0.00  0.00    -0.019 A 
ATOM      6  C   UNL     1       4.367   4.525   0.032  0.00  0.00    +0.044 A 
ATOM      7  N   UNL     1       3.428   3.579   0.408  0.00  0.00    -0.336 N 
ATOM      8  C   UNL     1       3.671   2.193  -0.021  0.00  0.00    +0.109 C 
ATOM      9  C   UNL     1       4.229   2.253  -1.428  0.00  0.00    +0.029 C 
ATOM     10  C   UNL     1       5.653   2.868  -1.260  0.00  0.00    +0.049 C 
ATOM     11  C   UNL     1       6.316   2.535  -2.545  0.00  0.00    -0.023 C 
ATOM     12  C   UNL     1       5.774   1.420  -3.023  0.00  0.00    -0.030 C 
ATOM     13  C   UNL     1       4.661   0.939  -2.088  0.00  0.00    +0.033 C 
ATOM     14  H   UNL     1       2.533   3.823   0.999  0.00  0.00    +0.147 HD
ENDROOT
BRANCH   8  15
ATOM     15  C   UNL     1       2.378   1.418  -0.013  0.00  0.00    +0.017 A 
ATOM     16  C   UNL     1       1.700   1.194  -1.196  0.00  0.00    +0.029 A 
ATOM     17  C   UNL     1       0.513   0.483  -1.190  0.00  0.00    +0.043 A 
ATOM     18  C   UNL     1       0.002  -0.004   0.000  0.00  0.00    +0.043 A 
ATOM     19  C   UNL     1       0.677   0.219   1.185  0.00  0.00    +0.084 A 
ATOM     20  C   UNL     1       1.869   0.931   1.181  0.00  0.00    +0.140 A 
ATOM     21 CL   UNL     1       0.036  -0.393   2.679  0.00  0.00    -0.080 Cl
ATOM     22 CL   UNL     1      -0.333   0.197  -2.679  0.00  0.00    -0.083 Cl
BRANCH  20  23
ATOM     23  O   UNL     1       2.535   1.151   2.345  0.00  0.00    -0.505 OA
ATOM     24  H   UNL     1       2.129   0.765   3.292  0.00  0.00    +0.292 HD
ENDBRANCH  20  23
ENDBRANCH   8  15
BRANCH   1  26
ATOM     25  N   UNL     1       2.876   7.418   1.832  0.00  0.00    -0.308 N 
ATOM     26  C   UNL     1       3.052   6.159   1.384  0.00  0.00    +0.246 C 
ATOM     27  O   UNL     1       2.273   5.284   1.710  0.00  0.00    -0.270 OA
ATOM     28  H   UNL     1       3.581   8.210   1.538  0.00  0.00    +0.149 HD
BRANCH  25  29
ATOM     29  C   UNL     1       1.748   7.731   2.712  0.00  0.00    +0.131 C 
BRANCH  29  31
ATOM     30  C   UNL     1       0.731   9.947   2.839  0.00  0.00    +0.005 C 
ATOM     31  C   UNL     1       1.779   9.195   3.067  0.00  0.00    -0.016 C 
ENDBRANCH  29  31
ENDBRANCH  25  29
ENDBRANCH   1  26
TORSDOF 5
