REMARK  Name = ZINC48647905
REMARK  5 active torsions:
REMARK  status: ('A' for Active; 'I' for Inactive)
REMARK    1  A    between atoms: C_1  and  C_2
REMARK    2  A    between atoms: C_2  and  C_28
REMARK    3  A    between atoms: C_7  and  N_11
REMARK    4  A    between atoms: C_12  and  C_14
REMARK    5  A    between atoms: N_16  and  C_17
REMARK                            x       y       z     vdW  Elec       q    Type
REMARK                         _______ _______ _______ _____ _____    ______ ____
ROOT
ATOM      1  N   UNL     1       5.577  -1.047   1.539  0.00  0.00    -0.278 N 
ATOM      2  C   UNL     1       6.741  -1.272   0.897  0.00  0.00    +0.303 C 
ATOM      3  O   UNL     1       6.776  -1.266  -0.316  0.00  0.00    -0.265 OA
ATOM      4  H   UNL     1       5.561  -0.986   2.507  0.00  0.00    +0.155 HD
ENDROOT
BRANCH   1  11
ATOM      5  C   UNL     1       1.861  -1.352  -3.596  0.00  0.00    +0.104 C 
ATOM      6  C   UNL     1       1.706  -0.072  -2.773  0.00  0.00    +0.248 C 
ATOM      7  O   UNL     1       1.043  -0.350  -1.525  0.00  0.00    -0.448 OA
ATOM      8  C   UNL     1       2.042  -0.613  -0.632  0.00  0.00    +0.167 A 
ATOM      9  C   UNL     1       2.025  -1.236   0.606  0.00  0.00    +0.051 A 
ATOM     10  C   UNL     1       3.196  -1.379   1.325  0.00  0.00    +0.027 A 
ATOM     11  C   UNL     1       4.393  -0.901   0.809  0.00  0.00    +0.038 A 
ATOM     12  C   UNL     1       4.414  -0.277  -0.432  0.00  0.00    +0.073 A 
ATOM     13  C   UNL     1       3.241  -0.132  -1.153  0.00  0.00    +0.169 A 
ATOM     14  O   UNL     1       2.993   0.431  -2.371  0.00  0.00    -0.448 OA
ATOM     15  C   UNL     1       0.939   0.987  -3.568  0.00  0.00    +0.104 C 
ENDBRANCH   1  11
BRANCH   2  16
ATOM     16  C   UNL     1       7.987  -1.531   1.679  0.00  0.00    +0.300 C 
ATOM     17  O   UNL     1       7.952  -1.538   2.892  0.00  0.00    -0.265 OA
ATOM     18  N   UNL     1       9.150  -1.756   1.037  0.00  0.00    -0.301 N 
ATOM     19  H   UNL     1       9.178  -1.751   0.068  0.00  0.00    +0.150 HD
BRANCH  18  20
ATOM     20  C   UNL     1      10.373  -2.010   1.804  0.00  0.00    +0.104 C 
ATOM     21  C   UNL     1      11.341  -2.828   0.952  0.00  0.00    +0.027 C 
ATOM     22  C   UNL     1      12.688  -2.896   1.682  0.00  0.00    +0.007 C 
ATOM     23  C   UNL     1      13.325  -1.508   1.647  0.00  0.00    +0.035 C 
ATOM     24  C   UNL     1      12.350  -0.466   2.129  0.00  0.00    -0.042 A 
ATOM     25  C   UNL     1      10.994  -0.695   2.197  0.00  0.00    -0.024 A 
ATOM     26  C   UNL     1      10.149   0.312   2.644  0.00  0.00    +0.006 A 
ATOM     27  C   UNL     1      10.657   1.538   3.023  0.00  0.00    +0.000 A 
ATOM     28  C   UNL     1      12.019   1.766   2.958  0.00  0.00    +0.000 A 
ATOM     29  C   UNL     1      12.859   0.768   2.514  0.00  0.00    +0.004 A 
ENDBRANCH  18  20
ENDBRANCH   2  16
TORSDOF 3
