REMARK  Name = ZINC11821383
REMARK  7 active torsions:
REMARK  status: ('A' for Active; 'I' for Inactive)
REMARK    1  A    between atoms: C_1  and  N_2
REMARK    2  A    between atoms: C_9  and  C_11
REMARK    3  A    between atoms: C_11  and  N_12
REMARK    4  A    between atoms: C_13  and  C_15
REMARK    5  A    between atoms: C_15  and  C_16
REMARK    6  A    between atoms: C_23  and  C_24
REMARK    7  A    between atoms: C_23  and  N_63
REMARK                            x       y       z     vdW  Elec       q    Type
REMARK                         _______ _______ _______ _____ _____    ______ ____
ROOT
ATOM      1  C   UNL     1       1.539   5.739   1.569  0.00  0.00    +0.028 C 
ATOM      2  C   UNL     1       1.815   6.593   2.773  0.00  0.00    +0.200 C 
ATOM      3  O   UNL     1       1.780   7.799   2.651  0.00  0.00    -0.278 OA
ATOM      4  N   UNL     1       2.099   6.080   3.975  0.00  0.00    -0.318 N 
ATOM      5  C   UNL     1       2.131   4.644   4.237  0.00  0.00    +0.085 C 
ATOM      6  C   UNL     1       2.252   3.873   2.921  0.00  0.00    -0.058 C 
ATOM      7  H   UNL     1       2.291   6.689   4.705  0.00  0.00    +0.149 HD
ATOM      8  N   UNL     1       1.207   4.369   2.003  0.00  0.00    +0.391 N 
ATOM      9  H   UNL     1       0.306   4.382   2.496  0.00  0.00    -0.080 HD
ENDROOT
BRANCH   1  10
ATOM     10  C   UNL     1       0.350   6.319   0.799  0.00  0.00    +0.089 C 
BRANCH  10  12
ATOM     11  N   UNL     1      -2.030   6.830   1.238  0.00  0.00    -0.311 N 
ATOM     12  C   UNL     1      -0.881   6.269   1.666  0.00  0.00    +0.212 C 
ATOM     13  O   UNL     1      -0.839   5.725   2.749  0.00  0.00    -0.276 OA
ATOM     14  H   UNL     1      -2.063   7.265   0.371  0.00  0.00    +0.149 HD
BRANCH  11  15
ATOM     15  C   UNL     1      -3.227   6.782   2.080  0.00  0.00    +0.139 C 
BRANCH  15  24
ATOM     16  C   UNL     1      -7.705   9.257  -1.869  0.00  0.00    +0.129 C 
ATOM     17  N   UNL     1      -7.451   9.585  -0.460  0.00  0.00    -0.332 N 
ATOM     18  C   UNL     1      -6.992  10.984  -0.316  0.00  0.00    +0.109 C 
ATOM     19  C   UNL     1      -6.066  10.910   0.920  0.00  0.00    +0.056 C 
ATOM     20  C   UNL     1      -5.612   9.464   0.915  0.00  0.00    -0.025 A 
ATOM     21  C   UNL     1      -6.464   8.751   0.079  0.00  0.00    +0.033 A 
ATOM     22  C   UNL     1      -6.248   7.386  -0.102  0.00  0.00    +0.024 A 
ATOM     23  C   UNL     1      -5.204   6.757   0.544  0.00  0.00    +0.007 A 
ATOM     24  C   UNL     1      -4.365   7.474   1.376  0.00  0.00    -0.030 A 
ATOM     25  C   UNL     1      -4.576   8.829   1.565  0.00  0.00    +0.010 A 
ENDBRANCH  15  24
ENDBRANCH  11  15
ENDBRANCH  10  12
ENDBRANCH   1  10
BRANCH   8  26
ATOM     26  C   UNL     1       1.099   3.477   0.826  0.00  0.00    -0.042 C 
BRANCH  26  27
ATOM     27  C   UNL     1       0.874   2.063   1.298  0.00  0.00    -0.063 A 
ATOM     28  C   UNL     1       1.970   1.233   1.526  0.00  0.00    +0.002 A 
ATOM     29  C   UNL     1       1.802  -0.049   1.952  0.00  0.00    +0.009 A 
ATOM     30  C   UNL     1       0.505  -0.545   2.167  0.00  0.00    -0.018 A 
ATOM     31  C   UNL     1       0.291  -1.863   2.607  0.00  0.00    +0.008 A 
ATOM     32  C   UNL     1      -0.979  -2.310   2.804  0.00  0.00    +0.001 A 
ATOM     33  C   UNL     1      -2.075  -1.479   2.577  0.00  0.00    +0.001 A 
ATOM     34  C   UNL     1      -1.907  -0.198   2.151  0.00  0.00    +0.008 A 
ATOM     35  C   UNL     1      -0.610   0.299   1.936  0.00  0.00    -0.018 A 
ATOM     36  C   UNL     1      -0.397   1.617   1.496  0.00  0.00    +0.010 A 
ENDBRANCH  26  27
ENDBRANCH   8  26
TORSDOF 6
