REMARK  Name = ZINC36847501
REMARK  15 active torsions:
REMARK  status: ('A' for Active; 'I' for Inactive)
REMARK    1  A    between atoms: C_1  and  C_2
REMARK    2  A    between atoms: C_2  and  N_3
REMARK    3  A    between atoms: N_3  and  C_4
REMARK    4  A    between atoms: N_3  and  S_6
REMARK    5  A    between atoms: C_4  and  C_5
REMARK    6  A    between atoms: S_6  and  C_9
REMARK    7  A    between atoms: C_12  and  C_31
REMARK    8  A    between atoms: C_13  and  N_15
REMARK    9  A    between atoms: N_15  and  C_16
REMARK   10  A    between atoms: C_16  and  N_18
REMARK   11  A    between atoms: N_18  and  C_19
REMARK   12  A    between atoms: C_19  and  C_20
REMARK   13  A    between atoms: C_20  and  C_22
REMARK   14  A    between atoms: C_20  and  N_23
REMARK   15  A    between atoms: C_28  and  C_30
REMARK                            x       y       z     vdW  Elec       q    Type
REMARK                         _______ _______ _______ _____ _____    ______ ____
ROOT
ATOM      1  N   UNL     1      -6.132   2.326   1.525  0.00  0.00    -0.297 N 
ATOM      2  H   UNL     1      -6.455   3.232   1.649  0.00  0.00    +0.154 HD
ENDROOT
BRANCH   1   7
ATOM      3  C   UNL     1      -2.828   0.745   1.836  0.00  0.00    +0.107 A 
ATOM      4  C   UNL     1      -2.438   1.196   3.084  0.00  0.00    +0.029 A 
ATOM      5  C   UNL     1      -3.272   2.022   3.815  0.00  0.00    +0.007 A 
ATOM      6  C   UNL     1      -4.498   2.398   3.301  0.00  0.00    -0.029 A 
ATOM      7  C   UNL     1      -4.891   1.947   2.048  0.00  0.00    +0.037 A 
ATOM      8  C   UNL     1      -4.049   1.122   1.314  0.00  0.00    +0.052 A 
ATOM      9  C   UNL     1      -5.406   3.298   4.099  0.00  0.00    +0.045 C 
BRANCH   3  10
ATOM     10  S   UNL     1      -1.761  -0.307   0.909  0.00  0.00    +0.061 S 
ATOM     11  O   UNL     1      -2.587  -1.027   0.004  0.00  0.00    -0.153 OA
ATOM     12  O   UNL     1      -0.913  -0.955   1.847  0.00  0.00    -0.153 OA
BRANCH  10  13
ATOM     13  N   UNL     1      -0.789   0.669  -0.011  0.00  0.00    -0.177 NA
BRANCH  13  15
ATOM     14  C   UNL     1       0.311   2.523   1.144  0.00  0.00    +0.022 C 
ATOM     15  C   UNL     1       0.493   1.137   0.521  0.00  0.00    +0.106 C 
ENDBRANCH  13  15
BRANCH  13  16
ATOM     16  C   UNL     1      -1.212   1.064  -1.357  0.00  0.00    +0.106 C 
ATOM     17  C   UNL     1      -0.604   0.108  -2.384  0.00  0.00    +0.022 C 
ENDBRANCH  13  16
ENDBRANCH  10  13
ENDBRANCH   3  10
ENDBRANCH   1   7
BRANCH   1  18
ATOM     18  C   UNL     1      -6.879   1.433   0.847  0.00  0.00    +0.134 C 
ATOM     19  S   UNL     1      -6.351  -0.189   0.701  0.00  0.00    -0.019 S 
BRANCH  18  20
ATOM     20  N   UNL     1      -8.042   1.816   0.283  0.00  0.00    -0.328 N 
ATOM     21  H   UNL     1      -8.341   2.735   0.366  0.00  0.00    +0.148 HD
BRANCH  20  22
ATOM     22  C   UNL     1      -8.854   0.844  -0.454  0.00  0.00    +0.088 C 
BRANCH  22  23
ATOM     23  C   UNL     1     -10.194   1.480  -0.829  0.00  0.00    -0.054 C 
ATOM     24  C   UNL     1     -10.932   0.571  -1.813  0.00  0.00    -0.012 C 
BRANCH  23  25
ATOM     25  N   UNL     1     -11.008   1.656   0.381  0.00  0.00    +0.384 N 
ATOM     26  C   UNL     1     -11.098   0.379   1.098  0.00  0.00    -0.078 C 
ATOM     27  C   UNL     1     -12.011   0.536   2.316  0.00  0.00    -0.019 C 
ATOM     28  C   UNL     1     -11.433   1.607   3.246  0.00  0.00    -0.003 C 
ATOM     29  C   UNL     1     -11.275   2.915   2.466  0.00  0.00    -0.016 C 
ATOM     30  C   UNL     1     -10.389   2.669   1.243  0.00  0.00    -0.071 C 
ATOM     31  C   UNL     1     -10.227   3.974   0.460  0.00  0.00    -0.013 C 
ATOM     32  H   UNL     1     -11.935   1.958   0.120  0.00  0.00    -0.081 HD
ENDBRANCH  23  25
ENDBRANCH  22  23
ENDBRANCH  20  22
ENDBRANCH  18  20
ENDBRANCH   1  18
TORSDOF 10
