REMARK  Name = ZINC45026073
REMARK  4 active torsions:
REMARK  status: ('A' for Active; 'I' for Inactive)
REMARK    1  A    between atoms: C_1  and  N_2
REMARK    2  A    between atoms: C_3  and  C_16
REMARK    3  A    between atoms: C_6  and  S_7
REMARK    4  A    between atoms: S_7  and  C_8
REMARK                            x       y       z     vdW  Elec       q    Type
REMARK                         _______ _______ _______ _____ _____    ______ ____
ROOT
ATOM      1  C   UNL     1      -0.018   1.461   0.010  0.00  0.00    +0.153 C 
ATOM      2  N   UNL     1       0.002  -0.004   0.002  0.00  0.00    -0.304 N 
ATOM      3  C   UNL     1       0.008  -0.830  -1.099  0.00  0.00    +0.171 A 
ATOM      4  N   UNL     1       0.027  -2.067  -0.652  0.00  0.00    -0.128 NA
ATOM      5  N   UNL     1       0.033  -2.068   0.633  0.00  0.00    -0.122 NA
ATOM      6  C   UNL     1       0.024  -0.836   1.087  0.00  0.00    +0.198 A 
ENDROOT
BRANCH   3   7
ATOM      7  C   UNL     1      -0.004  -0.409  -2.509  0.00  0.00    +0.056 A 
ATOM      8  C   UNL     1       0.272  -1.145  -3.634  0.00  0.00    +0.019 A 
ATOM      9  C   UNL     1       0.194  -0.529  -4.862  0.00  0.00    +0.008 A 
ATOM     10  C   UNL     1      -0.151   0.784  -4.924  0.00  0.00    +0.046 A 
ATOM     11  S   UNL     1      -0.388   1.191  -3.203  0.00  0.00    -0.094 S 
ENDBRANCH   3   7
BRANCH   6  12
ATOM     12  S   UNL     1       0.034  -0.346   2.779  0.00  0.00    -0.030 S 
BRANCH  12  13
ATOM     13  C   UNL     1       0.064  -1.870   3.664  0.00  0.00    +0.111 A 
ATOM     14  C   UNL     1       0.072  -1.878   5.060  0.00  0.00    +0.075 A 
ATOM     15  C   UNL     1       0.095  -3.097   5.712  0.00  0.00    +0.135 A 
ATOM     16  N   UNL     1       0.108  -4.215   4.997  0.00  0.00    -0.203 NA
ATOM     17  C   UNL     1       0.100  -4.176   3.673  0.00  0.00    +0.215 A 
ATOM     18  N   UNL     1       0.073  -3.029   3.011  0.00  0.00    -0.208 NA
ATOM     19  N   UNL     1       0.114  -5.364   2.963  0.00  0.00    -0.327 N 
ATOM     20 CL   UNL     1       0.106  -3.165   7.447  0.00  0.00    -0.062 Cl
ATOM     21  H   UNL     1       0.130  -6.211   3.436  0.00  0.00    +0.145 HD
ATOM     22  H   UNL     1       0.109  -5.349   1.993  0.00  0.00    +0.145 HD
ENDBRANCH  12  13
ENDBRANCH   6  12
TORSDOF 3
