REMARK  Name = ZINC57848519
REMARK  5 active torsions:
REMARK  status: ('A' for Active; 'I' for Inactive)
REMARK    1  A    between atoms: C_1  and  C_2
REMARK    2  A    between atoms: C_5  and  C_8
REMARK    3  A    between atoms: N_12  and  C_16
REMARK    4  A    between atoms: C_16  and  C_17
REMARK    5  A    between atoms: C_17  and  C_18
REMARK                            x       y       z     vdW  Elec       q    Type
REMARK                         _______ _______ _______ _____ _____    ______ ____
ROOT
ATOM      1  C   UNL     1       0.059  -4.275  -0.021  0.00  0.00    +0.191 C 
ATOM      2  C   UNL     1       1.455  -4.792   0.266  0.00  0.00    +0.248 C 
ATOM      3  O   UNL     1       2.457  -4.601  -0.390  0.00  0.00    -0.273 OA
ATOM      4  N   UNL     1       1.351  -5.508   1.403  0.00  0.00    -0.224 N 
ATOM      5  C   UNL     1       0.097  -5.515   1.869  0.00  0.00    +0.309 C 
ATOM      6  O   UNL     1      -0.244  -6.094   2.882  0.00  0.00    -0.252 OA
ATOM      7  N   UNL     1      -0.747  -4.810   1.089  0.00  0.00    -0.284 N 
ATOM      8  H   UNL     1      -1.698  -4.679   1.230  0.00  0.00    +0.151 HD
ENDROOT
BRANCH   1  13
ATOM      9  C   UNL     1      -0.018   1.503   0.010  0.00  0.00    +0.044 C 
ATOM     10  C   UNL     1       0.002  -0.004   0.002  0.00  0.00    -0.050 A 
ATOM     11  C   UNL     1       0.006  -0.689  -1.199  0.00  0.00    +0.004 A 
ATOM     12  C   UNL     1       0.025  -2.071  -1.206  0.00  0.00    +0.006 A 
ATOM     13  C   UNL     1       0.040  -2.768  -0.013  0.00  0.00    -0.018 A 
ATOM     14  C   UNL     1       0.037  -2.084   1.188  0.00  0.00    +0.006 A 
ATOM     15  C   UNL     1       0.023  -0.702   1.195  0.00  0.00    +0.004 A 
ENDBRANCH   1  13
BRANCH   4  16
ATOM     16  C   UNL     1       2.473  -6.194   2.049  0.00  0.00    +0.116 C 
BRANCH  16  17
ATOM     17  C   UNL     1       3.145  -5.248   3.046  0.00  0.00    +0.004 C 
BRANCH  17  18
ATOM     18  C   UNL     1       4.316  -5.965   3.720  0.00  0.00    -0.070 C 
ATOM     19  C   UNL     1       4.908  -5.063   4.806  0.00  0.00    -0.016 C 
ATOM     20  C   UNL     1       6.080  -5.785   5.478  0.00  0.00    -0.003 C 
ATOM     21  C   UNL     1       7.112  -6.164   4.412  0.00  0.00    -0.019 C 
ATOM     22  C   UNL     1       6.438  -7.025   3.341  0.00  0.00    -0.082 C 
ATOM     23  N   UNL     1       5.345  -6.269   2.718  0.00  0.00    +0.381 N 
ATOM     24  H   UNL     1       4.938  -6.819   1.976  0.00  0.00    -0.086 HD
ATOM     25  H   UNL     1       5.706  -5.408   2.336  0.00  0.00    -0.086 HD
ENDBRANCH  17  18
ENDBRANCH  16  17
ENDBRANCH   4  16
TORSDOF 4
