REMARK  Name = ZINC46253512
REMARK  11 active torsions:
REMARK  status: ('A' for Active; 'I' for Inactive)
REMARK    1  A    between atoms: C_1  and  C_2
REMARK    2  A    between atoms: C_2  and  N_3
REMARK    3  A    between atoms: N_3  and  C_4
REMARK    4  A    between atoms: N_3  and  C_6
REMARK    5  A    between atoms: C_4  and  C_5
REMARK    6  A    between atoms: C_6  and  C_8
REMARK    7  A    between atoms: C_6  and  C_22
REMARK    8  A    between atoms: C_8  and  N_9
REMARK    9  A    between atoms: N_12  and  N_13
REMARK   10  A    between atoms: C_14  and  C_16
REMARK   11  A    between atoms: N_18  and  C_19
REMARK                            x       y       z     vdW  Elec       q    Type
REMARK                         _______ _______ _______ _____ _____    ______ ____
ROOT
ATOM      1  N   UNL     1      -3.535  -2.499  -0.670  0.00  0.00    -0.299 N 
ATOM      2  C   UNL     1      -4.846  -2.811  -0.673  0.00  0.00    +0.316 C 
ATOM      3  O   UNL     1      -5.351  -3.323   0.307  0.00  0.00    -0.251 OA
ATOM      4  N   UNL     1      -5.598  -2.555  -1.762  0.00  0.00    -0.218 N 
ATOM      5  H   UNL     1      -3.133  -2.090  -1.452  0.00  0.00    +0.150 HD
ATOM      6  H   UNL     1      -6.542  -2.780  -1.764  0.00  0.00    +0.174 HD
ENDROOT
BRANCH   4   7
ATOM      7  N   UNL     1      -5.016  -1.964  -2.892  0.00  0.00    -0.225 N 
ATOM      8  C   UNL     1      -5.767  -1.708  -3.981  0.00  0.00    +0.315 C 
ATOM      9  O   UNL     1      -6.948  -1.989  -3.983  0.00  0.00    -0.264 OA
ATOM     10  H   UNL     1      -4.072  -1.740  -2.889  0.00  0.00    +0.173 HD
BRANCH   8  11
ATOM     11  C   UNL     1      -5.147  -1.078  -5.186  0.00  0.00    +0.301 C 
ATOM     12  O   UNL     1      -3.966  -0.797  -5.183  0.00  0.00    -0.265 OA
ATOM     13  N   UNL     1      -5.898  -0.822  -6.275  0.00  0.00    -0.305 N 
ATOM     14  H   UNL     1      -6.842  -1.047  -6.277  0.00  0.00    +0.149 HD
BRANCH  13  15
ATOM     15  C   UNL     1      -5.290  -0.205  -7.456  0.00  0.00    +0.073 C 
ATOM     16  C   UNL     1      -6.067   0.918  -8.145  0.00  0.00    +0.024 C 
ATOM     17  C   UNL     1      -5.959  -0.456  -8.808  0.00  0.00    +0.024 C 
ENDBRANCH  13  15
ENDBRANCH   8  11
ENDBRANCH   4   7
BRANCH   1  18
ATOM     18  C   UNL     1      -2.719  -2.777   0.514  0.00  0.00    +0.095 C 
BRANCH  18  19
ATOM     19  C   UNL     1      -1.321  -2.184   0.320  0.00  0.00    -0.020 C 
BRANCH  19  20
ATOM     20  C   UNL     1      -0.421  -2.645   1.437  0.00  0.00    -0.052 A 
ATOM     21  C   UNL     1       0.467  -3.685   1.238  0.00  0.00    +0.009 A 
ATOM     22  C   UNL     1       1.263  -4.076   2.264  0.00  0.00    +0.045 A 
ATOM     23  S   UNL     1       0.764  -2.958   3.564  0.00  0.00    -0.105 S 
ATOM     24  C   UNL     1      -0.467  -2.043   2.651  0.00  0.00    +0.047 A 
ENDBRANCH  19  20
BRANCH  19  25
ATOM     25  N   UNL     1      -1.406  -0.718   0.333  0.00  0.00    +0.385 N 
ATOM     26  H   UNL     1      -1.880  -0.415   1.170  0.00  0.00    -0.081 HD
BRANCH  25  28
ATOM     27  C   UNL     1      -0.133   1.371   0.459  0.00  0.00    -0.017 C 
ATOM     28  C   UNL     1      -0.051  -0.149   0.305  0.00  0.00    -0.081 C 
ENDBRANCH  25  28
BRANCH  25  29
ATOM     29  C   UNL     1      -2.153  -0.260  -0.846  0.00  0.00    -0.081 C 
ATOM     30  C   UNL     1      -1.492  -0.807  -2.113  0.00  0.00    -0.017 C 
ENDBRANCH  25  29
ENDBRANCH  19  25
ENDBRANCH  18  19
ENDBRANCH   1  18
TORSDOF 9
