REMARK  Name = ZINC39206481
REMARK  12 active torsions:
REMARK  status: ('A' for Active; 'I' for Inactive)
REMARK    1  A    between atoms: C_1  and  C_2
REMARK    2  A    between atoms: C_2  and  C_3
REMARK    3  A    between atoms: C_3  and  C_4
REMARK    4  A    between atoms: C_6  and  C_18
REMARK    5  A    between atoms: C_8  and  C_16
REMARK    6  A    between atoms: C_9  and  N_15
REMARK    7  A    between atoms: C_21  and  C_24
REMARK    8  A    between atoms: C_26  and  C_39
REMARK    9  A    between atoms: C_27  and  N_38
REMARK   10  A    between atoms: C_32  and  C_35
REMARK   11  A    between atoms: C_35  and  C_36
REMARK   12  A    between atoms: C_36  and  C_37
REMARK                            x       y       z     vdW  Elec       q    Type
REMARK                         _______ _______ _______ _____ _____    ______ ____
ROOT
ATOM      1  C   UNL     1      -0.462  -2.576   3.307  0.00  0.00    -0.035 A 
ATOM      2  C   UNL     1       0.277  -3.744   3.328  0.00  0.00    +0.005 A 
ATOM      3  C   UNL     1       1.458  -3.803   4.043  0.00  0.00    +0.005 A 
ATOM      4  C   UNL     1       1.901  -2.692   4.738  0.00  0.00    -0.035 A 
ATOM      5  C   UNL     1       1.163  -1.524   4.716  0.00  0.00    +0.005 A 
ATOM      6  C   UNL     1      -0.016  -1.464   3.997  0.00  0.00    +0.005 A 
ENDROOT
BRANCH   1   9
ATOM      7  C   UNL     1      -1.413  -2.041   0.005  0.00  0.00    +0.069 C 
ATOM      8  C   UNL     1      -1.491  -2.797   1.073  0.00  0.00    +0.030 C 
ATOM      9  C   UNL     1      -1.750  -2.513   2.527  0.00  0.00    +0.098 C 
ATOM     10  C   UNL     1      -2.702  -3.600   2.991  0.00  0.00    +0.097 C 
ATOM     11  C   UNL     1      -3.003  -4.659   2.211  0.00  0.00    +0.195 C 
ATOM     12  O   UNL     1      -2.557  -4.891   0.964  0.00  0.00    -0.448 OA
ATOM     13  C   UNL     1      -1.356  -4.230   0.557  0.00  0.00    +0.343 C 
ATOM     14  N   UNL     1      -1.298  -4.027  -0.894  0.00  0.00    -0.138 NA
ATOM     15  N   UNL     1      -1.316  -2.809  -1.110  0.00  0.00    -0.155 NA
BRANCH  11  16
ATOM     16  N   UNL     1      -3.851  -5.596   2.746  0.00  0.00    -0.329 N 
ATOM     17  H   UNL     1      -4.201  -5.477   3.643  0.00  0.00    +0.145 HD
ATOM     18  H   UNL     1      -4.100  -6.377   2.228  0.00  0.00    +0.145 HD
ENDBRANCH  11  16
BRANCH  10  19
ATOM     19  C   UNL     1      -3.295  -3.499   4.291  0.00  0.00    +0.101 C 
ATOM     20  N   UNL     1      -3.765  -3.420   5.322  0.00  0.00    -0.191 NA
ENDBRANCH  10  19
BRANCH   7  21
ATOM     21  C   UNL     1      -1.433  -0.534   0.013  0.00  0.00    +0.057 C 
BRANCH  21  23
ATOM     22  C   UNL     1      -0.019   1.526   0.010  0.00  0.00    +0.004 C 
ATOM     23  C   UNL     1       0.002  -0.004   0.002  0.00  0.00    +0.003 C 
ENDBRANCH  21  23
ENDBRANCH   7  21
ENDBRANCH   1   9
BRANCH   4  24
ATOM     24  C   UNL     1       3.188  -2.756   5.519  0.00  0.00    +0.098 C 
ATOM     25  C   UNL     1       2.934  -2.429   6.979  0.00  0.00    +0.097 C 
ATOM     26  C   UNL     1       3.371  -1.280   7.535  0.00  0.00    +0.195 C 
ATOM     27  O   UNL     1       4.080  -0.311   6.927  0.00  0.00    -0.448 OA
ATOM     28  C   UNL     1       4.019  -0.250   5.500  0.00  0.00    +0.343 C 
ATOM     29  C   UNL     1       4.146  -1.704   5.030  0.00  0.00    +0.030 C 
ATOM     30  C   UNL     1       5.181  -1.717   4.227  0.00  0.00    +0.069 C 
ATOM     31  N   UNL     1       5.779  -0.498   4.210  0.00  0.00    -0.155 NA
ATOM     32  N   UNL     1       5.206   0.377   4.912  0.00  0.00    -0.138 NA
BRANCH  26  33
ATOM     33  N   UNL     1       3.059  -1.078   8.856  0.00  0.00    -0.329 N 
ATOM     34  H   UNL     1       2.549  -1.745   9.341  0.00  0.00    +0.145 HD
ATOM     35  H   UNL     1       3.349  -0.268   9.304  0.00  0.00    +0.145 HD
ENDBRANCH  26  33
BRANCH  25  36
ATOM     36  C   UNL     1       2.211  -3.364   7.787  0.00  0.00    +0.101 C 
ATOM     37  N   UNL     1       1.637  -4.106   8.428  0.00  0.00    -0.191 NA
ENDBRANCH  25  36
BRANCH  30  38
ATOM     38  C   UNL     1       5.642  -2.913   3.435  0.00  0.00    +0.057 C 
BRANCH  38  39
ATOM     39  C   UNL     1       5.050  -2.852   2.026  0.00  0.00    +0.003 C 
ATOM     40  C   UNL     1       5.518  -4.067   1.223  0.00  0.00    +0.004 C 
ENDBRANCH  38  39
ENDBRANCH  30  38
ENDBRANCH   4  24
TORSDOF 10
