REMARK  Name = ZINC20679815
REMARK  6 active torsions:
REMARK  status: ('A' for Active; 'I' for Inactive)
REMARK    1  A    between atoms: C_4  and  C_7
REMARK    2  A    between atoms: C_7  and  C_8
REMARK    3  A    between atoms: C_8  and  N_9
REMARK    4  A    between atoms: C_10  and  C_12
REMARK    5  A    between atoms: C_19  and  C_28
REMARK    6  A    between atoms: C_31  and  O_34
REMARK                            x       y       z     vdW  Elec       q    Type
REMARK                         _______ _______ _______ _____ _____    ______ ____
ROOT
ATOM      1  C   UNL     1       8.442  -3.029  -2.688  0.00  0.00    +0.058 A 
ATOM      2  C   UNL     1       9.420  -3.414  -1.773  0.00  0.00    +0.015 A 
ATOM      3  C   UNL     1      10.591  -3.989  -2.216  0.00  0.00    +0.001 A 
ATOM      4  C   UNL     1      10.791  -4.190  -3.571  0.00  0.00    +0.006 A 
ATOM      5  C   UNL     1       9.834  -3.819  -4.489  0.00  0.00    -0.019 A 
ATOM      6  C   UNL     1       8.639  -3.227  -4.070  0.00  0.00    +0.044 A 
ATOM      7  N   UNL     1       7.645  -2.787  -4.928  0.00  0.00    -0.336 N 
ATOM      8  C   UNL     1       7.829  -3.070  -6.361  0.00  0.00    +0.105 C 
ATOM      9  C   UNL     1       9.297  -2.867  -6.669  0.00  0.00    +0.029 C 
ATOM     10  C   UNL     1      10.019  -4.043  -5.940  0.00  0.00    +0.049 C 
ATOM     11  C   UNL     1      11.356  -4.066  -6.582  0.00  0.00    -0.023 C 
ATOM     12  C   UNL     1      11.238  -3.598  -7.820  0.00  0.00    -0.030 C 
ATOM     13  C   UNL     1       9.788  -3.186  -8.086  0.00  0.00    +0.033 C 
ATOM     14  H   UNL     1       6.749  -2.248  -4.585  0.00  0.00    +0.147 HD
ENDROOT
BRANCH   8  15
ATOM     15  C   UNL     1       7.434  -4.494  -6.657  0.00  0.00    -0.027 A 
ATOM     16  C   UNL     1       7.051  -4.851  -7.937  0.00  0.00    +0.009 A 
ATOM     17  C   UNL     1       6.694  -6.156  -8.213  0.00  0.00    +0.046 A 
ATOM     18  C   UNL     1       6.708  -7.107  -7.203  0.00  0.00    +0.117 A 
ATOM     19  C   UNL     1       7.088  -6.745  -5.918  0.00  0.00    +0.046 A 
ATOM     20  C   UNL     1       7.449  -5.439  -5.649  0.00  0.00    +0.009 A 
BRANCH  18  21
ATOM     21  O   UNL     1       6.352  -8.391  -7.471  0.00  0.00    -0.507 OA
ATOM     22  H   UNL     1       6.364  -9.144  -6.669  0.00  0.00    +0.292 HD
ENDBRANCH  18  21
ENDBRANCH   8  15
BRANCH   1  24
ATOM     23  N   UNL     1       6.995  -2.230  -0.886  0.00  0.00    -0.311 N 
ATOM     24  C   UNL     1       7.190  -2.416  -2.207  0.00  0.00    +0.246 C 
ATOM     25  O   UNL     1       6.334  -2.078  -3.001  0.00  0.00    -0.270 OA
ATOM     26  H   UNL     1       7.770  -2.535  -0.167  0.00  0.00    +0.149 HD
BRANCH  23  27
ATOM     27  C   UNL     1       5.752  -1.620  -0.408  0.00  0.00    +0.109 C 
BRANCH  27  28
ATOM     28  C   UNL     1       5.785  -1.524   1.119  0.00  0.00    +0.054 C 
BRANCH  28  32
ATOM     29  C   UNL     1       2.159   0.252   2.512  0.00  0.00    +0.000 A 
ATOM     30  C   UNL     1       3.246   1.049   2.208  0.00  0.00    +0.000 A 
ATOM     31  C   UNL     1       4.420   0.474   1.757  0.00  0.00    +0.004 A 
ATOM     32  C   UNL     1       4.505  -0.898   1.610  0.00  0.00    -0.046 A 
ATOM     33  C   UNL     1       3.418  -1.695   1.915  0.00  0.00    +0.004 A 
ATOM     34  C   UNL     1       2.244  -1.120   2.366  0.00  0.00    +0.000 A 
ENDBRANCH  28  32
ENDBRANCH  27  28
ENDBRANCH  23  27
ENDBRANCH   1  24
TORSDOF 6
