REMARK  Name = ZINC38649615
REMARK  12 active torsions:
REMARK  status: ('A' for Active; 'I' for Inactive)
REMARK    1  A    between atoms: C_1  and  C_2
REMARK    2  A    between atoms: C_7  and  O_8
REMARK    3  A    between atoms: O_8  and  C_9
REMARK    4  A    between atoms: C_9  and  C_10
REMARK    5  A    between atoms: C_10  and  O_12
REMARK    6  A    between atoms: O_12  and  C_13
REMARK    7  A    between atoms: C_20  and  N_35
REMARK    8  A    between atoms: C_21  and  C_33
REMARK    9  A    between atoms: C_22  and  C_24
REMARK   10  A    between atoms: C_27  and  C_30
REMARK   11  A    between atoms: C_30  and  C_31
REMARK   12  A    between atoms: C_30  and  C_32
REMARK                            x       y       z     vdW  Elec       q    Type
REMARK                         _______ _______ _______ _____ _____    ______ ____
ROOT
ATOM      1  C   UNL     1       0.100   0.350   7.125  0.00  0.00    +0.135 A 
ATOM      2  C   UNL     1       0.038   1.732   7.008  0.00  0.00    +0.047 A 
ATOM      3  C   UNL     1       0.073   2.522   8.140  0.00  0.00    +0.012 A 
ATOM      4  C   UNL     1       0.170   1.942   9.393  0.00  0.00    +0.008 A 
ATOM      5  C   UNL     1       0.233   0.563   9.515  0.00  0.00    +0.138 A 
ATOM      6  C   UNL     1       0.192  -0.234   8.378  0.00  0.00    +0.093 A 
ATOM      7  O   UNL     1       0.329  -0.024  10.734  0.00  0.00    -0.441 OA
ATOM      8  C   UNL     1      -0.016   0.662  11.837  0.00  0.00    +0.199 C 
ATOM      9  C   UNL     1      -0.092   2.014  11.846  0.00  0.00    +0.098 C 
ATOM     10  C   UNL     1       0.208   2.821  10.615  0.00  0.00    +0.098 C 
ENDROOT
BRANCH  10  11
ATOM     11  C   UNL     1       1.577   3.438  10.744  0.00  0.00    -0.035 A 
ATOM     12  C   UNL     1       2.690   2.628  10.873  0.00  0.00    +0.005 A 
ATOM     13  C   UNL     1       3.946   3.194  10.991  0.00  0.00    +0.004 A 
ATOM     14  C   UNL     1       4.089   4.569  10.981  0.00  0.00    -0.045 A 
ATOM     15  C   UNL     1       2.976   5.378  10.851  0.00  0.00    +0.004 A 
ATOM     16  C   UNL     1       1.720   4.813  10.728  0.00  0.00    +0.005 A 
BRANCH  14  17
ATOM     17  C   UNL     1       5.458   5.185  11.111  0.00  0.00    +0.013 C 
ATOM     18  C   UNL     1       5.757   6.029   9.870  0.00  0.00    +0.012 C 
ATOM     19  C   UNL     1       5.500   6.074  12.355  0.00  0.00    +0.012 C 
ENDBRANCH  14  17
ENDBRANCH  10  11
BRANCH   8  20
ATOM     20  N   UNL     1      -0.301  -0.029  12.988  0.00  0.00    -0.328 N 
ATOM     21  H   UNL     1      -0.251  -0.998  12.998  0.00  0.00    +0.145 HD
ATOM     22  H   UNL     1      -0.551   0.452  13.793  0.00  0.00    +0.145 HD
ENDBRANCH   8  20
BRANCH   9  23
ATOM     23  C   UNL     1      -0.467   2.687  13.053  0.00  0.00    +0.101 C 
ATOM     24  N   UNL     1      -0.765   3.221  14.010  0.00  0.00    -0.191 NA
ENDBRANCH   9  23
BRANCH   1  25
ATOM     25  O   UNL     1       0.066  -0.429   6.012  0.00  0.00    -0.423 OA
BRANCH  25  26
ATOM     26  C   UNL     1       1.186  -0.530   5.278  0.00  0.00    +0.350 C 
ATOM     27  O   UNL     1       2.156   0.132   5.563  0.00  0.00    -0.247 OA
BRANCH  26  28
ATOM     28  C   UNL     1       1.232  -1.467   4.099  0.00  0.00    +0.349 C 
BRANCH  28  29
ATOM     29  O   UNL     1       2.521  -1.396   3.485  0.00  0.00    -0.481 OA
BRANCH  29  36
ATOM     30  C   UNL     1       5.060  -1.268   2.255  0.00  0.00    +0.047 C 
ATOM     31  C   UNL     1       3.958  -2.166   1.753  0.00  0.00    -0.007 A 
ATOM     32  C   UNL     1       4.172  -2.974   0.653  0.00  0.00    +0.027 A 
ATOM     33  C   UNL     1       3.161  -3.798   0.192  0.00  0.00    +0.041 A 
ATOM     34  C   UNL     1       1.934  -3.814   0.831  0.00  0.00    +0.023 A 
ATOM     35  C   UNL     1       1.716  -3.008   1.931  0.00  0.00    +0.047 A 
ATOM     36  C   UNL     1       2.731  -2.185   2.398  0.00  0.00    +0.124 A 
ATOM     37 CL   UNL     1       3.432  -4.812  -1.191  0.00  0.00    -0.084 Cl
ENDBRANCH  29  36
ENDBRANCH  28  29
ENDBRANCH  26  28
ENDBRANCH  25  26
ENDBRANCH   1  25
TORSDOF 9
