REMARK  Name = ZINC30541896
REMARK  6 active torsions:
REMARK  status: ('A' for Active; 'I' for Inactive)
REMARK    1  A    between atoms: C_1  and  N_2
REMARK    2  A    between atoms: C_3  and  C_18
REMARK    3  A    between atoms: C_8  and  O_16
REMARK    4  A    between atoms: C_9  and  O_14
REMARK    5  A    between atoms: O_14  and  C_15
REMARK    6  A    between atoms: O_16  and  C_17
REMARK                            x       y       z     vdW  Elec       q    Type
REMARK                         _______ _______ _______ _____ _____    ______ ____
ROOT
ATOM      1  C   UNL     1      -0.018   1.461   0.010  0.00  0.00    +0.134 C 
ATOM      2  N   UNL     1       0.002  -0.004   0.002  0.00  0.00    -0.278 N 
ATOM      3  C   UNL     1      -1.263  -0.739   0.004  0.00  0.00    +0.191 C 
ATOM      4  N   UNL     1      -1.105  -2.019   0.705  0.00  0.00    -0.322 N 
ATOM      5  C   UNL     1       0.025  -2.788   0.439  0.00  0.00    +0.045 A 
ATOM      6  C   UNL     1       0.009  -4.167   0.532  0.00  0.00    +0.073 A 
ATOM      7  C   UNL     1       1.160  -4.888   0.251  0.00  0.00    +0.163 A 
ATOM      8  C   UNL     1       2.333  -4.229  -0.123  0.00  0.00    +0.162 A 
ATOM      9  C   UNL     1       2.360  -2.852  -0.216  0.00  0.00    +0.064 A 
ATOM     10  C   UNL     1       1.206  -2.120   0.067  0.00  0.00    +0.061 A 
ATOM     11  C   UNL     1       1.186  -0.650  -0.013  0.00  0.00    +0.250 C 
ATOM     12  O   UNL     1       2.227  -0.024  -0.087  0.00  0.00    -0.270 OA
ATOM     13  H   UNL     1      -1.774  -2.323   1.339  0.00  0.00    +0.148 HD
ENDROOT
BRANCH   3  14
ATOM     14  C   UNL     1      -1.690  -1.001  -1.417  0.00  0.00    +0.006 C 
ATOM     15  C   UNL     1      -0.848  -0.759  -2.417  0.00  0.00    +0.017 C 
ATOM     16  C   UNL     1      -1.316  -0.994  -3.800  0.00  0.00    +0.017 A 
ATOM     17  C   UNL     1      -0.427  -1.041  -4.868  0.00  0.00    +0.011 A 
ATOM     18  C   UNL     1      -0.905  -1.276  -6.142  0.00  0.00    +0.001 A 
ATOM     19  C   UNL     1      -2.260  -1.464  -6.356  0.00  0.00    +0.004 A 
ATOM     20  C   UNL     1      -3.151  -1.414  -5.300  0.00  0.00    +0.046 A 
ATOM     21  C   UNL     1      -2.688  -1.173  -4.020  0.00  0.00    +0.128 A 
ATOM     22  O   UNL     1      -3.540  -1.081  -2.967  0.00  0.00    -0.487 OA
ATOM     23  C   UNL     1      -3.067  -1.542  -1.699  0.00  0.00    +0.263 C 
ENDBRANCH   3  14
BRANCH   8  24
ATOM     24  O   UNL     1       3.455  -4.948  -0.398  0.00  0.00    -0.491 OA
ATOM     25  C   UNL     1       4.620  -4.213  -0.775  0.00  0.00    +0.277 C 
ENDBRANCH   8  24
BRANCH   7  26
ATOM     26  O   UNL     1       1.147  -6.242   0.342  0.00  0.00    -0.491 OA
ATOM     27  C   UNL     1      -0.085  -6.854   0.731  0.00  0.00    +0.277 C 
ENDBRANCH   7  26
TORSDOF 3
