REMARK  Name = ZINC12882436
REMARK  5 active torsions:
REMARK  status: ('A' for Active; 'I' for Inactive)
REMARK    1  A    between atoms: C_12  and  C_14
REMARK    2  A    between atoms: C_14  and  C_15
REMARK    3  A    between atoms: C_18  and  O_22
REMARK    4  A    between atoms: C_19  and  O_21
REMARK    5  A    between atoms: N_25  and  C_28
REMARK                            x       y       z     vdW  Elec       q    Type
REMARK                         _______ _______ _______ _____ _____    ______ ____
ROOT
ATOM      1  C   UNL     1       2.398   0.014  -0.017  0.00  0.00    +0.000 A 
ATOM      2  C   UNL     1       1.203  -0.682  -0.011  0.00  0.00    +0.002 A 
ATOM      3  C   UNL     1       0.002  -0.004   0.002  0.00  0.00    +0.023 A 
ATOM      4  C   UNL     1      -0.017   1.389   0.010  0.00  0.00    +0.036 A 
ATOM      5  C   UNL     1       1.192   2.078   0.002  0.00  0.00    -0.028 A 
ATOM      6  C   UNL     1       2.389   1.398  -0.012  0.00  0.00    +0.004 A 
ATOM      7  C   UNL     1       0.833   3.537   0.010  0.00  0.00    +0.050 C 
ATOM      8  C   UNL     1       1.425   4.255   1.229  0.00  0.00    +0.088 C 
ATOM      9  C   UNL     1       2.721   4.925   0.695  0.00  0.00    +0.073 C 
ATOM     10  C   UNL     1       2.782   4.538  -0.798  0.00  0.00    -0.053 C 
ATOM     11  C   UNL     1       2.443   6.406   0.816  0.00  0.00    +0.224 C 
ATOM     12  O   UNL     1       3.210   7.291   0.501  0.00  0.00    -0.275 OA
ATOM     13  N   UNL     1       1.219   6.588   1.324  0.00  0.00    -0.239 N 
ATOM     14  C   UNL     1       0.555   5.458   1.593  0.00  0.00    +0.225 C 
ATOM     15  O   UNL     1      -0.562   5.396   2.058  0.00  0.00    -0.275 OA
ATOM     16  C   UNL     1      -0.671   3.570   0.027  0.00  0.00    +0.211 C 
ATOM     17  O   UNL     1      -1.374   4.558   0.040  0.00  0.00    -0.277 OA
ATOM     18  N   UNL     1      -1.085   2.288   0.019  0.00  0.00    -0.286 N 
ATOM     19  H   UNL     1      -2.018   2.021   0.021  0.00  0.00    +0.155 HD
ATOM     20  N   UNL     1       1.393   4.225  -1.140  0.00  0.00    +0.394 N 
ATOM     21  H   UNL     1       0.870   5.089  -1.326  0.00  0.00    -0.083 HD
ATOM     22  H   UNL     1       1.359   3.619  -1.968  0.00  0.00    -0.083 HD
ENDROOT
BRANCH  13  23
ATOM     23  C   UNL     1       0.652   7.916   1.567  0.00  0.00    +0.084 C 
ATOM     24  C   UNL     1       0.518   8.656   0.221  0.00  0.00    +0.023 C 
ATOM     25  C   UNL     1      -0.495   9.757   0.379  0.00  0.00    +0.002 C 
ATOM     26  C   UNL     1       0.154  11.110   0.731  0.00  0.00    +0.000 C 
ATOM     27  C   UNL     1       1.286  10.977   1.767  0.00  0.00    +0.000 C 
ATOM     28  C   UNL     1       0.944  10.018   2.874  0.00  0.00    +0.002 C 
ATOM     29  C   UNL     1       1.504   8.628   2.509  0.00  0.00    +0.023 C 
ENDBRANCH  13  23
BRANCH  10  30
ATOM     30  C   UNL     1       3.313   5.707  -1.630  0.00  0.00    +0.020 C 
BRANCH  30  31
ATOM     31  C   UNL     1       3.409   5.292  -3.076  0.00  0.00    -0.045 A 
ATOM     32  C   UNL     1       2.331   5.481  -3.920  0.00  0.00    +0.007 A 
ATOM     33  C   UNL     1       2.414   5.101  -5.247  0.00  0.00    +0.049 A 
ATOM     34  C   UNL     1       3.579   4.531  -5.733  0.00  0.00    +0.158 A 
ATOM     35  C   UNL     1       4.664   4.342  -4.883  0.00  0.00    +0.158 A 
ATOM     36  C   UNL     1       4.576   4.728  -3.555  0.00  0.00    +0.052 A 
BRANCH  35  37
ATOM     37  O   UNL     1       5.811   3.782  -5.356  0.00  0.00    -0.503 OA
ATOM     38  H   UNL     1       6.447   4.423  -5.702  0.00  0.00    +0.292 HD
ENDBRANCH  35  37
BRANCH  34  39
ATOM     39  O   UNL     1       3.662   4.157  -7.038  0.00  0.00    -0.503 OA
ATOM     40  H   UNL     1       3.991   4.851  -7.626  0.00  0.00    +0.292 HD
ENDBRANCH  34  39
ENDBRANCH  30  31
ENDBRANCH  10  30
TORSDOF 5
