REMARK  Name = ZINC54201414
REMARK  7 active torsions:
REMARK  status: ('A' for Active; 'I' for Inactive)
REMARK    1  A    between atoms: C_1  and  O_2
REMARK    2  A    between atoms: O_2  and  C_3
REMARK    3  A    between atoms: C_6  and  C_9
REMARK    4  A    between atoms: C_12  and  C_15
REMARK    5  A    between atoms: C_20  and  O_21
REMARK    6  A    between atoms: C_27  and  C_28
REMARK    7  A    between atoms: C_33  and  O_34
REMARK                            x       y       z     vdW  Elec       q    Type
REMARK                         _______ _______ _______ _____ _____    ______ ____
ROOT
ATOM      1  C   UNL     1      -5.011  -2.672   0.800  0.00  0.00    +0.069 C 
ATOM      2  N   UNL     1      -6.147  -2.078   0.669  0.00  0.00    -0.182 NA
ATOM      3  N   UNL     1      -7.238  -2.944   0.610  0.00  0.00    -0.195 N 
ATOM      4  C   UNL     1      -6.752  -4.329   0.719  0.00  0.00    +0.139 C 
ATOM      5  C   UNL     1      -5.224  -4.168   0.844  0.00  0.00    +0.087 C 
ATOM      6  C   UNL     1      -8.547  -2.567   0.473  0.00  0.00    +0.174 C 
ATOM      7  N   UNL     1      -9.623  -3.338   0.418  0.00  0.00    -0.152 NA
ATOM      8  C   UNL     1     -10.835  -2.848   0.285  0.00  0.00    +0.276 C 
ATOM      9  O   UNL     1     -11.819  -3.568   0.235  0.00  0.00    -0.267 OA
ATOM     10  C   UNL     1     -10.942  -1.373   0.199  0.00  0.00    +0.080 C 
ATOM     11  C   UNL     1     -12.040  -0.587   0.061  0.00  0.00    +0.032 C 
ATOM     12  S   UNL     1      -9.218  -0.917   0.336  0.00  0.00    -0.050 S 
ENDROOT
BRANCH  11  13
ATOM     13  C   UNL     1     -11.916   0.872   0.160  0.00  0.00    +0.019 A 
ATOM     14  C   UNL     1     -10.787   1.444   0.758  0.00  0.00    +0.031 A 
ATOM     15  C   UNL     1     -10.678   2.816   0.847  0.00  0.00    +0.042 A 
ATOM     16  C   UNL     1     -11.681   3.631   0.346  0.00  0.00    +0.023 A 
ATOM     17  C   UNL     1     -12.801   3.080  -0.247  0.00  0.00    +0.047 A 
ATOM     18  C   UNL     1     -12.927   1.704  -0.351  0.00  0.00    +0.124 A 
ATOM     19 CL   UNL     1      -9.278   3.525   1.589  0.00  0.00    -0.084 Cl
BRANCH  18  20
ATOM     20  O   UNL     1     -14.024   1.162  -0.938  0.00  0.00    -0.506 OA
ATOM     21  H   UNL     1     -14.752   0.987  -0.326  0.00  0.00    +0.292 HD
ENDBRANCH  18  20
ENDBRANCH  11  13
BRANCH   1  25
ATOM     22  C   UNL     1      -1.246  -0.726   1.052  0.00  0.00    +0.120 A 
ATOM     23  C   UNL     1      -2.406   0.025   0.918  0.00  0.00    +0.046 A 
ATOM     24  C   UNL     1      -3.630  -0.602   0.835  0.00  0.00    +0.013 A 
ATOM     25  C   UNL     1      -3.704  -1.996   0.887  0.00  0.00    -0.002 A 
ATOM     26  C   UNL     1      -2.534  -2.748   1.023  0.00  0.00    +0.013 A 
ATOM     27  C   UNL     1      -1.313  -2.113   1.099  0.00  0.00    +0.046 A 
BRANCH  22  29
ATOM     28  C   UNL     1      -0.044   1.324   1.078  0.00  0.00    +0.277 C 
ATOM     29  O   UNL     1      -0.041  -0.104   1.133  0.00  0.00    -0.495 OA
ENDBRANCH  22  29
ENDBRANCH   1  25
BRANCH   4  30
ATOM     30  C   UNL     1      -7.326  -4.997   1.942  0.00  0.00    +0.017 A 
ATOM     31  C   UNL     1      -7.859  -4.233   2.962  0.00  0.00    +0.009 A 
ATOM     32  C   UNL     1      -8.384  -4.845   4.084  0.00  0.00    +0.001 A 
ATOM     33  C   UNL     1      -8.379  -6.224   4.189  0.00  0.00    +0.004 A 
ATOM     34  C   UNL     1      -7.848  -6.993   3.171  0.00  0.00    +0.046 A 
ATOM     35  C   UNL     1      -7.324  -6.381   2.041  0.00  0.00    +0.122 A 
BRANCH  35  36
ATOM     36  O   UNL     1      -6.806  -7.135   1.037  0.00  0.00    -0.506 OA
ATOM     37  H   UNL     1      -5.863  -7.324   1.133  0.00  0.00    +0.292 HD
ENDBRANCH  35  36
ENDBRANCH   4  30
TORSDOF 6
