REMARK  Name = ZINC19727923
REMARK  7 active torsions:
REMARK  status: ('A' for Active; 'I' for Inactive)
REMARK    1  A    between atoms: C_7  and  C_11
REMARK    2  A    between atoms: C_11  and  C_12
REMARK    3  A    between atoms: C_12  and  N_13
REMARK    4  A    between atoms: C_14  and  C_16
REMARK    5  A    between atoms: C_16  and  N_17
REMARK    6  A    between atoms: C_20  and  C_23
REMARK    7  A    between atoms: C_20  and  N_26
REMARK                            x       y       z     vdW  Elec       q    Type
REMARK                         _______ _______ _______ _____ _____    ______ ____
ROOT
ATOM      1  N   UNL     1      -1.611  -6.466  -4.540  0.00  0.00    +0.386 N 
ATOM      2  C   UNL     1      -0.811  -7.197  -5.530  0.00  0.00    -0.076 C 
ATOM      3  C   UNL     1      -1.684  -7.554  -6.735  0.00  0.00    +0.013 C 
ATOM      4  C   UNL     1      -2.850  -8.431  -6.271  0.00  0.00    +0.095 C 
ATOM      5  C   UNL     1      -3.635  -7.689  -5.185  0.00  0.00    +0.013 C 
ATOM      6  C   UNL     1      -2.689  -7.327  -4.038  0.00  0.00    -0.076 C 
ATOM      7  H   UNL     1      -2.010  -5.646  -4.973  0.00  0.00    -0.081 HD
ENDROOT
BRANCH   4   8
ATOM      8  N   UNL     1      -3.735  -8.714  -7.409  0.00  0.00    -0.289 NA
ATOM      9  C   UNL     1      -3.003  -9.386  -8.490  0.00  0.00    +0.085 C 
ATOM     10  C   UNL     1      -3.915  -9.534  -9.710  0.00  0.00    +0.015 C 
ATOM     11  C   UNL     1      -5.150 -10.350  -9.322  0.00  0.00    +0.002 C 
ATOM     12  C   UNL     1      -5.868  -9.655  -8.162  0.00  0.00    +0.015 C 
ATOM     13  C   UNL     1      -4.899  -9.503  -6.987  0.00  0.00    +0.085 C 
ENDBRANCH   4   8
BRANCH   4  14
ATOM     14  C   UNL     1      -2.316  -9.725  -5.711  0.00  0.00    +0.231 C 
ATOM     15  O   UNL     1      -1.163 -10.041  -5.911  0.00  0.00    -0.274 OA
ATOM     16  N   UNL     1      -3.121 -10.530  -4.989  0.00  0.00    -0.328 N 
ATOM     17  H   UNL     1      -4.061 -10.313  -4.890  0.00  0.00    +0.145 HD
ATOM     18  H   UNL     1      -2.760 -11.326  -4.569  0.00  0.00    +0.145 HD
ENDBRANCH   4  14
BRANCH   1  19
ATOM     19  C   UNL     1      -0.751  -6.058  -3.422  0.00  0.00    +0.019 C 
BRANCH  19  21
ATOM     20  N   UNL     1       1.187  -4.564  -3.057  0.00  0.00    -0.317 N 
ATOM     21  C   UNL     1       0.282  -5.077  -3.914  0.00  0.00    +0.196 C 
ATOM     22  O   UNL     1       0.300  -4.751  -5.082  0.00  0.00    -0.278 OA
ATOM     23  H   UNL     1       1.172  -4.825  -2.123  0.00  0.00    +0.149 HD
BRANCH  20  24
ATOM     24  C   UNL     1       2.191  -3.610  -3.536  0.00  0.00    +0.109 C 
BRANCH  24  25
ATOM     25  C   UNL     1       3.087  -3.185  -2.371  0.00  0.00    +0.056 C 
BRANCH  25  32
ATOM     26  C   UNL     1       3.054   1.459  -3.006  0.00  0.00    +0.001 A 
ATOM     27  C   UNL     1       4.260   1.947  -3.489  0.00  0.00    +0.002 A 
ATOM     28  C   UNL     1       5.315   1.096  -3.735  0.00  0.00    +0.026 A 
ATOM     29  C   UNL     1       5.173  -0.267  -3.496  0.00  0.00    +0.047 A 
ATOM     30  C   UNL     1       3.949  -0.757  -3.006  0.00  0.00    +0.003 A 
ATOM     31  C   UNL     1       2.892   0.124  -2.765  0.00  0.00    +0.010 A 
ATOM     32  C   UNL     1       4.120  -2.205  -2.864  0.00  0.00    -0.021 A 
ATOM     33  C   UNL     1       5.371  -2.492  -3.255  0.00  0.00    +0.087 A 
ATOM     34  N   UNL     1       6.016  -1.347  -3.636  0.00  0.00    -0.360 N 
ATOM     35  H   UNL     1       6.930  -1.303  -3.957  0.00  0.00    +0.165 HD
ENDBRANCH  25  32
ENDBRANCH  24  25
ENDBRANCH  20  24
ENDBRANCH  19  21
ENDBRANCH   1  19
TORSDOF 7
