REMARK  Name = ZINC22444263
REMARK  9 active torsions:
REMARK  status: ('A' for Active; 'I' for Inactive)
REMARK    1  A    between atoms: C_4  and  C_7
REMARK    2  A    between atoms: C_10  and  S_18
REMARK    3  A    between atoms: N_11  and  C_12
REMARK    4  A    between atoms: S_18  and  C_19
REMARK    5  A    between atoms: C_19  and  C_20
REMARK    6  A    between atoms: N_22  and  C_23
REMARK    7  A    between atoms: C_23  and  C_24
REMARK    8  A    between atoms: C_24  and  C_26
REMARK    9  A    between atoms: C_24  and  N_31
REMARK                            x       y       z     vdW  Elec       q    Type
REMARK                         _______ _______ _______ _____ _____    ______ ____
ROOT
ATOM      1  C   UNL     1       0.082  -4.183  -3.469  0.00  0.00    +0.173 C 
ENDROOT
BRANCH   1   2
ATOM      2  C   UNL     1      -0.865  -3.936  -4.615  0.00  0.00    +0.223 C 
ATOM      3  O   UNL     1      -1.149  -2.801  -4.934  0.00  0.00    -0.275 OA
ATOM      4  N   UNL     1      -1.398  -4.977  -5.285  0.00  0.00    -0.316 N 
ATOM      5  H   UNL     1      -1.141  -6.007  -4.996  0.00  0.00    +0.149 HD
BRANCH   4   6
ATOM      6  C   UNL     1      -2.319  -4.737  -6.399  0.00  0.00    +0.096 C 
BRANCH   6   7
ATOM      7  C   UNL     1      -2.775  -6.076  -6.982  0.00  0.00    +0.016 C 
BRANCH   7   8
ATOM      8  N   UNL     1      -1.598  -6.873  -7.356  0.00  0.00    +0.387 N 
ATOM      9  C   UNL     1      -0.741  -6.136  -8.294  0.00  0.00    -0.078 C 
ATOM     10  C   UNL     1       0.541  -6.933  -8.547  0.00  0.00    -0.019 C 
ATOM     11  C   UNL     1       0.179  -8.303  -9.126  0.00  0.00    -0.004 C 
ATOM     12  C   UNL     1      -0.753  -9.030  -8.152  0.00  0.00    -0.019 C 
ATOM     13  C   UNL     1      -1.997  -8.173  -7.910  0.00  0.00    -0.078 C 
ATOM     14  H   UNL     1      -1.012  -7.062  -6.444  0.00  0.00    -0.081 HD
ENDBRANCH   7   8
BRANCH   7  15
ATOM     15  C   UNL     1      -3.623  -5.830  -8.202  0.00  0.00    +0.093 A 
ATOM     16  C   UNL     1      -4.956  -5.994  -8.280  0.00  0.00    +0.043 A 
ATOM     17  C   UNL     1      -5.335  -5.650  -9.598  0.00  0.00    +0.041 A 
ATOM     18  C   UNL     1      -4.210  -5.304 -10.249  0.00  0.00    +0.195 A 
ATOM     19  O   UNL     1      -3.177  -5.415  -9.399  0.00  0.00    -0.469 OA
ENDBRANCH   7  15
ENDBRANCH   6   7
ENDBRANCH   4   6
ENDBRANCH   1   2
BRANCH   1  20
ATOM     20  S   UNL     1       0.621  -2.599  -2.780  0.00  0.00    -0.076 S 
BRANCH  20  24
ATOM     21  C   UNL     1       3.080  -3.271   0.185  0.00  0.00    +0.169 A 
ATOM     22  N   UNL     1       2.767  -4.482  -0.213  0.00  0.00    -0.128 NA
ATOM     23  N   UNL     1       1.951  -4.423  -1.204  0.00  0.00    -0.122 NA
ATOM     24  C   UNL     1       1.687  -3.170  -1.498  0.00  0.00    +0.197 A 
ATOM     25  N   UNL     1       2.393  -2.391  -0.622  0.00  0.00    -0.270 N 
BRANCH  21  29
ATOM     26  C   UNL     1       5.705  -2.257   3.367  0.00  0.00    +0.000 A 
ATOM     27  C   UNL     1       4.813  -1.316   2.882  0.00  0.00    +0.001 A 
ATOM     28  C   UNL     1       3.958  -1.639   1.849  0.00  0.00    +0.011 A 
ATOM     29  C   UNL     1       3.993  -2.918   1.292  0.00  0.00    +0.020 A 
ATOM     30  C   UNL     1       4.891  -3.865   1.789  0.00  0.00    +0.011 A 
ATOM     31  C   UNL     1       5.745  -3.527   2.819  0.00  0.00    +0.001 A 
ENDBRANCH  21  29
BRANCH  25  32
ATOM     32  C   UNL     1       2.417  -0.991  -0.563  0.00  0.00    +0.051 A 
ATOM     33  C   UNL     1       1.285  -0.291  -0.169  0.00  0.00    +0.026 A 
ATOM     34  C   UNL     1       1.312   1.089  -0.111  0.00  0.00    +0.002 A 
ATOM     35  C   UNL     1       2.466   1.773  -0.445  0.00  0.00    +0.000 A 
ATOM     36  C   UNL     1       3.596   1.079  -0.838  0.00  0.00    +0.002 A 
ATOM     37  C   UNL     1       3.575  -0.300  -0.898  0.00  0.00    +0.026 A 
ENDBRANCH  25  32
ENDBRANCH  20  24
ENDBRANCH   1  20
TORSDOF 9
