REMARK  Name = ZINC66340286
REMARK  4 active torsions:
REMARK  status: ('A' for Active; 'I' for Inactive)
REMARK    1  A    between atoms: C_1  and  C_2
REMARK    2  A    between atoms: N_4  and  C_5
REMARK    3  A    between atoms: C_5  and  C_11
REMARK    4  A    between atoms: C_19  and  C_21
REMARK                            x       y       z     vdW  Elec       q    Type
REMARK                         _______ _______ _______ _____ _____    ______ ____
ROOT
ATOM      1  C   UNL     1      -0.500  -1.806  -1.795  0.00  0.00    +0.239 C 
ATOM      2  O   UNL     1      -1.018  -2.602  -2.550  0.00  0.00    -0.273 OA
ATOM      3  N   UNL     1       0.769  -1.406  -2.005  0.00  0.00    -0.297 N 
ATOM      4  C   UNL     1       1.372  -0.360  -1.166  0.00  0.00    +0.127 C 
ATOM      5  C   UNL     1       2.667  -0.908  -0.555  0.00  0.00    +0.126 C 
ATOM      6  N   UNL     1       3.474  -1.510  -1.626  0.00  0.00    -0.298 N 
ATOM      7  C   UNL     1       2.872  -2.555  -2.465  0.00  0.00    +0.126 C 
ATOM      8  C   UNL     1       1.578  -2.011  -3.072  0.00  0.00    +0.127 C 
ATOM      9  C   UNL     1       4.744  -1.110  -1.835  0.00  0.00    +0.219 C 
ATOM     10  O   UNL     1       5.266  -0.323  -1.074  0.00  0.00    -0.275 OA
ENDROOT
BRANCH   1  11
ATOM     11  C   UNL     1      -1.277  -1.264  -0.623  0.00  0.00    +0.111 C 
ATOM     12  C   UNL     1      -2.525  -2.121  -0.398  0.00  0.00    +0.035 C 
ATOM     13  C   UNL     1      -3.313  -1.572   0.792  0.00  0.00    +0.003 C 
ATOM     14  C   UNL     1      -3.732  -0.128   0.504  0.00  0.00    +0.000 C 
ATOM     15  C   UNL     1      -2.484   0.729   0.279  0.00  0.00    +0.003 C 
ATOM     16  C   UNL     1      -1.696   0.179  -0.911  0.00  0.00    +0.035 C 
BRANCH  11  20
ATOM     17  C   UNL     1       1.074  -2.473   2.143  0.00  0.00    +0.109 C 
ATOM     18  C   UNL     1       0.130  -2.457   0.969  0.00  0.00    +0.211 C 
ATOM     19  O   UNL     1      -0.120  -3.486   0.377  0.00  0.00    -0.276 OA
ATOM     20  N   UNL     1      -0.438  -1.299   0.577  0.00  0.00    -0.302 N 
ATOM     21  H   UNL     1      -0.291  -0.489   1.089  0.00  0.00    +0.150 HD
ENDBRANCH  11  20
ENDBRANCH   1  11
BRANCH   9  22
ATOM     22  C   UNL     1       5.516  -1.639  -3.017  0.00  0.00    +0.075 C 
ATOM     23  C   UNL     1       5.791  -3.131  -2.818  0.00  0.00    +0.013 C 
ATOM     24  C   UNL     1       6.575  -3.669  -4.017  0.00  0.00    +0.001 C 
ATOM     25  C   UNL     1       7.902  -2.917  -4.138  0.00  0.00    +0.000 C 
ATOM     26  C   UNL     1       7.627  -1.425  -4.336  0.00  0.00    +0.001 C 
ATOM     27  C   UNL     1       6.843  -0.887  -3.137  0.00  0.00    +0.013 C 
ENDBRANCH   9  22
TORSDOF 3
