REMARK  Name = ZINC00073324
REMARK  2 active torsions:
REMARK  status: ('A' for Active; 'I' for Inactive)
REMARK    1  A    between atoms: N_14  and  N_15
REMARK    2  A    between atoms: C_16  and  C_18
REMARK                            x       y       z     vdW  Elec       q    Type
REMARK                         _______ _______ _______ _____ _____    ______ ____
ROOT
ATOM      1  C   UNL     1      -2.558   8.451   0.115  0.00  0.00    +0.000 A 
ATOM      2  C   UNL     1      -1.405   7.817  -0.314  0.00  0.00    +0.001 A 
ATOM      3  C   UNL     1      -1.341   6.438  -0.349  0.00  0.00    +0.011 A 
ATOM      4  C   UNL     1      -2.444   5.690   0.051  0.00  0.00    +0.017 A 
ATOM      5  C   UNL     1      -3.606   6.337   0.472  0.00  0.00    -0.035 A 
ATOM      6  C   UNL     1      -3.658   7.712   0.500  0.00  0.00    +0.004 A 
ATOM      7  C   UNL     1      -4.787   5.499   0.894  0.00  0.00    +0.063 C 
ATOM      8  C   UNL     1      -4.825   4.230   0.049  0.00  0.00    +0.044 C 
ATOM      9  C   UNL     1      -5.922   3.281   0.581  0.00  0.00    +0.028 C 
ATOM     10  C   UNL     1      -6.266   2.425  -0.665  0.00  0.00    +0.002 C 
ATOM     11  C   UNL     1      -6.187   3.420  -1.842  0.00  0.00    +0.002 C 
ATOM     12  C   UNL     1      -5.265   4.566  -1.387  0.00  0.00    +0.028 C 
ATOM     13  C   UNL     1      -2.416   4.209   0.036  0.00  0.00    +0.117 C 
ATOM     14  N   UNL     1      -1.213   3.536   0.027  0.00  0.00    -0.249 N 
ATOM     15  H   UNL     1      -0.380   4.032   0.026  0.00  0.00    +0.171 HD
ATOM     16  N   UNL     1      -3.535   3.466   0.038  0.00  0.00    -0.366 N 
ATOM     17  H   UNL     1      -3.509   2.440   0.031  0.00  0.00    +0.161 HD
ENDROOT
BRANCH  14  18
ATOM     18  N   UNL     1      -1.194   2.135   0.019  0.00  0.00    -0.231 N 
ATOM     19  C   UNL     1      -0.018   1.477   0.010  0.00  0.00    +0.260 C 
ATOM     20  O   UNL     1       1.026   2.099   0.004  0.00  0.00    -0.269 OA
ATOM     21  H   UNL     1      -2.028   1.639   0.021  0.00  0.00    +0.173 HD
BRANCH  19  22
ATOM     22  C   UNL     1       0.002  -0.004   0.002  0.00  0.00    +0.041 A 
ATOM     23  C   UNL     1      -1.187  -0.739   0.015  0.00  0.00    +0.033 A 
ATOM     24  C   UNL     1      -1.122  -2.119   0.002  0.00  0.00    +0.111 A 
ATOM     25  N   UNL     1       0.039  -2.741  -0.013  0.00  0.00    -0.263 NA
ATOM     26  C   UNL     1       1.183  -2.087  -0.021  0.00  0.00    +0.111 A 
ATOM     27  C   UNL     1       1.211  -0.706  -0.013  0.00  0.00    +0.033 A 
ENDBRANCH  19  22
ENDBRANCH  14  18
TORSDOF 2
