REMARK  Name = ZINC35612410
REMARK  5 active torsions:
REMARK  status: ('A' for Active; 'I' for Inactive)
REMARK    1  A    between atoms: C_3  and  C_9
REMARK    2  A    between atoms: C_5  and  C_7
REMARK    3  A    between atoms: C_9  and  S_10
REMARK    4  A    between atoms: S_10  and  N_13
REMARK    5  A    between atoms: C_17  and  O_20
REMARK                            x       y       z     vdW  Elec       q    Type
REMARK                         _______ _______ _______ _____ _____    ______ ____
ROOT
ATOM      1  S   UNL     1       4.204   2.510   1.684  0.00  0.00    +0.036 S 
ATOM      2  O   UNL     1       3.301   3.398   2.327  0.00  0.00    -0.158 OA
ATOM      3  O   UNL     1       4.585   1.289   2.304  0.00  0.00    -0.158 OA
ENDROOT
BRANCH   1   4
ATOM      4  N   UNL     1       5.613   3.368   1.542  0.00  0.00    -0.178 NA
ATOM      5  C   UNL     1       6.907   2.676   1.459  0.00  0.00    +0.109 C 
ATOM      6  C   UNL     1       7.838   3.240   2.537  0.00  0.00    +0.020 C 
ATOM      7  C   UNL     1       7.927   4.760   2.383  0.00  0.00    +0.034 C 
ATOM      8  C   UNL     1       6.539   5.377   2.573  0.00  0.00    +0.130 C 
ATOM      9  C   UNL     1       5.593   4.836   1.490  0.00  0.00    +0.140 C 
BRANCH   8  10
ATOM     10  O   UNL     1       6.629   6.798   2.460  0.00  0.00    -0.390 OA
ATOM     11  H   UNL     1       7.215   7.208   3.111  0.00  0.00    +0.210 HD
ENDBRANCH   8  10
ENDBRANCH   1   4
BRANCH   1  12
ATOM     12  C   UNL     1       3.671   2.204  -0.023  0.00  0.00    +0.220 C 
BRANCH  12  15
ATOM     13  C   UNL     1      -0.017   1.375   0.010  0.00  0.00    +0.002 A 
ATOM     14  C   UNL     1       1.170   2.086   0.002  0.00  0.00    +0.005 A 
ATOM     15  C   UNL     1       2.383   1.421  -0.013  0.00  0.00    -0.024 A 
ATOM     16  C   UNL     1       2.416   0.041  -0.021  0.00  0.00    +0.024 A 
ATOM     17  C   UNL     1       1.223  -0.682  -0.013  0.00  0.00    +0.052 A 
ATOM     18  C   UNL     1       0.002  -0.004   0.002  0.00  0.00    +0.019 A 
BRANCH  17  19
ATOM     19  C   UNL     1       1.250  -2.114  -0.022  0.00  0.00    +0.099 C 
ATOM     20  N   UNL     1       1.271  -3.250  -0.029  0.00  0.00    -0.191 NA
ENDBRANCH  17  19
ENDBRANCH  12  15
ENDBRANCH   1  12
TORSDOF 5
