REMARK  Name = ZINC20233644
REMARK  9 active torsions:
REMARK  status: ('A' for Active; 'I' for Inactive)
REMARK    1  A    between atoms: C_1  and  C_2
REMARK    2  A    between atoms: C_3  and  N_15
REMARK    3  A    between atoms: N_6  and  C_9
REMARK    4  A    between atoms: N_7  and  C_8
REMARK    5  A    between atoms: C_16  and  C_18
REMARK    6  A    between atoms: C_18  and  N_19
REMARK    7  A    between atoms: N_19  and  C_20
REMARK    8  A    between atoms: N_19  and  S_27
REMARK    9  A    between atoms: S_27  and  C_30
REMARK                            x       y       z     vdW  Elec       q    Type
REMARK                         _______ _______ _______ _____ _____    ______ ____
ROOT
ATOM      1  N   UNL     1       2.054  -3.409  -4.160  0.00  0.00    -0.278 N 
ATOM      2  C   UNL     1       3.082  -2.558  -3.973  0.00  0.00    +0.237 C 
ATOM      3  O   UNL     1       2.955  -1.383  -4.246  0.00  0.00    -0.274 OA
ATOM      4  H   UNL     1       2.195  -4.487  -3.994  0.00  0.00    +0.155 HD
ENDROOT
BRANCH   1   7
ATOM      5  C   UNL     1      -0.605  -4.034  -2.762  0.00  0.00    +0.067 C 
ATOM      6  C   UNL     1      -0.392  -3.171  -3.979  0.00  0.00    +0.059 A 
ATOM      7  C   UNL     1       0.798  -2.917  -4.568  0.00  0.00    +0.121 A 
ATOM      8  C   UNL     1       0.538  -2.042  -5.712  0.00  0.00    +0.293 A 
ATOM      9  O   UNL     1       1.365  -1.601  -6.489  0.00  0.00    -0.264 OA
ATOM     10  N   UNL     1      -0.792  -1.817  -5.740  0.00  0.00    -0.216 N 
ATOM     11  N   UNL     1      -1.372  -2.509  -4.670  0.00  0.00    -0.282 N 
ATOM     12  C   UNL     1      -2.800  -2.526  -4.345  0.00  0.00    +0.171 C 
BRANCH  10  13
ATOM     13  C   UNL     1      -1.472  -1.031  -6.675  0.00  0.00    +0.067 A 
ATOM     14  C   UNL     1      -2.602  -1.527  -7.311  0.00  0.00    +0.028 A 
ATOM     15  C   UNL     1      -3.275  -0.745  -8.229  0.00  0.00    +0.002 A 
ATOM     16  C   UNL     1      -2.818   0.526  -8.524  0.00  0.00    +0.000 A 
ATOM     17  C   UNL     1      -1.689   1.021  -7.897  0.00  0.00    +0.002 A 
ATOM     18  C   UNL     1      -1.016   0.247  -6.973  0.00  0.00    +0.028 A 
ENDBRANCH  10  13
ENDBRANCH   1   7
BRANCH   2  19
ATOM     19  C   UNL     1       4.391  -3.066  -3.424  0.00  0.00    +0.227 C 
BRANCH  19  20
ATOM     20  N   UNL     1       5.339  -1.955  -3.315  0.00  0.00    -0.193 N 
BRANCH  20  21
ATOM     21  C   UNL     1       6.104  -1.578  -4.422  0.00  0.00    +0.070 A 
ATOM     22  C   UNL     1       5.579  -0.705  -5.366  0.00  0.00    +0.026 A 
ATOM     23  C   UNL     1       6.339  -0.330  -6.456  0.00  0.00    +0.002 A 
ATOM     24  C   UNL     1       7.618  -0.831  -6.615  0.00  0.00    +0.002 A 
ATOM     25  C   UNL     1       8.143  -1.705  -5.681  0.00  0.00    +0.022 A 
ATOM     26  C   UNL     1       7.389  -2.080  -4.584  0.00  0.00    +0.064 A 
ATOM     27 CL   UNL     1       8.048  -3.179  -3.412  0.00  0.00    -0.082 Cl
ENDBRANCH  20  21
BRANCH  20  28
ATOM     28  S   UNL     1       5.505  -1.146  -1.879  0.00  0.00    +0.075 S 
ATOM     29  O   UNL     1       6.800  -0.560  -1.891  0.00  0.00    -0.150 OA
ATOM     30  O   UNL     1       5.082  -2.039  -0.858  0.00  0.00    -0.150 OA
BRANCH  28  31
ATOM     31  C   UNL     1       4.350   0.185  -1.895  0.00  0.00    +0.109 A 
ATOM     32  C   UNL     1       3.071  -0.004  -1.405  0.00  0.00    +0.029 A 
ATOM     33  C   UNL     1       2.165   1.040  -1.417  0.00  0.00    +0.002 A 
ATOM     34  C   UNL     1       2.538   2.273  -1.920  0.00  0.00    +0.000 A 
ATOM     35  C   UNL     1       3.817   2.462  -2.409  0.00  0.00    +0.002 A 
ATOM     36  C   UNL     1       4.723   1.418  -2.397  0.00  0.00    +0.029 A 
ENDBRANCH  28  31
ENDBRANCH  20  28
ENDBRANCH  19  20
ENDBRANCH   2  19
TORSDOF 7
