REMARK  Name = ZINC00906175
REMARK  14 active torsions:
REMARK  status: ('A' for Active; 'I' for Inactive)
REMARK    1  A    between atoms: C_1  and  O_2
REMARK    2  A    between atoms: O_2  and  C_3
REMARK    3  A    between atoms: C_6  and  C_10
REMARK    4  A    between atoms: C_8  and  O_9
REMARK    5  A    between atoms: C_10  and  C_12
REMARK    6  A    between atoms: C_10  and  N_21
REMARK    7  A    between atoms: N_14  and  C_15
REMARK    8  A    between atoms: N_21  and  C_22
REMARK    9  A    between atoms: C_25  and  O_30
REMARK   10  A    between atoms: C_26  and  O_28
REMARK   11  A    between atoms: O_28  and  C_29
REMARK   12  A    between atoms: O_30  and  C_31
REMARK   13  A    between atoms: C_32  and  C_34
REMARK   14  A    between atoms: C_34  and  N_35
REMARK                            x       y       z     vdW  Elec       q    Type
REMARK                         _______ _______ _______ _____ _____    ______ ____
ROOT
ATOM      1  N   UNL     1      -5.905  -1.865  -0.757  0.00  0.00    -0.254 N 
ATOM      2  C   UNL     1      -7.110  -2.462  -0.844  0.00  0.00    +0.242 C 
ATOM      3  O   UNL     1      -7.293  -3.540  -0.318  0.00  0.00    -0.273 OA
ENDROOT
BRANCH   1   4
ATOM      4  C   UNL     1      -5.664  -0.669  -1.445  0.00  0.00    +0.041 A 
ATOM      5  C   UNL     1      -4.802  -0.656  -2.533  0.00  0.00    +0.027 A 
ATOM      6  C   UNL     1      -4.563   0.523  -3.213  0.00  0.00    +0.051 A 
ATOM      7  C   UNL     1      -5.185   1.694  -2.812  0.00  0.00    +0.162 A 
ATOM      8  C   UNL     1      -6.050   1.684  -1.722  0.00  0.00    +0.163 A 
ATOM      9  C   UNL     1      -6.293   0.501  -1.043  0.00  0.00    +0.073 A 
BRANCH   8  10
ATOM     10  O   UNL     1      -6.660   2.833  -1.326  0.00  0.00    -0.491 OA
ATOM     11  C   UNL     1      -7.536   2.749  -0.200  0.00  0.00    +0.277 C 
ENDBRANCH   8  10
BRANCH   7  12
ATOM     12  O   UNL     1      -4.949   2.855  -3.482  0.00  0.00    -0.491 OA
ATOM     13  C   UNL     1      -4.049   2.792  -4.591  0.00  0.00    +0.277 C 
ENDBRANCH   7  12
ENDBRANCH   1   4
BRANCH   1  14
ATOM     14  C   UNL     1      -4.846  -2.467   0.057  0.00  0.00    +0.197 C 
BRANCH  14  18
ATOM     15  C   UNL     1      -1.228  -0.244  -0.443  0.00  0.00    +0.161 A 
ATOM     16  C   UNL     1      -2.377   0.388   0.004  0.00  0.00    +0.050 A 
ATOM     17  C   UNL     1      -3.545  -0.333   0.165  0.00  0.00    +0.010 A 
ATOM     18  C   UNL     1      -3.570  -1.686  -0.120  0.00  0.00    -0.014 A 
ATOM     19  C   UNL     1      -2.428  -2.323  -0.566  0.00  0.00    +0.055 A 
ATOM     20  C   UNL     1      -1.255  -1.604  -0.735  0.00  0.00    +0.159 A 
BRANCH  15  22
ATOM     21  C   UNL     1      -0.124   1.857  -0.282  0.00  0.00    +0.277 C 
ATOM     22  O   UNL     1      -0.078   0.465  -0.602  0.00  0.00    -0.491 OA
ENDBRANCH  15  22
BRANCH  20  23
ATOM     23  O   UNL     1      -0.131  -2.228  -1.179  0.00  0.00    -0.503 OA
ATOM     24  H   UNL     1       0.422  -2.592  -0.475  0.00  0.00    +0.292 HD
ENDBRANCH  20  23
ENDBRANCH  14  18
BRANCH  14  25
ATOM     25  C   UNL     1      -5.253  -2.443   1.508  0.00  0.00    +0.239 C 
ATOM     26  O   UNL     1      -6.322  -1.969   1.830  0.00  0.00    -0.273 OA
ATOM     27  N   UNL     1      -4.429  -2.948   2.448  0.00  0.00    -0.311 N 
ATOM     28  H   UNL     1      -3.574  -3.327   2.190  0.00  0.00    +0.149 HD
BRANCH  27  29
ATOM     29  C   UNL     1      -4.825  -2.924   3.858  0.00  0.00    +0.073 C 
ATOM     30  C   UNL     1      -4.454  -1.571   4.469  0.00  0.00    +0.022 C 
ATOM     31  C   UNL     1      -4.867  -1.547   5.942  0.00  0.00    +0.002 C 
ATOM     32  C   UNL     1      -4.139  -2.663   6.694  0.00  0.00    +0.000 C 
ATOM     33  C   UNL     1      -4.510  -4.016   6.083  0.00  0.00    +0.002 C 
ATOM     34  C   UNL     1      -4.097  -4.040   4.611  0.00  0.00    +0.022 C 
ENDBRANCH  27  29
ENDBRANCH  14  25
ENDBRANCH   1  14
BRANCH   2  35
ATOM     35  C   UNL     1      -8.232  -1.790  -1.593  0.00  0.00    +0.242 C 
BRANCH  35  36
ATOM     36  N   UNL     1      -9.453  -2.589  -1.464  0.00  0.00    -0.235 N 
ATOM     37  C   UNL     1      -9.865  -3.602  -2.298  0.00  0.00    +0.090 A 
ATOM     38  C   UNL     1      -9.338  -4.183  -3.446  0.00  0.00    +0.029 A 
ATOM     39  C   UNL     1     -10.009  -5.202  -4.061  0.00  0.00    +0.002 A 
ATOM     40  C   UNL     1     -11.215  -5.665  -3.549  0.00  0.00    +0.002 A 
ATOM     41  C   UNL     1     -11.753  -5.111  -2.424  0.00  0.00    +0.032 A 
ATOM     42  C   UNL     1     -11.084  -4.065  -1.774  0.00  0.00    +0.113 A 
ATOM     43  N   UNL     1     -11.361  -3.337  -0.674  0.00  0.00    -0.129 NA
ATOM     44  N   UNL     1     -10.429  -2.475  -0.463  0.00  0.00    -0.064 NA
ENDBRANCH  35  36
ENDBRANCH   2  35
TORSDOF 11
