REMARK  Name = ZINC09663262
REMARK  6 active torsions:
REMARK  status: ('A' for Active; 'I' for Inactive)
REMARK    1  A    between atoms: C_1  and  C_2
REMARK    2  A    between atoms: C_5  and  S_10
REMARK    3  A    between atoms: N_6  and  C_7
REMARK    4  A    between atoms: S_10  and  C_11
REMARK    5  A    between atoms: C_11  and  C_12
REMARK    6  A    between atoms: N_14  and  C_15
REMARK                            x       y       z     vdW  Elec       q    Type
REMARK                         _______ _______ _______ _____ _____    ______ ____
ROOT
ATOM      1  C   UNL     1       0.795   6.771   1.815  0.00  0.00    +0.228 C 
ATOM      2  O   UNL     1      -0.394   6.662   2.026  0.00  0.00    -0.275 OA
ATOM      3  N   UNL     1       1.421   7.938   2.071  0.00  0.00    -0.284 N 
ATOM      4  H   UNL     1       2.358   8.045   1.846  0.00  0.00    +0.155 HD
ENDROOT
BRANCH   3   5
ATOM      5  C   UNL     1       0.717   8.994   2.664  0.00  0.00    +0.050 A 
ATOM      6  C   UNL     1      -0.657   9.089   2.500  0.00  0.00    +0.052 A 
ATOM      7  C   UNL     1      -1.350  10.135   3.087  0.00  0.00    +0.069 A 
ATOM      8  C   UNL     1      -0.664  11.090   3.841  0.00  0.00    +0.068 A 
ATOM      9  C   UNL     1       0.709  10.991   4.001  0.00  0.00    +0.045 A 
ATOM     10  C   UNL     1       1.397   9.944   3.419  0.00  0.00    +0.041 A 
ATOM     11 BR   UNL     1       3.269   9.804   3.645  0.00  0.00    -0.048 Br
ATOM     12  N   UNL     1      -1.616  12.003   4.295  0.00  0.00    -0.306 N 
ATOM     13  H   UNL     1      -1.438  12.781   4.847  0.00  0.00    +0.170 HD
ATOM     14  C   UNL     1      -2.823  11.620   3.839  0.00  0.00    +0.325 A 
ATOM     15  O   UNL     1      -3.870  12.200   4.056  0.00  0.00    -0.247 OA
ATOM     16  N   UNL     1      -2.696  10.497   3.107  0.00  0.00    -0.306 N 
ATOM     17  H   UNL     1      -3.418  10.020   2.669  0.00  0.00    +0.170 HD
ENDBRANCH   3   5
BRANCH   1  18
ATOM     18  C   UNL     1       1.574   5.604   1.265  0.00  0.00    +0.173 C 
BRANCH  18  19
ATOM     19  S   UNL     1       0.462   4.195   1.030  0.00  0.00    -0.077 S 
BRANCH  19  24
ATOM     20  C   UNL     1       2.714  -0.209  -0.913  0.00  0.00    +0.088 C 
ATOM     21  C   UNL     1       2.501   1.191  -0.398  0.00  0.00    +0.131 A 
ATOM     22  N   UNL     1       3.410   2.116  -0.278  0.00  0.00    -0.134 NA
ATOM     23  N   UNL     1       2.886   3.191   0.195  0.00  0.00    -0.122 NA
ATOM     24  C   UNL     1       1.602   3.008   0.399  0.00  0.00    +0.192 A 
ATOM     25  N   UNL     1       1.317   1.724   0.032  0.00  0.00    -0.303 N 
BRANCH  25  26
ATOM     26  C   UNL     1       0.013   1.058   0.082  0.00  0.00    +0.091 C 
ATOM     27  C   UNL     1      -1.071   1.694   0.955  0.00  0.00    +0.027 C 
ATOM     28  C   UNL     1      -1.171   1.774  -0.571  0.00  0.00    +0.027 C 
ENDBRANCH  25  26
ENDBRANCH  19  24
ENDBRANCH  18  19
ENDBRANCH   1  18
TORSDOF 5
