REMARK  Name = ZINC39544799
REMARK  10 active torsions:
REMARK  status: ('A' for Active; 'I' for Inactive)
REMARK    1  A    between atoms: C_1  and  C_2
REMARK    2  A    between atoms: C_2  and  O_3
REMARK    3  A    between atoms: O_3  and  C_4
REMARK    4  A    between atoms: C_6  and  C_18
REMARK    5  A    between atoms: N_20  and  C_21
REMARK    6  A    between atoms: N_20  and  C_25
REMARK    7  A    between atoms: C_21  and  C_22
REMARK    8  A    between atoms: C_22  and  C_23
REMARK    9  A    between atoms: C_22  and  C_24
REMARK   10  A    between atoms: C_30  and  O_31
REMARK                            x       y       z     vdW  Elec       q    Type
REMARK                         _______ _______ _______ _____ _____    ______ ____
ROOT
ATOM      1  C   UNL     1      -1.050  -1.703  -0.614  0.00  0.00    +0.134 C 
ATOM      2  C   UNL     1      -2.469  -2.182  -0.824  0.00  0.00    +0.107 C 
ATOM      3  C   UNL     1      -2.426  -3.671  -0.430  0.00  0.00    +0.152 C 
ATOM      4  N   UNL     1      -1.017  -3.907  -0.074  0.00  0.00    -0.367 NA
ATOM      5  C   UNL     1      -0.311  -2.702  -0.198  0.00  0.00    +0.113 C 
ATOM      6  N   UNL     1       1.063  -2.640   0.139  0.00  0.00    -0.301 N 
ATOM      7  C   UNL     1       1.442  -3.452   1.221  0.00  0.00    +0.037 A 
ATOM      8  C   UNL     1       2.741  -3.391   1.707  0.00  0.00    +0.023 A 
ATOM      9  C   UNL     1       3.116  -4.196   2.765  0.00  0.00    +0.002 A 
ATOM     10  C   UNL     1       2.196  -5.059   3.333  0.00  0.00    +0.000 A 
ATOM     11  C   UNL     1       0.903  -5.117   2.851  0.00  0.00    +0.007 A 
ATOM     12  C   UNL     1       0.515  -4.311   1.794  0.00  0.00    -0.010 A 
ATOM     13  C   UNL     1      -0.915  -4.378   1.312  0.00  0.00    +0.124 C 
ATOM     14  H   UNL     1       1.694  -2.081  -0.341  0.00  0.00    +0.153 HD
ATOM     15  H   UNL     1      -0.619  -4.593  -0.697  0.00  0.00    +0.129 HD
ENDROOT
BRANCH   3  16
ATOM     16  C   UNL     1      -2.831  -4.537  -1.594  0.00  0.00    +0.239 C 
ATOM     17  O   UNL     1      -1.984  -5.110  -2.247  0.00  0.00    -0.273 OA
ATOM     18  N   UNL     1      -4.134  -4.675  -1.910  0.00  0.00    -0.267 N 
BRANCH  18  19
ATOM     19  C   UNL     1      -4.506  -5.407  -3.046  0.00  0.00    +0.078 A 
ATOM     20  C   UNL     1      -4.824  -6.752  -2.932  0.00  0.00    +0.027 A 
ATOM     21  C   UNL     1      -5.191  -7.472  -4.054  0.00  0.00    +0.002 A 
ATOM     22  C   UNL     1      -5.241  -6.855  -5.290  0.00  0.00    +0.004 A 
ATOM     23  C   UNL     1      -4.926  -5.514  -5.411  0.00  0.00    +0.047 A 
ATOM     24  C   UNL     1      -4.562  -4.784  -4.290  0.00  0.00    +0.138 A 
BRANCH  24  25
ATOM     25  O   UNL     1      -4.257  -3.464  -4.407  0.00  0.00    -0.505 OA
ATOM     26  H   UNL     1      -3.322  -3.291  -4.583  0.00  0.00    +0.292 HD
ENDBRANCH  24  25
ENDBRANCH  18  19
BRANCH  18  27
ATOM     27  C   UNL     1      -5.161  -4.059  -1.067  0.00  0.00    +0.116 C 
BRANCH  27  28
ATOM     28  C   UNL     1      -5.665  -5.083  -0.047  0.00  0.00    +0.001 C 
ATOM     29  C   UNL     1      -4.529  -5.450   0.911  0.00  0.00    +0.009 C 
ATOM     30  C   UNL     1      -6.828  -4.484   0.746  0.00  0.00    +0.009 C 
ENDBRANCH  27  28
ENDBRANCH  18  27
ENDBRANCH   3  16
BRANCH   1  31
ATOM     31  O   UNL     1      -0.609  -0.435  -0.830  0.00  0.00    -0.493 OA
BRANCH  31  33
ATOM     32  C   UNL     1       1.096   1.274  -0.943  0.00  0.00    +0.048 C 
ATOM     33  C   UNL     1       0.796  -0.206  -0.699  0.00  0.00    +0.225 C 
ENDBRANCH  31  33
ENDBRANCH   1  31
TORSDOF 7
