REMARK  Name = ZINC39546560
REMARK  13 active torsions:
REMARK  status: ('A' for Active; 'I' for Inactive)
REMARK    1  A    between atoms: C_1  and  C_2
REMARK    2  A    between atoms: C_2  and  C_4
REMARK    3  A    between atoms: C_4  and  O_39
REMARK    4  A    between atoms: C_9  and  C_38
REMARK    5  A    between atoms: N_21  and  O_22
REMARK    6  A    between atoms: O_22  and  C_23
REMARK    7  A    between atoms: C_23  and  C_24
REMARK    8  A    between atoms: N_26  and  C_27
REMARK    9  A    between atoms: C_27  and  C_28
REMARK   10  A    between atoms: C_28  and  C_29
REMARK   11  A    between atoms: C_29  and  C_30
REMARK   12  A    between atoms: C_30  and  C_31
REMARK   13  A    between atoms: C_36  and  C_37
REMARK                            x       y       z     vdW  Elec       q    Type
REMARK                         _______ _______ _______ _____ _____    ______ ____
ROOT
ATOM      1  C   UNL     1      -0.011  -0.745  -1.304  0.00  0.00    +0.129 C 
ATOM      2  C   UNL     1       1.438  -0.946  -1.794  0.00  0.00    +0.043 C 
ATOM      3  C   UNL     1       1.661  -2.472  -1.886  0.00  0.00    +0.008 C 
ATOM      4  C   UNL     1       0.224  -3.048  -2.065  0.00  0.00    +0.002 C 
ATOM      5  C   UNL     1      -0.588  -2.155  -1.115  0.00  0.00    +0.007 C 
ATOM      6  C   UNL     1      -2.074  -2.217  -1.387  0.00  0.00    +0.010 C 
ATOM      7  C   UNL     1      -2.363  -1.873  -2.845  0.00  0.00    +0.005 C 
ATOM      8  C   UNL     1      -1.654  -2.891  -3.751  0.00  0.00    +0.002 C 
ATOM      9  C   UNL     1      -0.148  -2.827  -3.537  0.00  0.00    -0.003 C 
ATOM     10  C   UNL     1       0.622  -3.858  -4.357  0.00  0.00    +0.008 C 
ATOM     11  C   UNL     1      -0.051  -4.178  -5.683  0.00  0.00    +0.031 C 
ATOM     12  C   UNL     1      -0.889  -3.001  -6.116  0.00  0.00    -0.062 C 
ATOM     13  C   UNL     1      -0.643  -2.384  -7.262  0.00  0.00    +0.026 C 
ATOM     14  C   UNL     1      -1.445  -1.230  -7.686  0.00  0.00    +0.080 C 
ATOM     15  N   UNL     1      -1.206  -0.656  -8.823  0.00  0.00    -0.089 NA
ATOM     16  C   UNL     1      -2.549  -0.714  -6.796  0.00  0.00    +0.059 C 
ATOM     17  C   UNL     1      -2.206  -1.046  -5.340  0.00  0.00    +0.017 C 
ATOM     18  C   UNL     1      -2.017  -2.532  -5.198  0.00  0.00    -0.007 C 
ATOM     19  C   UNL     1      -3.309  -3.250  -5.592  0.00  0.00    +0.016 C 
ATOM     20  C   UNL     1      -0.341  -2.606   0.326  0.00  0.00    +0.015 C 
ENDROOT
BRANCH   1  22
ATOM     21  C   UNL     1      -1.225   0.810   0.406  0.00  0.00    +0.089 C 
ATOM     22  C   UNL     1      -0.019  -0.001   0.007  0.00  0.00    +0.162 C 
ATOM     23  O   UNL     1       0.942  -0.054   0.737  0.00  0.00    -0.295 OA
ENDBRANCH   1  22
BRANCH   1  24
ATOM     24  O   UNL     1      -0.769  -0.029  -2.281  0.00  0.00    -0.381 OA
ATOM     25  H   UNL     1      -0.442   0.864  -2.456  0.00  0.00    +0.211 HD
ENDBRANCH   1  24
BRANCH  15  26
ATOM     26  O   UNL     1      -1.981   0.457  -9.231  0.00  0.00    -0.384 OA
BRANCH  26  27
ATOM     27  C   UNL     1      -1.609   0.989 -10.504  0.00  0.00    +0.358 C 
BRANCH  27  28
ATOM     28  C   UNL     1      -2.493   2.163 -10.836  0.00  0.00    +0.253 C 
ATOM     29  O   UNL     1      -3.357   2.510 -10.059  0.00  0.00    -0.272 OA
ATOM     30  N   UNL     1      -2.324   2.828 -11.996  0.00  0.00    -0.312 N 
ATOM     31  H   UNL     1      -1.633   2.550 -12.617  0.00  0.00    +0.149 HD
BRANCH  30  32
ATOM     32  C   UNL     1      -3.183   3.969 -12.319  0.00  0.00    +0.104 C 
BRANCH  32  33
ATOM     33  C   UNL     1      -2.785   4.539 -13.681  0.00  0.00    +0.019 C 
BRANCH  33  34
ATOM     34  C   UNL     1      -3.683   5.731 -14.018  0.00  0.00    +0.013 C 
BRANCH  34  35
ATOM     35  C   UNL     1      -3.284   6.300 -15.381  0.00  0.00    +0.125 C 
BRANCH  35  36
ATOM     36  C   UNL     1      -4.169   7.475 -15.713  0.00  0.00    +0.356 C 
ATOM     37  O   UNL     1      -5.037   7.823 -14.932  0.00  0.00    -0.246 OA
ATOM     38  O   UNL     1      -4.016   8.076 -16.763  0.00  0.00    -0.246 OA
ENDBRANCH  35  36
ENDBRANCH  34  35
ENDBRANCH  33  34
ENDBRANCH  32  33
ENDBRANCH  30  32
ENDBRANCH  27  28
ENDBRANCH  26  27
ENDBRANCH  15  26
TORSDOF 10
