REMARK  Name = ZINC13134612
REMARK  7 active torsions:
REMARK  status: ('A' for Active; 'I' for Inactive)
REMARK    1  A    between atoms: C_4  and  C_7
REMARK    2  A    between atoms: C_8  and  C_37
REMARK    3  A    between atoms: C_9  and  N_18
REMARK    4  A    between atoms: C_11  and  C_12
REMARK    5  A    between atoms: C_19  and  C_21
REMARK    6  A    between atoms: C_21  and  S_22
REMARK    7  A    between atoms: S_22  and  C_23
REMARK                            x       y       z     vdW  Elec       q    Type
REMARK                         _______ _______ _______ _____ _____    ______ ____
ROOT
ATOM      1  N   UNL     1      -2.439   1.837   0.259  0.00  0.00    -0.255 N 
ATOM      2  C   UNL     1      -3.438   2.742   0.257  0.00  0.00    +0.230 C 
ATOM      3  O   UNL     1      -3.186   3.923   0.143  0.00  0.00    -0.274 OA
ATOM      4  H   UNL     1      -2.640   0.893   0.350  0.00  0.00    +0.158 HD
ENDROOT
BRANCH   1   7
ATOM      5  C   UNL     1       1.142   2.334  -0.047  0.00  0.00    +0.047 A 
ATOM      6  C   UNL     1      -0.013   1.432   0.116  0.00  0.00    +0.121 A 
ATOM      7  C   UNL     1      -1.127   2.256   0.130  0.00  0.00    +0.211 A 
ATOM      8  O   UNL     1      -0.720   3.525   0.000  0.00  0.00    -0.439 OA
ATOM      9  C   UNL     1       0.620   3.597  -0.110  0.00  0.00    +0.146 A 
BRANCH   5  13
ATOM     10  C   UNL     1       5.241   1.238  -0.276  0.00  0.00    +0.000 A 
ATOM     11  C   UNL     1       4.372   0.866  -1.286  0.00  0.00    +0.001 A 
ATOM     12  C   UNL     1       3.039   1.219  -1.217  0.00  0.00    +0.008 A 
ATOM     13  C   UNL     1       2.570   1.952  -0.127  0.00  0.00    -0.013 A 
ATOM     14  C   UNL     1       3.454   2.329   0.885  0.00  0.00    +0.008 A 
ATOM     15  C   UNL     1       4.782   1.965   0.808  0.00  0.00    +0.001 A 
ENDBRANCH   5  13
BRANCH   9  16
ATOM     16  C   UNL     1       1.400   4.839  -0.272  0.00  0.00    +0.018 A 
ATOM     17  C   UNL     1       1.141   5.942   0.546  0.00  0.00    +0.011 A 
ATOM     18  C   UNL     1       1.878   7.098   0.392  0.00  0.00    +0.001 A 
ATOM     19  C   UNL     1       2.864   7.170  -0.576  0.00  0.00    +0.000 A 
ATOM     20  C   UNL     1       3.122   6.083  -1.393  0.00  0.00    +0.001 A 
ATOM     21  C   UNL     1       2.397   4.919  -1.247  0.00  0.00    +0.011 A 
ENDBRANCH   9  16
BRANCH   6  22
ATOM     22  C   UNL     1       0.011   0.005   0.230  0.00  0.00    +0.105 C 
ATOM     23  N   UNL     1       0.030  -1.128   0.321  0.00  0.00    -0.191 NA
ENDBRANCH   6  22
ENDBRANCH   1   7
BRANCH   2  24
ATOM     24  C   UNL     1      -4.867   2.286   0.398  0.00  0.00    +0.173 C 
BRANCH  24  25
ATOM     25  S   UNL     1      -5.965   3.725   0.360  0.00  0.00    -0.075 S 
BRANCH  25  26
ATOM     26  C   UNL     1      -7.525   2.924   0.538  0.00  0.00    +0.212 A 
ATOM     27  N   UNL     1      -8.632   3.654   0.564  0.00  0.00    -0.201 NA
ATOM     28  C   UNL     1      -9.808   3.047   0.693  0.00  0.00    +0.162 A 
ATOM     29  C   UNL     1      -9.828   1.642   0.809  0.00  0.00    +0.137 A 
ATOM     30  C   UNL     1     -11.243   1.257   0.942  0.00  0.00    +0.029 A 
ATOM     31  C   UNL     1     -11.897   0.036   1.089  0.00  0.00    +0.012 A 
ATOM     32  C   UNL     1     -13.271   0.003   1.192  0.00  0.00    +0.001 A 
ATOM     33  C   UNL     1     -14.003   1.179   1.149  0.00  0.00    +0.002 A 
ATOM     34  C   UNL     1     -13.369   2.395   1.004  0.00  0.00    +0.026 A 
ATOM     35  C   UNL     1     -11.983   2.449   0.899  0.00  0.00    +0.050 A 
ATOM     36  N   UNL     1     -11.101   3.507   0.749  0.00  0.00    -0.338 N 
ATOM     37  H   UNL     1     -11.359   4.440   0.693  0.00  0.00    +0.167 HD
ATOM     38  N   UNL     1      -8.686   0.970   0.781  0.00  0.00    -0.143 NA
ATOM     39  N   UNL     1      -7.569   1.600   0.649  0.00  0.00    -0.122 NA
ENDBRANCH  25  26
ENDBRANCH  24  25
ENDBRANCH   2  24
TORSDOF 7
