REMARK  Name = ZINC08845265
REMARK  9 active torsions:
REMARK  status: ('A' for Active; 'I' for Inactive)
REMARK    1  A    between atoms: C_1  and  C_2
REMARK    2  A    between atoms: C_4  and  O_36
REMARK    3  A    between atoms: C_5  and  C_9
REMARK    4  A    between atoms: N_17  and  C_27
REMARK    5  A    between atoms: C_18  and  C_20
REMARK    6  A    between atoms: C_24  and  O_26
REMARK    7  A    between atoms: C_27  and  C_28
REMARK    8  A    between atoms: C_31  and  O_34
REMARK    9  A    between atoms: O_34  and  C_35
REMARK                            x       y       z     vdW  Elec       q    Type
REMARK                         _______ _______ _______ _____ _____    ______ ____
ROOT
ATOM      1  C   UNL     1       0.247  -4.554  -0.108  0.00  0.00    +0.102 A 
ATOM      2  C   UNL     1       0.257  -5.256   1.102  0.00  0.00    +0.035 A 
ATOM      3  C   UNL     1       0.203  -6.594   0.761  0.00  0.00    +0.126 A 
ATOM      4  N   UNL     1       0.164  -6.637  -0.604  0.00  0.00    -0.272 N 
ATOM      5  H   UNL     1       0.122  -7.448  -1.134  0.00  0.00    +0.189 HD
ATOM      6  N   UNL     1       0.185  -5.443  -1.080  0.00  0.00    -0.173 NA
ATOM      7  C   UNL     1       0.209  -7.389   1.994  0.00  0.00    +0.266 C 
ATOM      8  O   UNL     1       0.170  -8.604   2.036  0.00  0.00    -0.268 OA
ATOM      9  N   UNL     1       0.265  -6.585   3.071  0.00  0.00    -0.281 N 
ATOM     10  C   UNL     1       0.299  -5.193   2.604  0.00  0.00    +0.142 C 
ENDROOT
BRANCH   1  15
ATOM     11  C   UNL     1       0.418   1.174  -0.732  0.00  0.00    +0.045 C 
ATOM     12  C   UNL     1       0.376  -0.324  -0.570  0.00  0.00    -0.029 A 
ATOM     13  C   UNL     1       1.195  -1.123  -1.345  0.00  0.00    +0.050 A 
ATOM     14  C   UNL     1       1.159  -2.501  -1.201  0.00  0.00    +0.126 A 
ATOM     15  C   UNL     1       0.292  -3.079  -0.269  0.00  0.00    +0.045 A 
ATOM     16  C   UNL     1      -0.529  -2.266   0.507  0.00  0.00    +0.034 A 
ATOM     17  C   UNL     1      -0.480  -0.893   0.357  0.00  0.00    +0.045 A 
ATOM     18 CL   UNL     1      -1.499   0.120   1.331  0.00  0.00    -0.083 Cl
BRANCH  14  19
ATOM     19  O   UNL     1       1.963  -3.287  -1.964  0.00  0.00    -0.506 OA
ATOM     20  H   UNL     1       2.827  -3.466  -1.568  0.00  0.00    +0.292 HD
ENDBRANCH  14  19
ENDBRANCH   1  15
BRANCH  10  21
ATOM     21  C   UNL     1       1.571  -4.524   3.059  0.00  0.00    -0.019 A 
ATOM     22  C   UNL     1       2.790  -5.143   2.850  0.00  0.00    +0.006 A 
ATOM     23  C   UNL     1       3.958  -4.532   3.267  0.00  0.00    +0.004 A 
ATOM     24  C   UNL     1       3.910  -3.301   3.893  0.00  0.00    +0.045 A 
ATOM     25  C   UNL     1       2.689  -2.679   4.104  0.00  0.00    +0.117 A 
ATOM     26  C   UNL     1       1.518  -3.291   3.679  0.00  0.00    +0.051 A 
BRANCH  25  27
ATOM     27  O   UNL     1       2.639  -1.468   4.719  0.00  0.00    -0.507 OA
ATOM     28  H   UNL     1       2.695  -0.716   4.114  0.00  0.00    +0.292 HD
ENDBRANCH  25  27
ENDBRANCH  10  21
BRANCH   9  29
ATOM     29  C   UNL     1       0.287  -7.022   4.468  0.00  0.00    +0.144 C 
BRANCH  29  30
ATOM     30  C   UNL     1       1.715  -7.219   4.910  0.00  0.00    -0.030 A 
ATOM     31  C   UNL     1       2.323  -8.451   4.751  0.00  0.00    +0.009 A 
ATOM     32  C   UNL     1       3.631  -8.634   5.155  0.00  0.00    +0.046 A 
ATOM     33  C   UNL     1       4.335  -7.582   5.722  0.00  0.00    +0.120 A 
ATOM     34  C   UNL     1       3.723  -6.347   5.880  0.00  0.00    +0.046 A 
ATOM     35  C   UNL     1       2.416  -6.167   5.469  0.00  0.00    +0.009 A 
BRANCH  33  36
ATOM     36  O   UNL     1       5.621  -7.760   6.121  0.00  0.00    -0.495 OA
ATOM     37  C   UNL     1       6.284  -6.632   6.696  0.00  0.00    +0.277 C 
ENDBRANCH  33  36
ENDBRANCH  29  30
ENDBRANCH   9  29
TORSDOF 7
