REMARK  Name = ZINC14986735
REMARK  11 active torsions:
REMARK  status: ('A' for Active; 'I' for Inactive)
REMARK    1  A    between atoms: C_1  and  C_2
REMARK    2  A    between atoms: C_2  and  O_3
REMARK    3  A    between atoms: O_3  and  C_4
REMARK    4  A    between atoms: C_4  and  C_6
REMARK    5  A    between atoms: N_9  and  C_25
REMARK    6  A    between atoms: C_10  and  C_11
REMARK    7  A    between atoms: C_11  and  N_63
REMARK    8  A    between atoms: C_14  and  C_17
REMARK    9  A    between atoms: C_14  and  O_24
REMARK   10  A    between atoms: C_28  and  C_32
REMARK   11  A    between atoms: C_30  and  C_31
REMARK                            x       y       z     vdW  Elec       q    Type
REMARK                         _______ _______ _______ _____ _____    ______ ____
ROOT
ATOM      1  C   UNL     1       2.344   0.393  -0.477  0.00  0.00    +0.098 A 
ATOM      2  C   UNL     1       1.580  -0.774  -0.706  0.00  0.00    +0.150 A 
ATOM      3  N   UNL     1       0.318  -0.452  -0.637  0.00  0.00    -0.174 NA
ATOM      4  N   UNL     1       0.213   0.917  -0.366  0.00  0.00    -0.238 N 
ATOM      5  C   UNL     1       1.453   1.429  -0.269  0.00  0.00    +0.042 A 
ENDROOT
BRANCH   4   6
ATOM      6  C   UNL     1      -0.983   1.635  -0.225  0.00  0.00    +0.068 A 
ATOM      7  C   UNL     1      -1.205   2.773  -0.988  0.00  0.00    +0.028 A 
ATOM      8  C   UNL     1      -2.386   3.475  -0.850  0.00  0.00    +0.005 A 
ATOM      9  C   UNL     1      -3.342   3.052   0.055  0.00  0.00    -0.050 A 
ATOM     10  C   UNL     1      -3.122   1.922   0.820  0.00  0.00    +0.008 A 
ATOM     11  C   UNL     1      -1.944   1.212   0.683  0.00  0.00    -0.025 A 
ATOM     12  C   UNL     1      -1.704  -0.019   1.518  0.00  0.00    +0.046 C 
ATOM     13  C   UNL     1      -4.627   3.824   0.207  0.00  0.00    +0.044 C 
ENDBRANCH   4   6
BRANCH   1  14
ATOM     14  C   UNL     1       3.813   0.488  -0.463  0.00  0.00    +0.342 C 
ATOM     15  O   UNL     1       4.351   1.558  -0.254  0.00  0.00    -0.245 OA
BRANCH  14  16
ATOM     16  O   UNL     1       4.561  -0.611  -0.683  0.00  0.00    -0.461 OA
BRANCH  16  18
ATOM     17  C   UNL     1       6.679  -1.790  -0.922  0.00  0.00    +0.048 C 
ATOM     18  C   UNL     1       6.003  -0.443  -0.654  0.00  0.00    +0.229 C 
ENDBRANCH  16  18
ENDBRANCH  14  16
ENDBRANCH   1  14
BRANCH   5  19
ATOM     19  C   UNL     1       1.806   2.866   0.015  0.00  0.00    -0.021 C 
BRANCH  19  25
ATOM     20  C   UNL     1       0.851   2.932   2.238  0.00  0.00    -0.075 C 
ATOM     21  C   UNL     1       1.194   2.960   3.729  0.00  0.00    +0.021 C 
ATOM     22  C   UNL     1       1.930   4.262   4.054  0.00  0.00    +0.088 C 
ATOM     23  C   UNL     1       3.186   4.361   3.183  0.00  0.00    +0.021 C 
ATOM     24  C   UNL     1       2.784   4.293   1.708  0.00  0.00    -0.075 C 
ATOM     25  N   UNL     1       2.103   3.006   1.455  0.00  0.00    +0.384 N 
ATOM     26  H   UNL     1       2.721   2.239   1.744  0.00  0.00    -0.081 HD
BRANCH  22  27
ATOM     27  C   UNL     1       2.325   4.270   5.508  0.00  0.00    -0.016 A 
ATOM     28  C   UNL     1       3.543   3.744   5.897  0.00  0.00    +0.008 A 
ATOM     29  C   UNL     1       3.907   3.757   7.230  0.00  0.00    +0.020 A 
ATOM     30  C   UNL     1       3.048   4.285   8.177  0.00  0.00    +0.041 A 
ATOM     31  C   UNL     1       1.827   4.806   7.788  0.00  0.00    +0.020 A 
ATOM     32  C   UNL     1       1.466   4.798   6.454  0.00  0.00    +0.008 A 
ATOM     33 CL   UNL     1       3.502   4.294   9.853  0.00  0.00    -0.084 Cl
ENDBRANCH  22  27
BRANCH  22  34
ATOM     34  O   UNL     1       1.074   5.374   3.785  0.00  0.00    -0.384 OA
ATOM     35  H   UNL     1       0.258   5.376   4.303  0.00  0.00    +0.211 HD
ENDBRANCH  22  34
ENDBRANCH  19  25
ENDBRANCH   5  19
TORSDOF 8
