REMARK  Name = ZINC13064699
REMARK  11 active torsions:
REMARK  status: ('A' for Active; 'I' for Inactive)
REMARK    1  A    between atoms: C_1  and  C_2
REMARK    2  A    between atoms: C_2  and  C_3
REMARK    3  A    between atoms: C_3  and  C_5
REMARK    4  A    between atoms: C_3  and  N_69
REMARK    5  A    between atoms: N_9  and  C_10
REMARK    6  A    between atoms: C_10  and  C_11
REMARK    7  A    between atoms: C_18  and  C_19
REMARK    8  A    between atoms: C_18  and  N_69
REMARK    9  A    between atoms: C_23  and  C_32
REMARK   10  A    between atoms: C_24  and  C_31
REMARK   11  A    between atoms: C_33  and  N_69
REMARK                            x       y       z     vdW  Elec       q    Type
REMARK                         _______ _______ _______ _____ _____    ______ ____
ROOT
ATOM      1  N   UNL     1      -5.447   4.298  -1.347  0.00  0.00    +0.391 N 
ATOM      2  H   UNL     1      -5.236   3.378  -1.750  0.00  0.00    -0.080 HD
ENDROOT
BRANCH   1   3
ATOM      3  C   UNL     1      -4.751   5.338  -2.134  0.00  0.00    -0.067 C 
ATOM      4  C   UNL     1      -5.134   6.751  -1.646  0.00  0.00    -0.015 C 
ATOM      5  C   UNL     1      -5.202   7.595  -2.945  0.00  0.00    -0.002 C 
ATOM      6  C   UNL     1      -5.824   6.606  -3.963  0.00  0.00    -0.002 C 
ATOM      7  C   UNL     1      -5.189   5.246  -3.606  0.00  0.00    -0.015 C 
ENDBRANCH   1   3
BRANCH   1   8
ATOM      8  C   UNL     1      -6.907   4.520  -1.395  0.00  0.00    +0.003 C 
BRANCH   8   9
ATOM      9  C   UNL     1      -7.332   5.465  -0.300  0.00  0.00    +0.138 A 
ATOM     10  N   UNL     1      -7.019   5.382   0.970  0.00  0.00    -0.115 NA
ATOM     11  N   UNL     1      -7.572   6.373   1.581  0.00  0.00    -0.023 NA
ATOM     12  N   UNL     1      -8.228   7.086   0.734  0.00  0.00    -0.044 NA
ATOM     13  N   UNL     1      -8.100   6.562  -0.438  0.00  0.00    -0.226 N 
BRANCH  13  14
ATOM     14  C   UNL     1      -8.684   7.064  -1.684  0.00  0.00    +0.182 C 
BRANCH  14  15
ATOM     15  C   UNL     1     -10.046   6.451  -1.883  0.00  0.00    -0.026 A 
ATOM     16  C   UNL     1     -10.174   5.263  -2.579  0.00  0.00    +0.008 A 
ATOM     17  C   UNL     1     -11.422   4.697  -2.758  0.00  0.00    +0.038 A 
ATOM     18  C   UNL     1     -12.546   5.326  -2.250  0.00  0.00    +0.123 A 
ATOM     19  C   UNL     1     -12.417   6.518  -1.558  0.00  0.00    +0.038 A 
ATOM     20  C   UNL     1     -11.168   7.079  -1.375  0.00  0.00    +0.008 A 
ATOM     21  F   UNL     1     -13.767   4.776  -2.428  0.00  0.00    -0.205 F 
ENDBRANCH  14  15
ENDBRANCH  13  14
ENDBRANCH   8   9
BRANCH   8  23
ATOM     22  C   UNL     1      -7.268   2.253  -2.380  0.00  0.00    +0.002 C 
ATOM     23  C   UNL     1      -7.612   3.175  -1.209  0.00  0.00    -0.011 C 
ENDBRANCH   8  23
ENDBRANCH   1   8
BRANCH   1  24
ATOM     24  C   UNL     1      -4.977   4.327   0.055  0.00  0.00    -0.036 C 
BRANCH  24  25
ATOM     25  C   UNL     1      -3.595   3.729   0.114  0.00  0.00    +0.001 A 
ATOM     26  C   UNL     1      -2.509   4.541   0.144  0.00  0.00    +0.017 A 
ATOM     27  C   UNL     1      -1.180   3.929   0.202  0.00  0.00    -0.001 A 
ATOM     28  C   UNL     1      -0.023   4.714   0.235  0.00  0.00    +0.013 A 
ATOM     29  C   UNL     1       1.202   4.112   0.288  0.00  0.00    -0.047 A 
ATOM     30  C   UNL     1       1.309   2.728   0.311  0.00  0.00    -0.046 A 
ATOM     31  C   UNL     1       0.183   1.935   0.279  0.00  0.00    +0.030 A 
ATOM     32  C   UNL     1      -1.076   2.525   0.218  0.00  0.00    +0.049 A 
ATOM     33  N   UNL     1      -2.220   1.756   0.192  0.00  0.00    -0.322 N 
ATOM     34  H   UNL     1      -2.146   0.789   0.208  0.00  0.00    +0.169 HD
ATOM     35  C   UNL     1      -3.436   2.327   0.139  0.00  0.00    +0.251 A 
ATOM     36  O   UNL     1      -4.425   1.616   0.110  0.00  0.00    -0.268 OA
ATOM     37  C   UNL     1       2.671   2.086   0.371  0.00  0.00    +0.044 C 
ATOM     38  C   UNL     1       2.449   4.958   0.324  0.00  0.00    +0.044 C 
ENDBRANCH  24  25
ENDBRANCH   1  24
TORSDOF 8
