REMARK  Name = ZINC49508678
REMARK  8 active torsions:
REMARK  status: ('A' for Active; 'I' for Inactive)
REMARK    1  A    between atoms: C_1  and  N_2
REMARK    2  A    between atoms: C_10  and  C_12
REMARK    3  A    between atoms: C_12  and  C_14
REMARK    4  A    between atoms: C_12  and  N_33
REMARK    5  A    between atoms: C_14  and  N_15
REMARK    6  A    between atoms: C_16  and  C_18
REMARK    7  A    between atoms: N_20  and  C_21
REMARK    8  A    between atoms: C_25  and  N_27
REMARK                            x       y       z     vdW  Elec       q    Type
REMARK                         _______ _______ _______ _____ _____    ______ ____
ROOT
ATOM      1  C   UNL     1       5.916  -2.573   0.763  0.00  0.00    +0.094 C 
ENDROOT
BRANCH   1   2
ATOM      2  N   UNL     1       5.297  -3.244   1.908  0.00  0.00    -0.309 N 
ATOM      3  C   UNL     1       5.917  -3.244   3.105  0.00  0.00    +0.299 C 
ATOM      4  O   UNL     1       6.987  -2.688   3.234  0.00  0.00    -0.265 OA
ATOM      5  H   UNL     1       4.441  -3.689   1.805  0.00  0.00    +0.149 HD
BRANCH   3   6
ATOM      6  C   UNL     1       5.285  -3.929   4.273  0.00  0.00    +0.303 C 
ATOM      7  O   UNL     1       4.214  -4.485   4.144  0.00  0.00    -0.265 OA
ATOM      8  N   UNL     1       5.905  -3.929   5.470  0.00  0.00    -0.278 N 
ATOM      9  H   UNL     1       6.722  -3.422   5.593  0.00  0.00    +0.155 HD
BRANCH   8  10
ATOM     10  C   UNL     1       5.369  -4.660   6.533  0.00  0.00    +0.036 A 
ATOM     11  C   UNL     1       4.725  -5.868   6.293  0.00  0.00    +0.023 A 
ATOM     12  C   UNL     1       4.196  -6.590   7.345  0.00  0.00    +0.004 A 
ATOM     13  C   UNL     1       4.303  -6.115   8.638  0.00  0.00    +0.023 A 
ATOM     14  C   UNL     1       4.946  -4.908   8.884  0.00  0.00    +0.038 A 
ATOM     15  C   UNL     1       5.484  -4.183   7.832  0.00  0.00    +0.046 A 
BRANCH  14  16
ATOM     16  N   UNL     1       5.054  -4.428  10.194  0.00  0.00    -0.271 N 
ATOM     17  C   UNL     1       4.641  -5.175  11.387  0.00  0.00    +0.114 C 
ATOM     18  C   UNL     1       5.331  -4.470  12.575  0.00  0.00    +0.029 C 
ATOM     19  C   UNL     1       5.526  -3.039  12.022  0.00  0.00    +0.098 C 
ATOM     20  C   UNL     1       5.555  -3.224  10.521  0.00  0.00    +0.220 C 
ATOM     21  O   UNL     1       5.968  -2.404   9.728  0.00  0.00    -0.275 OA
ENDBRANCH  14  16
ENDBRANCH   8  10
ENDBRANCH   3   6
ENDBRANCH   1   2
BRANCH   1  22
ATOM     22  C   UNL     1       5.077  -2.825  -0.491  0.00  0.00    -0.020 C 
BRANCH  22  32
ATOM     23  C   UNL     1      -0.078   1.123   0.159  0.00  0.00    +0.129 C 
ATOM     24  N   UNL     1       0.013  -0.338   0.104  0.00  0.00    -0.333 N 
ATOM     25  C   UNL     1      -1.197  -1.167   0.195  0.00  0.00    +0.105 C 
ATOM     26  C   UNL     1      -0.903  -2.321   1.163  0.00  0.00    +0.024 C 
ATOM     27  C   UNL     1       0.213  -3.184   0.577  0.00  0.00    +0.038 C 
ATOM     28  C   UNL     1       1.390  -2.330   0.186  0.00  0.00    -0.026 A 
ATOM     29  C   UNL     1       1.255  -0.968  -0.041  0.00  0.00    +0.033 A 
ATOM     30  C   UNL     1       2.359  -0.209  -0.411  0.00  0.00    +0.023 A 
ATOM     31  C   UNL     1       3.594  -0.811  -0.557  0.00  0.00    +0.004 A 
ATOM     32  C   UNL     1       3.729  -2.168  -0.334  0.00  0.00    -0.059 A 
ATOM     33  C   UNL     1       2.632  -2.925   0.045  0.00  0.00    +0.007 A 
ENDBRANCH  22  32
BRANCH  22  34
ATOM     34  N   UNL     1       5.763  -2.261  -1.661  0.00  0.00    +0.385 N 
ATOM     35  C   UNL     1       4.903  -2.396  -2.843  0.00  0.00    -0.078 C 
ATOM     36  C   UNL     1       5.578  -1.738  -4.048  0.00  0.00    -0.019 C 
ATOM     37  C   UNL     1       6.922  -2.424  -4.311  0.00  0.00    -0.004 C 
ATOM     38  C   UNL     1       7.782  -2.341  -3.047  0.00  0.00    -0.019 C 
ATOM     39  C   UNL     1       7.025  -2.977  -1.879  0.00  0.00    -0.078 C 
ATOM     40  H   UNL     1       5.955  -1.284  -1.498  0.00  0.00    -0.081 HD
ENDBRANCH  22  34
ENDBRANCH   1  22
TORSDOF 7
