REMARK  Name = ZINC30782272
REMARK  3 active torsions:
REMARK  status: ('A' for Active; 'I' for Inactive)
REMARK    1  A    between atoms: C_1  and  C_2
REMARK    2  A    between atoms: C_6  and  C_8
REMARK    3  A    between atoms: C_14  and  C_17
REMARK                            x       y       z     vdW  Elec       q    Type
REMARK                         _______ _______ _______ _____ _____    ______ ____
ROOT
ATOM      1  C   UNL     1       0.052  -2.845   2.457  0.00  0.00    +0.186 A 
ATOM      2  N   UNL     1      -0.229  -2.367   3.654  0.00  0.00    -0.126 NA
ATOM      3  N   UNL     1      -0.120  -3.298   4.542  0.00  0.00    -0.120 NA
ATOM      4  C   UNL     1       0.229  -4.406   3.969  0.00  0.00    +0.213 A 
ATOM      5  N   UNL     1       0.354  -4.166   2.616  0.00  0.00    -0.186 N 
ATOM      6  N   UNL     1       0.730  -5.146   1.704  0.00  0.00    -0.166 NA
ATOM      7  C   UNL     1       0.668  -6.413   1.935  0.00  0.00    +0.090 C 
ATOM      8  C   UNL     1       0.150  -7.066   3.183  0.00  0.00    +0.136 C 
ATOM      9  S   UNL     1       0.524  -6.016   4.631  0.00  0.00    -0.078 S 
ENDROOT
BRANCH   7  10
ATOM     10  C   UNL     1       1.149  -7.301   0.876  0.00  0.00    +0.084 A 
ATOM     11  C   UNL     1       1.668  -6.964  -0.339  0.00  0.00    +0.203 A 
ATOM     12  C   UNL     1       2.086  -8.025  -1.241  0.00  0.00    +0.037 A 
ATOM     13  C   UNL     1       2.645  -7.912  -2.538  0.00  0.00    +0.013 A 
ATOM     14  C   UNL     1       2.981  -9.021  -3.248  0.00  0.00    +0.001 A 
ATOM     15  C   UNL     1       2.791 -10.298  -2.734  0.00  0.00    +0.001 A 
ATOM     16  C   UNL     1       2.248 -10.451  -1.474  0.00  0.00    +0.016 A 
ATOM     17  C   UNL     1       1.903  -9.334  -0.742  0.00  0.00    +0.024 A 
ATOM     18  S   UNL     1       1.205  -9.083   0.870  0.00  0.00    -0.083 S 
ATOM     19  O   UNL     1       1.791  -5.659  -0.701  0.00  0.00    -0.286 OA
ENDBRANCH   7  10
BRANCH   1  25
ATOM     20  C   UNL     1      -0.018   1.503   0.010  0.00  0.00    +0.044 C 
ATOM     21  C   UNL     1       0.002  -0.004   0.002  0.00  0.00    -0.050 A 
ATOM     22  C   UNL     1       0.006  -0.688  -1.201  0.00  0.00    +0.003 A 
ATOM     23  C   UNL     1       0.025  -2.071  -1.218  0.00  0.00    +0.001 A 
ATOM     24  C   UNL     1       0.040  -2.778  -0.033  0.00  0.00    +0.011 A 
ATOM     25  C   UNL     1       0.036  -2.095   1.184  0.00  0.00    +0.021 A 
ATOM     26  C   UNL     1       0.023  -0.699   1.194  0.00  0.00    +0.015 A 
ENDBRANCH   1  25
TORSDOF 2
