REMARK  Name = ZINC63626063
REMARK  7 active torsions:
REMARK  status: ('A' for Active; 'I' for Inactive)
REMARK    1  A    between atoms: C_1  and  C_2
REMARK    2  A    between atoms: C_5  and  C_8
REMARK    3  A    between atoms: N_10  and  C_11
REMARK    4  A    between atoms: C_11  and  C_13
REMARK    5  A    between atoms: C_11  and  C_23
REMARK    6  A    between atoms: C_13  and  C_14
REMARK    7  A    between atoms: N_25  and  C_26
REMARK                            x       y       z     vdW  Elec       q    Type
REMARK                         _______ _______ _______ _____ _____    ______ ____
ROOT
ATOM      1  C   UNL     1      -1.429  -1.365   4.893  0.00  0.00    +0.163 C 
ENDROOT
BRANCH   1   4
ATOM      2  C   UNL     1      -1.883  -2.802   2.978  0.00  0.00    +0.217 C 
ATOM      3  O   UNL     1      -2.839  -3.250   3.575  0.00  0.00    -0.275 OA
ATOM      4  N   UNL     1      -1.145  -1.818   3.529  0.00  0.00    -0.303 N 
ATOM      5  H   UNL     1      -0.426  -1.409   3.022  0.00  0.00    +0.149 HD
BRANCH   2  10
ATOM      6  C   UNL     1      -5.234  -1.813   0.014  0.00  0.00    +0.007 C 
ATOM      7  C   UNL     1      -3.873  -2.508   0.090  0.00  0.00    -0.014 C 
ATOM      8  C   UNL     1      -3.943  -3.657   1.097  0.00  0.00    +0.004 C 
ATOM      9  C   UNL     1      -2.582  -4.352   1.173  0.00  0.00    +0.013 C 
ATOM     10  C   UNL     1      -1.520  -3.346   1.620  0.00  0.00    +0.075 C 
ATOM     11  C   UNL     1      -1.450  -2.196   0.613  0.00  0.00    +0.013 C 
ATOM     12  C   UNL     1      -2.811  -1.502   0.536  0.00  0.00    +0.004 C 
ENDBRANCH   2  10
ENDBRANCH   1   4
BRANCH   1  13
ATOM     13  C   UNL     1      -0.807  -2.320   5.879  0.00  0.00    +0.238 C 
ATOM     14  O   UNL     1      -0.187  -3.284   5.481  0.00  0.00    -0.273 OA
ATOM     15  N   UNL     1      -0.939  -2.103   7.202  0.00  0.00    -0.284 N 
ATOM     16  H   UNL     1      -1.496  -1.376   7.522  0.00  0.00    +0.155 HD
BRANCH  15  17
ATOM     17  C   UNL     1      -0.273  -2.929   8.117  0.00  0.00    +0.037 A 
ATOM     18  C   UNL     1      -0.866  -3.239   9.334  0.00  0.00    +0.027 A 
ATOM     19  C   UNL     1      -0.209  -4.052  10.236  0.00  0.00    +0.051 A 
ATOM     20  C   UNL     1       1.044  -4.562   9.931  0.00  0.00    +0.162 A 
ATOM     21  C   UNL     1       1.640  -4.255   8.714  0.00  0.00    +0.164 A 
ATOM     22  C   UNL     1       0.979  -3.441   7.807  0.00  0.00    +0.072 A 
ATOM     23  O   UNL     1       2.867  -4.751   8.394  0.00  0.00    -0.485 OA
ATOM     24  C   UNL     1       3.657  -5.261   9.473  0.00  0.00    +0.270 C 
ATOM     25  C   UNL     1       2.763  -6.154  10.344  0.00  0.00    +0.270 C 
ATOM     26  O   UNL     1       1.679  -5.359  10.836  0.00  0.00    -0.485 OA
ENDBRANCH  15  17
ENDBRANCH   1  13
BRANCH   1  27
ATOM     27  C   UNL     1      -0.844   0.033   5.099  0.00  0.00    +0.065 C 
BRANCH  27  28
ATOM     28  C   UNL     1      -1.533   1.007   4.178  0.00  0.00    -0.039 C 
ATOM     29  C   UNL     1      -2.582   1.807   4.478  0.00  0.00    -0.001 A 
ATOM     30  C   UNL     1      -3.365   2.002   5.704  0.00  0.00    +0.010 A 
ATOM     31  C   UNL     1      -4.381   2.894   5.698  0.00  0.00    +0.001 A 
ATOM     32  C   UNL     1      -4.704   3.636   4.553  0.00  0.00    +0.002 A 
ATOM     33  C   UNL     1      -4.030   3.512   3.390  0.00  0.00    +0.026 A 
ATOM     34  C   UNL     1      -2.942   2.603   3.283  0.00  0.00    +0.043 A 
ATOM     35  N   UNL     1      -2.148   2.306   2.283  0.00  0.00    -0.380 N 
ATOM     36  C   UNL     1      -1.188   1.292   2.733  0.00  0.00    +0.144 C 
ATOM     37  H   UNL     1      -2.186   2.695   1.395  0.00  0.00    +0.160 HD
ENDBRANCH  27  28
ENDBRANCH   1  27
TORSDOF 6
