REMARK  Name = ZINC01035480
REMARK  8 active torsions:
REMARK  status: ('A' for Active; 'I' for Inactive)
REMARK    1  A    between atoms: C_1  and  O_2
REMARK    2  A    between atoms: O_2  and  C_3
REMARK    3  A    between atoms: C_7  and  C_9
REMARK    4  A    between atoms: N_10  and  N_11
REMARK    5  A    between atoms: C_12  and  C_14
REMARK    6  A    between atoms: C_15  and  N_34
REMARK    7  A    between atoms: C_17  and  C_29
REMARK    8  A    between atoms: C_19  and  C_23
REMARK                            x       y       z     vdW  Elec       q    Type
REMARK                         _______ _______ _______ _____ _____    ______ ____
ROOT
ATOM      1  C   UNL     1      -5.029  -8.172   0.033  0.00  0.00    +0.215 A 
ATOM      2  C   UNL     1      -6.190  -8.923   0.036  0.00  0.00    +0.086 A 
ATOM      3  C   UNL     1      -5.758 -10.320   0.034  0.00  0.00    +0.072 A 
ATOM      4  C   UNL     1      -6.436 -11.558   0.035  0.00  0.00    +0.033 A 
ATOM      5  C   UNL     1      -5.665 -12.723   0.033  0.00  0.00    +0.040 A 
ATOM      6  C   UNL     1      -4.277 -12.614   0.029  0.00  0.00    +0.076 A 
ATOM      7  N   UNL     1      -3.673 -11.433   0.028  0.00  0.00    -0.212 NA
ATOM      8  C   UNL     1      -4.353 -10.295   0.030  0.00  0.00    +0.231 A 
ATOM      9  O   UNL     1      -3.962  -9.005   0.023  0.00  0.00    -0.430 OA
ENDROOT
BRANCH   6  10
ATOM     10  C   UNL     1      -3.454 -13.847   0.026  0.00  0.00    +0.000 A 
ATOM     11  C   UNL     1      -4.069 -15.098   0.022  0.00  0.00    +0.010 A 
ATOM     12  C   UNL     1      -3.298 -16.243   0.019  0.00  0.00    +0.001 A 
ATOM     13  C   UNL     1      -1.917 -16.151   0.021  0.00  0.00    +0.000 A 
ATOM     14  C   UNL     1      -1.302 -14.912   0.025  0.00  0.00    +0.001 A 
ATOM     15  C   UNL     1      -2.063 -13.760   0.022  0.00  0.00    +0.010 A 
ENDBRANCH   6  10
BRANCH   4  16
ATOM     16  C   UNL     1      -7.908 -11.620   0.040  0.00  0.00    +0.136 A 
ATOM     17  C   UNL     1      -8.680 -12.365  -0.799  0.00  0.00    +0.050 A 
ATOM     18  C   UNL     1     -10.019 -12.122  -0.440  0.00  0.00    +0.042 A 
ATOM     19  C   UNL     1     -10.001 -11.250   0.589  0.00  0.00    +0.196 A 
ATOM     20  O   UNL     1      -8.725 -10.953   0.879  0.00  0.00    -0.463 OA
ENDBRANCH   4  16
BRANCH   1  22
ATOM     21  N   UNL     1      -3.770  -6.139   0.025  0.00  0.00    -0.200 N 
ATOM     22  C   UNL     1      -4.966  -6.760   0.034  0.00  0.00    +0.300 C 
ATOM     23  O   UNL     1      -5.994  -6.104   0.042  0.00  0.00    -0.265 OA
ATOM     24  H   UNL     1      -2.953  -6.660   0.018  0.00  0.00    +0.178 HD
BRANCH  21  26
ATOM     25  C   UNL     1      -2.557  -4.141   0.017  0.00  0.00    +0.138 C 
ATOM     26  N   UNL     1      -3.708  -4.739   0.025  0.00  0.00    -0.187 NA
BRANCH  25  31
ATOM     27  C   UNL     1      -1.200  -0.637   0.010  0.00  0.00    +0.121 A 
ATOM     28  C   UNL     1      -2.375   0.103   0.020  0.00  0.00    +0.045 A 
ATOM     29  C   UNL     1      -3.601  -0.535   0.028  0.00  0.00    +0.004 A 
ATOM     30  C   UNL     1      -3.667  -1.913   0.028  0.00  0.00    +0.010 A 
ATOM     31  C   UNL     1      -2.491  -2.667   0.018  0.00  0.00    -0.002 A 
ATOM     32  C   UNL     1      -1.254  -2.021   0.003  0.00  0.00    +0.055 A 
BRANCH  27  34
ATOM     33  C   UNL     1      -0.017   1.425   0.010  0.00  0.00    +0.277 C 
ATOM     34  O   UNL     1       0.002  -0.004   0.002  0.00  0.00    -0.495 OA
ENDBRANCH  27  34
ENDBRANCH  25  31
ENDBRANCH  21  26
ENDBRANCH   1  22
BRANCH   2  35
ATOM     35  N   UNL     1      -7.493  -8.449   0.041  0.00  0.00    -0.354 N 
ATOM     36  H   UNL     1      -7.662  -7.494   0.042  0.00  0.00    +0.142 HD
ATOM     37  H   UNL     1      -8.236  -9.073   0.043  0.00  0.00    +0.142 HD
ENDBRANCH   2  35
TORSDOF 7
