REMARK  Name = ZINC12097939
REMARK  10 active torsions:
REMARK  status: ('A' for Active; 'I' for Inactive)
REMARK    1  A    between atoms: C_1  and  C_2
REMARK    2  A    between atoms: C_7  and  C_19
REMARK    3  A    between atoms: C_15  and  O_18
REMARK    4  A    between atoms: C_19  and  N_20
REMARK    5  A    between atoms: N_20  and  C_21
REMARK    6  A    between atoms: C_21  and  C_22
REMARK    7  A    between atoms: C_22  and  C_23
REMARK    8  A    between atoms: C_23  and  N_24
REMARK    9  A    between atoms: C_30  and  C_32
REMARK   10  A    between atoms: C_33  and  C_37
REMARK                            x       y       z     vdW  Elec       q    Type
REMARK                         _______ _______ _______ _____ _____    ______ ____
ROOT
ATOM      1  C   UNL     1       1.556  -3.785   6.927  0.00  0.00    +0.044 C 
ATOM      2  C   UNL     1       1.095  -2.819   5.866  0.00  0.00    -0.048 A 
ATOM      3  C   UNL     1       2.031  -2.021   5.212  0.00  0.00    +0.004 A 
ATOM      4  C   UNL     1       1.645  -1.140   4.247  0.00  0.00    +0.010 A 
ATOM      5  C   UNL     1       0.287  -1.034   3.908  0.00  0.00    -0.001 A 
ATOM      6  C   UNL     1      -0.150  -0.137   2.910  0.00  0.00    +0.018 A 
ATOM      7  C   UNL     1      -1.482  -0.080   2.632  0.00  0.00    +0.008 A 
ATOM      8  C   UNL     1      -2.376  -0.909   3.325  0.00  0.00    +0.104 A 
ATOM      9  C   UNL     1      -0.666  -1.844   4.572  0.00  0.00    +0.048 A 
ATOM     10  C   UNL     1      -0.229  -2.741   5.561  0.00  0.00    +0.029 A 
ATOM     11  N   UNL     1      -3.729  -0.843   3.027  0.00  0.00    -0.314 N 
ATOM     12  C   UNL     1      -4.544  -1.046   4.232  0.00  0.00    +0.106 C 
ATOM     13  C   UNL     1      -6.020  -0.823   3.896  0.00  0.00    +0.021 C 
ATOM     14  C   UNL     1      -6.442  -1.806   2.800  0.00  0.00    +0.034 C 
ATOM     15  C   UNL     1      -5.547  -1.607   1.574  0.00  0.00    +0.132 C 
ATOM     16  C   UNL     1      -4.085  -1.807   1.978  0.00  0.00    +0.137 C 
ATOM     17  N   UNL     1      -2.013  -1.792   4.288  0.00  0.00    -0.343 N 
ATOM     18  H   UNL     1      -2.697  -2.383   4.774  0.00  0.00    +0.167 HD
ENDROOT
BRANCH  15  19
ATOM     19  O   UNL     1      -5.899  -2.558   0.567  0.00  0.00    -0.390 OA
ATOM     20  H   UNL     1      -6.790  -2.442   0.211  0.00  0.00    +0.210 HD
ENDBRANCH  15  19
BRANCH   7  21
ATOM     21  C   UNL     1      -1.993   0.868   1.578  0.00  0.00    +0.146 C 
BRANCH  21  22
ATOM     22  N   UNL     1      -0.887   1.693   1.086  0.00  0.00    -0.293 N 
ATOM     23  C   UNL     1      -0.542   2.818   1.743  0.00  0.00    +0.254 C 
ATOM     24  O   UNL     1       0.306   3.558   1.280  0.00  0.00    -0.269 OA
BRANCH  23  25
ATOM     25  C   UNL     1      -1.189   3.152   3.016  0.00  0.00    +0.077 A 
ATOM     26  C   UNL     1      -1.055   4.292   3.792  0.00  0.00    -0.031 A 
ATOM     27  C   UNL     1      -1.789   4.350   4.950  0.00  0.00    +0.011 A 
ATOM     28  C   UNL     1      -2.588   3.302   5.282  0.00  0.00    +0.046 A 
ATOM     29  S   UNL     1      -2.349   2.192   3.973  0.00  0.00    -0.092 S 
ATOM     30  C   UNL     1      -0.147   5.422   3.379  0.00  0.00    +0.045 C 
ENDBRANCH  23  25
BRANCH  22  31
ATOM     31  C   UNL     1      -0.156   1.296  -0.119  0.00  0.00    +0.110 C 
BRANCH  31  32
ATOM     32  C   UNL     1      -0.895   1.810  -1.357  0.00  0.00    +0.038 C 
BRANCH  32  33
ATOM     33  C   UNL     1      -0.132   1.395  -2.616  0.00  0.00    +0.109 C 
BRANCH  33  34
ATOM     34  N   UNL     1      -0.839   1.887  -3.800  0.00  0.00    -0.301 N 
ATOM     35  C   UNL     1      -1.872   1.133  -4.520  0.00  0.00    +0.108 C 
ATOM     36  C   UNL     1      -2.618   2.179  -5.382  0.00  0.00    +0.028 C 
ATOM     37  C   UNL     1      -1.533   3.265  -5.565  0.00  0.00    +0.097 C 
ATOM     38  C   UNL     1      -0.622   3.084  -4.371  0.00  0.00    +0.216 C 
ATOM     39  O   UNL     1       0.187   3.901  -3.985  0.00  0.00    -0.276 OA
ENDBRANCH  33  34
ENDBRANCH  32  33
ENDBRANCH  31  32
ENDBRANCH  22  31
ENDBRANCH  21  22
ENDBRANCH   7  21
TORSDOF 8
