REMARK  Name = ZINC38932120
REMARK  9 active torsions:
REMARK  status: ('A' for Active; 'I' for Inactive)
REMARK    1  A    between atoms: C_1  and  C_2
REMARK    2  A    between atoms: C_2  and  O_3
REMARK    3  A    between atoms: O_3  and  C_4
REMARK    4  A    between atoms: C_4  and  C_6
REMARK    5  A    between atoms: C_6  and  N_7
REMARK    6  A    between atoms: N_16  and  C_17
REMARK    7  A    between atoms: C_17  and  C_19
REMARK    8  A    between atoms: C_22  and  N_28
REMARK    9  A    between atoms: C_23  and  N_25
REMARK                            x       y       z     vdW  Elec       q    Type
REMARK                         _______ _______ _______ _____ _____    ______ ____
ROOT
ATOM      1  N   UNL     1       1.450  -3.817  -2.491  0.00  0.00    -0.310 N 
ATOM      2  C   UNL     1       2.482  -4.500  -1.870  0.00  0.00    +0.062 A 
ATOM      3  C   UNL     1       3.625  -3.989  -1.241  0.00  0.00    +0.076 A 
ATOM      4  C   UNL     1       4.555  -4.834  -0.670  0.00  0.00    +0.168 A 
ATOM      5  C   UNL     1       4.375  -6.217  -0.707  0.00  0.00    +0.167 A 
ATOM      6  C   UNL     1       3.251  -6.742  -1.323  0.00  0.00    +0.066 A 
ATOM      7  C   UNL     1       2.330  -5.893  -1.890  0.00  0.00    +0.043 A 
ATOM      8  S   UNL     1       0.798  -6.121  -2.754  0.00  0.00    -0.052 S 
ATOM      9  C   UNL     1       0.419  -4.509  -3.041  0.00  0.00    +0.167 A 
ATOM     10  N   UNL     1      -0.647  -4.021  -3.667  0.00  0.00    -0.152 NA
ATOM     11  O   UNL     1       5.429  -6.815  -0.079  0.00  0.00    -0.453 OA
ATOM     12  C   UNL     1       6.457  -5.809  -0.015  0.00  0.00    +0.466 C 
ATOM     13  O   UNL     1       5.726  -4.570  -0.013  0.00  0.00    -0.453 OA
ENDROOT
BRANCH  10  14
ATOM     14  C   UNL     1      -1.576  -4.852  -4.152  0.00  0.00    +0.270 C 
ATOM     15  O   UNL     1      -1.445  -6.057  -4.020  0.00  0.00    -0.268 OA
BRANCH  14  16
ATOM     16  C   UNL     1      -2.763  -4.310  -4.848  0.00  0.00    +0.041 A 
ATOM     17  C   UNL     1      -2.912  -2.930  -5.004  0.00  0.00    +0.015 A 
ATOM     18  C   UNL     1      -4.017  -2.427  -5.653  0.00  0.00    +0.026 A 
ATOM     19  C   UNL     1      -4.986  -3.293  -6.152  0.00  0.00    +0.060 A 
ATOM     20  C   UNL     1      -4.840  -4.668  -5.997  0.00  0.00    +0.148 A 
ATOM     21  C   UNL     1      -3.733  -5.176  -5.355  0.00  0.00    +0.047 A 
BRANCH  19  22
ATOM     22  N   UNL     1      -6.103  -2.782  -6.806  0.00  0.00    -0.328 N 
ATOM     23  C   UNL     1      -7.321  -2.445  -6.056  0.00  0.00    +0.105 C 
ATOM     24  C   UNL     1      -7.709  -0.997  -6.372  0.00  0.00    +0.019 C 
ATOM     25  C   UNL     1      -7.837  -0.827  -7.888  0.00  0.00    +0.003 C 
ATOM     26  C   UNL     1      -6.490  -1.122  -8.552  0.00  0.00    +0.019 C 
ATOM     27  C   UNL     1      -6.086  -2.565  -8.259  0.00  0.00    +0.105 C 
ENDBRANCH  19  22
BRANCH  20  28
ATOM     28  N   UNL     1      -5.873  -5.586  -6.529  0.00  0.00    +0.058 N 
ATOM     29  O   UNL     1      -5.746  -6.781  -6.395  0.00  0.00    -0.126 OA
ATOM     30  O   UNL     1      -6.843  -5.141  -7.097  0.00  0.00    -0.126 OA
ENDBRANCH  20  28
ENDBRANCH  14  16
ENDBRANCH  10  14
BRANCH   1  31
ATOM     31  C   UNL     1       1.468  -2.353  -2.550  0.00  0.00    +0.244 C 
BRANCH  31  32
ATOM     32  C   UNL     1       0.775  -1.794  -1.334  0.00  0.00    +0.327 C 
ATOM     33  O   UNL     1       0.314  -2.540  -0.504  0.00  0.00    -0.249 OA
BRANCH  32  34
ATOM     34  O   UNL     1       0.671  -0.465  -1.174  0.00  0.00    -0.464 OA
BRANCH  34  36
ATOM     35  C   UNL     1      -0.019   1.526   0.010  0.00  0.00    +0.048 C 
ATOM     36  C   UNL     1       0.002  -0.004   0.002  0.00  0.00    +0.229 C 
ENDBRANCH  34  36
ENDBRANCH  32  34
ENDBRANCH  31  32
ENDBRANCH   1  31
TORSDOF 8
