REMARK  Name = ZINC13366540
REMARK  9 active torsions:
REMARK  status: ('A' for Active; 'I' for Inactive)
REMARK    1  A    between atoms: C_3  and  S_19
REMARK    2  A    between atoms: C_6  and  C_7
REMARK    3  A    between atoms: C_7  and  C_9
REMARK    4  A    between atoms: C_10  and  C_11
REMARK    5  A    between atoms: S_19  and  N_22
REMARK    6  A    between atoms: N_22  and  C_23
REMARK    7  A    between atoms: C_23  and  C_24
REMARK    8  A    between atoms: C_24  and  C_25
REMARK    9  A    between atoms: C_25  and  C_26
REMARK                            x       y       z     vdW  Elec       q    Type
REMARK                         _______ _______ _______ _____ _____    ______ ____
ROOT
ATOM      1  C   UNL     1      -2.242   2.743  -3.799  0.00  0.00    +0.013 A 
ATOM      2  C   UNL     1      -2.149   2.057  -2.606  0.00  0.00    +0.029 A 
ATOM      3  C   UNL     1      -1.571   2.658  -1.502  0.00  0.00    +0.105 A 
ATOM      4  C   UNL     1      -1.087   3.952  -1.585  0.00  0.00    +0.029 A 
ATOM      5  C   UNL     1      -1.169   4.647  -2.773  0.00  0.00    +0.013 A 
ATOM      6  C   UNL     1      -1.751   4.046  -3.891  0.00  0.00    +0.022 A 
ENDROOT
BRANCH   3   7
ATOM      7  S   UNL     1      -1.456   1.774   0.019  0.00  0.00    +0.058 S 
ATOM      8  O   UNL     1      -2.475   0.784  -0.009  0.00  0.00    -0.153 OA
ATOM      9  O   UNL     1      -1.369   2.749   1.049  0.00  0.00    -0.153 OA
BRANCH   7  10
ATOM     10  N   UNL     1      -0.011   0.966   0.007  0.00  0.00    -0.190 NA
ATOM     11  H   UNL     1       0.002  -0.004   0.002  0.00  0.00    +0.148 HD
BRANCH  10  12
ATOM     12  C   UNL     1       1.248   1.716  -0.001  0.00  0.00    +0.106 C 
BRANCH  12  13
ATOM     13  C   UNL     1       2.402   0.777   0.357  0.00  0.00    +0.028 C 
BRANCH  13  14
ATOM     14  C   UNL     1       3.717   1.560   0.348  0.00  0.00    +0.126 C 
BRANCH  14  15
ATOM     15  C   UNL     1       4.854   0.636   0.700  0.00  0.00    +0.356 C 
ATOM     16  O   UNL     1       4.636  -0.529   0.934  0.00  0.00    -0.246 OA
ATOM     17  O   UNL     1       6.110   1.108   0.754  0.00  0.00    -0.246 OA
ENDBRANCH  14  15
ENDBRANCH  13  14
ENDBRANCH  12  13
ENDBRANCH  10  12
ENDBRANCH   7  10
ENDBRANCH   3   7
BRANCH   6  18
ATOM     18  C   UNL     1      -1.847   4.788  -5.167  0.00  0.00    +0.186 C 
ATOM     19  O   UNL     1      -2.355   4.261  -6.141  0.00  0.00    -0.287 OA
BRANCH  18  20
ATOM     20  C   UNL     1      -1.347   6.112  -5.257  0.00  0.00    +0.052 C 
ATOM     21  C   UNL     1      -1.435   6.790  -6.424  0.00  0.00    +0.014 C 
BRANCH  21  22
ATOM     22  C   UNL     1      -0.917   8.161  -6.517  0.00  0.00    +0.010 A 
ATOM     23  C   UNL     1      -0.337   8.773  -5.399  0.00  0.00    +0.012 A 
ATOM     24  C   UNL     1       0.151  10.057  -5.496  0.00  0.00    +0.016 A 
ATOM     25  C   UNL     1       0.060  10.750  -6.693  0.00  0.00    +0.021 A 
ATOM     26  C   UNL     1      -0.516  10.157  -7.803  0.00  0.00    +0.054 A 
ATOM     27  C   UNL     1      -1.006   8.868  -7.725  0.00  0.00    +0.132 A 
ATOM     28  F   UNL     1      -1.568   8.289  -8.809  0.00  0.00    -0.205 F 
ATOM     29 BR   UNL     1       0.728  12.515  -6.810  0.00  0.00    -0.050 Br
ENDBRANCH  21  22
ENDBRANCH  18  20
ENDBRANCH   6  18
TORSDOF 9
