REMARK  Name = ZINC63738188
REMARK  10 active torsions:
REMARK  status: ('A' for Active; 'I' for Inactive)
REMARK    1  A    between atoms: C_1  and  C_2
REMARK    2  A    between atoms: C_2  and  C_3
REMARK    3  A    between atoms: N_9  and  C_10
REMARK    4  A    between atoms: C_10  and  C_11
REMARK    5  A    between atoms: C_11  and  C_12
REMARK    6  A    between atoms: C_12  and  N_13
REMARK    7  A    between atoms: C_14  and  C_16
REMARK    8  A    between atoms: C_16  and  C_18
REMARK    9  A    between atoms: C_16  and  C_19
REMARK   10  A    between atoms: C_25  and  C_27
REMARK                            x       y       z     vdW  Elec       q    Type
REMARK                         _______ _______ _______ _____ _____    ______ ____
ROOT
ATOM      1  C   UNL     1      -3.310   4.698   6.715  0.00  0.00    +0.075 C 
ATOM      2  C   UNL     1      -2.590   4.154   7.951  0.00  0.00    +0.017 C 
ENDROOT
BRANCH   1   3
ATOM      3  C   UNL     1      -3.512   6.207   6.866  0.00  0.00    +0.004 C 
ATOM      4  C   UNL     1      -4.230   6.751   5.629  0.00  0.00    +0.023 C 
ATOM      5  C   UNL     1      -4.400   8.268   5.767  0.00  0.00    +0.108 C 
ATOM      6  N   UNL     1      -5.083   8.553   7.036  0.00  0.00    -0.300 N 
ATOM      7  C   UNL     1      -4.526   8.001   8.278  0.00  0.00    +0.108 C 
ATOM      8  C   UNL     1      -4.355   6.487   8.112  0.00  0.00    +0.023 C 
ATOM      9  C   UNL     1      -6.199   9.308   7.060  0.00  0.00    +0.242 C 
ATOM     10  O   UNL     1      -6.649   9.758   6.028  0.00  0.00    -0.273 OA
BRANCH   9  11
ATOM     11  C   UNL     1      -6.889   9.592   8.370  0.00  0.00    +0.190 C 
ATOM     12  C   UNL     1      -7.375   8.303   8.994  0.00  0.00    +0.016 C 
ATOM     13  C   UNL     1      -8.719   8.417   9.093  0.00  0.00    -0.004 A 
ATOM     14  C   UNL     1      -9.758   7.517   9.606  0.00  0.00    +0.010 A 
ATOM     15  C   UNL     1     -11.049   7.919   9.572  0.00  0.00    +0.001 A 
ATOM     16  C   UNL     1     -11.418   9.170   9.060  0.00  0.00    +0.002 A 
ATOM     17  C   UNL     1     -10.520  10.052   8.571  0.00  0.00    +0.026 A 
ATOM     18  C   UNL     1      -9.134   9.733   8.558  0.00  0.00    +0.043 A 
ATOM     19  N   UNL     1      -8.087  10.408   8.144  0.00  0.00    -0.370 N 
ATOM     20  H   UNL     1      -8.102  11.296   7.754  0.00  0.00    +0.161 HD
ENDBRANCH   9  11
ENDBRANCH   1   3
BRANCH   1  22
ATOM     21  N   UNL     1      -2.172   3.153   5.154  0.00  0.00    -0.315 N 
ATOM     22  C   UNL     1      -2.480   4.422   5.489  0.00  0.00    +0.216 C 
ATOM     23  O   UNL     1      -2.088   5.342   4.802  0.00  0.00    -0.276 OA
ATOM     24  H   UNL     1      -2.486   2.418   5.703  0.00  0.00    +0.149 HD
BRANCH  21  25
ATOM     25  C   UNL     1      -1.365   2.885   3.962  0.00  0.00    +0.102 C 
BRANCH  25  26
ATOM     26  C   UNL     1      -1.163   1.376   3.811  0.00  0.00    +0.000 C 
BRANCH  26  27
ATOM     27  C   UNL     1      -0.320   1.096   2.566  0.00  0.00    -0.077 C 
BRANCH  27  33
ATOM     28  C   UNL     1       0.584  -0.628   1.166  0.00  0.00    -0.069 C 
ATOM     29  C   UNL     1       0.716  -2.140   0.972  0.00  0.00    -0.015 C 
ATOM     30  C   UNL     1       1.502  -2.733   2.145  0.00  0.00    -0.003 C 
ATOM     31  C   UNL     1       0.792  -2.376   3.454  0.00  0.00    -0.019 C 
ATOM     32  C   UNL     1       0.657  -0.856   3.557  0.00  0.00    -0.078 C 
ATOM     33  N   UNL     1      -0.126  -0.353   2.421  0.00  0.00    +0.382 N 
ATOM     34  H   UNL     1      -1.025  -0.811   2.405  0.00  0.00    -0.081 HD
BRANCH  28  36
ATOM     35  C   UNL     1       0.583  -0.238  -1.302  0.00  0.00    +0.002 C 
ATOM     36  C   UNL     1      -0.201  -0.031  -0.004  0.00  0.00    -0.019 C 
ENDBRANCH  28  36
ENDBRANCH  27  33
ENDBRANCH  26  27
ENDBRANCH  25  26
ENDBRANCH  21  25
ENDBRANCH   1  22
TORSDOF 8
