REMARK  Name = ZINC08972970
REMARK  4 active torsions:
REMARK  status: ('A' for Active; 'I' for Inactive)
REMARK    1  A    between atoms: N_9  and  C_13
REMARK    2  A    between atoms: C_13  and  C_14
REMARK    3  A    between atoms: C_17  and  C_20
REMARK    4  A    between atoms: C_20  and  N_22
REMARK                            x       y       z     vdW  Elec       q    Type
REMARK                         _______ _______ _______ _____ _____    ______ ____
ROOT
ATOM      1  C   UNL     1       2.675  -4.710  -1.461  0.00  0.00    +0.009 C 
ATOM      2  C   UNL     1       1.337  -4.382  -2.126  0.00  0.00    +0.006 C 
ATOM      3  C   UNL     1       1.354  -4.871  -3.575  0.00  0.00    +0.013 C 
ATOM      4  C   UNL     1       1.579  -6.384  -3.600  0.00  0.00    +0.077 C 
ATOM      5  C   UNL     1       2.917  -6.712  -2.935  0.00  0.00    +0.013 C 
ATOM      6  C   UNL     1       2.899  -6.223  -1.486  0.00  0.00    +0.006 C 
ENDROOT
BRANCH   4   7
ATOM      7  C   UNL     1       0.464  -7.070  -2.852  0.00  0.00    +0.242 C 
ATOM      8  O   UNL     1      -0.424  -6.411  -2.347  0.00  0.00    -0.273 OA
BRANCH   7   9
ATOM      9  N   UNL     1       0.453  -8.395  -2.744  0.00  0.00    -0.147 NA
ATOM     10  C   UNL     1      -0.471  -8.993  -1.997  0.00  0.00    +0.198 A 
ATOM     11  N   UNL     1      -1.518  -8.372  -1.393  0.00  0.00    -0.326 N 
ATOM     12  H   UNL     1      -1.717  -7.424  -1.434  0.00  0.00    +0.169 HD
ATOM     13  C   UNL     1      -2.257  -9.331  -0.707  0.00  0.00    +0.065 A 
ATOM     14  C   UNL     1      -3.405  -9.265   0.069  0.00  0.00    +0.028 A 
ATOM     15  C   UNL     1      -3.919 -10.414   0.636  0.00  0.00    +0.002 A 
ATOM     16  C   UNL     1      -3.293 -11.633   0.434  0.00  0.00    +0.002 A 
ATOM     17  C   UNL     1      -2.150 -11.709  -0.337  0.00  0.00    +0.028 A 
ATOM     18  C   UNL     1      -1.626 -10.560  -0.911  0.00  0.00    +0.065 A 
ATOM     19  N   UNL     1      -0.520 -10.323  -1.721  0.00  0.00    -0.326 N 
ATOM     20  H   UNL     1       0.109 -10.992  -2.034  0.00  0.00    +0.169 HD
ENDBRANCH   7   9
ENDBRANCH   4   7
BRANCH   1  21
ATOM     21  C   UNL     1       2.658  -4.221  -0.011  0.00  0.00    +0.133 C 
BRANCH  21  30
ATOM     22  C   UNL     1       0.051   1.354   0.093  0.00  0.00    +0.001 A 
ATOM     23  C   UNL     1       1.241   2.064   0.090  0.00  0.00    +0.002 A 
ATOM     24  C   UNL     1       2.454   1.405   0.068  0.00  0.00    +0.026 A 
ATOM     25  C   UNL     1       2.484   0.019   0.048  0.00  0.00    +0.056 A 
ATOM     26  C   UNL     1       1.277  -0.702   0.052  0.00  0.00    +0.063 A 
ATOM     27  C   UNL     1       0.060  -0.025   0.074  0.00  0.00    +0.015 A 
ATOM     28  C   UNL     1       1.345  -2.174   0.031  0.00  0.00    +0.264 A 
ATOM     29  O   UNL     1       0.331  -2.845   0.032  0.00  0.00    -0.267 OA
ATOM     30  N   UNL     1       2.562  -2.759   0.010  0.00  0.00    -0.260 N 
ATOM     31  C   UNL     1       3.687  -2.026   0.008  0.00  0.00    +0.330 A 
ATOM     32  N   UNL     1       3.681  -0.682   0.026  0.00  0.00    -0.307 N 
ATOM     33  O   UNL     1       4.757  -2.603  -0.011  0.00  0.00    -0.246 OA
ATOM     34  H   UNL     1       4.521  -0.198   0.023  0.00  0.00    +0.170 HD
ENDBRANCH  21  30
ENDBRANCH   1  21
TORSDOF 4
