REMARK  Name = ZINC34697021
REMARK  9 active torsions:
REMARK  status: ('A' for Active; 'I' for Inactive)
REMARK    1  A    between atoms: C_1  and  C_2
REMARK    2  A    between atoms: C_2  and  C_3
REMARK    3  A    between atoms: C_3  and  C_4
REMARK    4  A    between atoms: C_4  and  N_5
REMARK    5  A    between atoms: N_5  and  C_6
REMARK    6  A    between atoms: C_6  and  C_7
REMARK    7  A    between atoms: C_21  and  C_23
REMARK    8  A    between atoms: C_26  and  C_29
REMARK    9  A    between atoms: N_32  and  C_33
REMARK                            x       y       z     vdW  Elec       q    Type
REMARK                         _______ _______ _______ _____ _____    ______ ____
ROOT
ATOM      1  C   UNL     1       3.082  -4.626  -1.964  0.00  0.00    +0.238 C 
ATOM      2  O   UNL     1       3.036  -3.465  -2.312  0.00  0.00    -0.273 OA
ATOM      3  N   UNL     1       4.273  -5.221  -1.755  0.00  0.00    -0.255 N 
ATOM      4  C   UNL     1       5.453  -4.468  -1.826  0.00  0.00    +0.061 A 
ATOM      5  C   UNL     1       5.448  -3.119  -1.507  0.00  0.00    +0.025 A 
ATOM      6  C   UNL     1       6.617  -2.386  -1.592  0.00  0.00    +0.002 A 
ATOM      7  C   UNL     1       7.794  -2.989  -1.994  0.00  0.00    +0.002 A 
ATOM      8  C   UNL     1       7.812  -4.336  -2.310  0.00  0.00    +0.028 A 
ATOM      9  C   UNL     1       6.649  -5.076  -2.222  0.00  0.00    +0.068 A 
ATOM     10  N   UNL     1       6.622  -6.449  -2.507  0.00  0.00    -0.316 N 
ATOM     11  C   UNL     1       7.543  -7.233  -3.116  0.00  0.00    +0.092 A 
ATOM     12  C   UNL     1       7.057  -8.494  -3.165  0.00  0.00    +0.020 A 
ATOM     13  C   UNL     1       5.782  -8.483  -2.557  0.00  0.00    +0.025 A 
ATOM     14  C   UNL     1       5.539  -7.229  -2.162  0.00  0.00    +0.049 A 
ATOM     15  C   UNL     1       4.332  -6.659  -1.448  0.00  0.00    +0.159 C 
ENDROOT
BRANCH  15  16
ATOM     16  C   UNL     1       4.473  -6.858   0.040  0.00  0.00    -0.021 A 
ATOM     17  C   UNL     1       5.290  -6.020   0.775  0.00  0.00    +0.006 A 
ATOM     18  C   UNL     1       5.418  -6.203   2.139  0.00  0.00    +0.004 A 
ATOM     19  C   UNL     1       4.729  -7.223   2.768  0.00  0.00    -0.050 A 
ATOM     20  C   UNL     1       3.911  -8.060   2.033  0.00  0.00    +0.004 A 
ATOM     21  C   UNL     1       3.779  -7.875   0.669  0.00  0.00    +0.006 A 
ATOM     22  C   UNL     1       4.870  -7.422   4.255  0.00  0.00    +0.044 C 
ENDBRANCH  15  16
BRANCH   1  23
ATOM     23  C   UNL     1       1.806  -5.403  -1.764  0.00  0.00    +0.205 C 
BRANCH  23  24
ATOM     24  N   UNL     1       0.658  -4.508  -1.929  0.00  0.00    -0.277 N 
ATOM     25  C   UNL     1       0.158  -3.850  -0.864  0.00  0.00    +0.307 C 
ATOM     26  O   UNL     1       0.660  -3.998   0.233  0.00  0.00    -0.252 OA
ATOM     27  N   UNL     1      -0.898  -3.027  -1.016  0.00  0.00    -0.269 N 
ATOM     28  H   UNL     1      -1.346  -2.965  -1.874  0.00  0.00    +0.156 HD
BRANCH  27  29
ATOM     29  C   UNL     1      -1.349  -2.260   0.065  0.00  0.00    +0.035 A 
ATOM     30  C   UNL     1      -2.702  -1.980   0.203  0.00  0.00    +0.025 A 
ATOM     31  C   UNL     1      -3.144  -1.223   1.270  0.00  0.00    +0.022 A 
ATOM     32  C   UNL     1      -2.240  -0.744   2.202  0.00  0.00    +0.041 A 
ATOM     33  C   UNL     1      -0.891  -1.021   2.067  0.00  0.00    +0.022 A 
ATOM     34  C   UNL     1      -0.445  -1.782   1.004  0.00  0.00    +0.025 A 
ATOM     35 CL   UNL     1      -2.800   0.207   3.542  0.00  0.00    -0.084 Cl
ENDBRANCH  27  29
BRANCH  24  36
ATOM     36  C   UNL     1       0.053  -4.329  -3.251  0.00  0.00    +0.110 C 
BRANCH  36  37
ATOM     37  C   UNL     1      -1.053  -5.367  -3.450  0.00  0.00    +0.019 C 
BRANCH  37  39
ATOM     38  C   UNL     1      -2.791  -6.219  -5.031  0.00  0.00    +0.004 C 
ATOM     39  C   UNL     1      -1.685  -5.180  -4.831  0.00  0.00    -0.002 C 
ENDBRANCH  37  39
ENDBRANCH  36  37
ENDBRANCH  24  36
ENDBRANCH  23  24
ENDBRANCH   1  23
TORSDOF 7
