REMARK  Name = ZINC45727237
REMARK  5 active torsions:
REMARK  status: ('A' for Active; 'I' for Inactive)
REMARK    1  A    between atoms: C_1  and  C_2
REMARK    2  A    between atoms: C_2  and  C_4
REMARK    3  A    between atoms: C_2  and  N_9
REMARK    4  A    between atoms: C_10  and  C_12
REMARK    5  A    between atoms: C_17  and  C_18
REMARK                            x       y       z     vdW  Elec       q    Type
REMARK                         _______ _______ _______ _____ _____    ______ ____
ROOT
ATOM      1  C   UNL     1      -3.424  -1.176  -1.139  0.00  0.00    +0.082 A 
ATOM      2  C   UNL     1      -4.128  -1.633  -0.044  0.00  0.00    +0.118 A 
ATOM      3  N   UNL     1      -5.358  -1.974  -0.457  0.00  0.00    -0.283 N 
ATOM      4  H   UNL     1      -6.061  -2.326   0.111  0.00  0.00    +0.188 HD
ATOM      5  N   UNL     1      -5.473  -1.744  -1.831  0.00  0.00    -0.173 NA
ATOM      6  C   UNL     1      -4.338  -1.259  -2.282  0.00  0.00    +0.105 A 
ENDROOT
BRANCH   6   7
ATOM      7  C   UNL     1      -4.038  -0.873  -3.682  0.00  0.00    +0.007 A 
ATOM      8  C   UNL     1      -2.826  -1.242  -4.263  0.00  0.00    +0.014 A 
ATOM      9  C   UNL     1      -2.547  -0.881  -5.565  0.00  0.00    +0.050 A 
ATOM     10  C   UNL     1      -3.471  -0.151  -6.301  0.00  0.00    +0.162 A 
ATOM     11  C   UNL     1      -4.683   0.218  -5.726  0.00  0.00    +0.163 A 
ATOM     12  C   UNL     1      -4.968  -0.146  -4.421  0.00  0.00    +0.059 A 
ATOM     13  O   UNL     1      -5.604   0.927  -6.436  0.00  0.00    -0.485 OA
ATOM     14  C   UNL     1      -5.135   1.589  -7.616  0.00  0.00    +0.270 C 
ATOM     15  C   UNL     1      -4.271   0.601  -8.410  0.00  0.00    +0.270 C 
ATOM     16  O   UNL     1      -3.175   0.198  -7.582  0.00  0.00    -0.485 OA
ENDBRANCH   6   7
BRANCH   1  18
ATOM     17  N   UNL     1      -1.278  -0.777  -0.041  0.00  0.00    -0.304 N 
ATOM     18  C   UNL     1      -2.033  -0.694  -1.155  0.00  0.00    +0.248 C 
ATOM     19  O   UNL     1      -1.565  -0.221  -2.173  0.00  0.00    -0.270 OA
ATOM     20  H   UNL     1      -1.651  -1.154   0.771  0.00  0.00    +0.150 HD
BRANCH  17  22
ATOM     21  C   UNL     1       0.128   1.208   0.217  0.00  0.00    +0.033 C 
ATOM     22  C   UNL     1       0.106  -0.297  -0.057  0.00  0.00    +0.107 C 
BRANCH  22  23
ATOM     23  C   UNL     1       0.898  -1.013   1.007  0.00  0.00    +0.010 A 
ATOM     24  C   UNL     1       2.169  -1.481   0.955  0.00  0.00    +0.013 A 
ATOM     25  C   UNL     1       2.696  -2.113   2.066  0.00  0.00    +0.008 A 
ATOM     26  C   UNL     1       1.927  -2.245   3.174  0.00  0.00    +0.045 A 
ATOM     27  S   UNL     1       0.408  -1.458   2.665  0.00  0.00    -0.100 S 
ENDBRANCH  22  23
ENDBRANCH  17  22
ENDBRANCH   1  18
TORSDOF 4
