REMARK  Name = ZINC32097222
REMARK  4 active torsions:
REMARK  status: ('A' for Active; 'I' for Inactive)
REMARK    1  A    between atoms: C_1  and  N_2
REMARK    2  A    between atoms: C_13  and  O_30
REMARK    3  A    between atoms: C_18  and  C_27
REMARK    4  A    between atoms: C_19  and  C_20
REMARK                            x       y       z     vdW  Elec       q    Type
REMARK                         _______ _______ _______ _____ _____    ______ ____
ROOT
ATOM      1  C   UNL     1      -0.018   1.461   0.010  0.00  0.00    +0.138 C 
ATOM      2  N   UNL     1       0.002  -0.004   0.002  0.00  0.00    -0.273 N 
ATOM      3  C   UNL     1      -1.135  -0.793   0.003  0.00  0.00    +0.040 A 
ATOM      4  C   UNL     1      -2.478  -0.413   0.013  0.00  0.00    +0.024 A 
ATOM      5  C   UNL     1      -3.424  -1.426   0.012  0.00  0.00    +0.002 A 
ATOM      6  C   UNL     1      -3.067  -2.759   0.002  0.00  0.00    +0.000 A 
ATOM      7  C   UNL     1      -1.733  -3.151  -0.009  0.00  0.00    +0.007 A 
ATOM      8  C   UNL     1      -0.786  -2.150  -0.007  0.00  0.00    -0.006 A 
ATOM      9  C   UNL     1       0.708  -2.196  -0.014  0.00  0.00    +0.115 C 
ATOM     10  C   UNL     1       1.131  -0.743  -0.013  0.00  0.00    +0.236 C 
ATOM     11  O   UNL     1       2.269  -0.323  -0.022  0.00  0.00    -0.274 OA
ATOM     12  C   UNL     1       1.232  -2.889  -1.274  0.00  0.00    +0.121 C 
ATOM     13  C   UNL     1       1.232  -4.380  -1.106  0.00  0.00    +0.189 C 
ATOM     14  N   UNL     1       1.411  -4.990   0.018  0.00  0.00    -0.216 NA
ATOM     15  C   UNL     1       1.591  -4.257   1.187  0.00  0.00    +0.087 A 
ATOM     16  C   UNL     1       1.248  -2.911   1.182  0.00  0.00    +0.036 A 
ATOM     17  S   UNL     1       1.565  -2.351   2.715  0.00  0.00    -0.082 S 
ATOM     18  C   UNL     1       2.185  -3.854   3.449  0.00  0.00    +0.110 A 
ATOM     19  C   UNL     1       2.095  -4.763   2.389  0.00  0.00    +0.029 A 
ENDROOT
BRANCH  19  20
ATOM     20  C   UNL     1       2.509  -6.176   2.532  0.00  0.00    -0.014 A 
ATOM     21  C   UNL     1       1.564  -7.197   2.421  0.00  0.00    +0.010 A 
ATOM     22  C   UNL     1       1.955  -8.513   2.555  0.00  0.00    +0.020 A 
ATOM     23  C   UNL     1       3.283  -8.822   2.800  0.00  0.00    +0.041 A 
ATOM     24  C   UNL     1       4.225  -7.812   2.911  0.00  0.00    +0.020 A 
ATOM     25  C   UNL     1       3.846  -6.494   2.772  0.00  0.00    +0.010 A 
ATOM     26 CL   UNL     1       3.768 -10.480   2.968  0.00  0.00    -0.084 Cl
ENDBRANCH  19  20
BRANCH  18  27
ATOM     27  C   UNL     1       2.649  -4.071   4.766  0.00  0.00    +0.394 C 
ATOM     28  O   UNL     1       2.657  -3.149   5.573  0.00  0.00    -0.240 OA
ATOM     29  O   UNL     1       3.043  -5.182   5.101  0.00  0.00    -0.240 OA
ENDBRANCH  18  27
BRANCH  13  30
ATOM     30  O   UNL     1       1.030  -5.136  -2.206  0.00  0.00    -0.495 OA
ATOM     31  H   UNL     1       1.041  -6.088  -2.036  0.00  0.00    +0.293 HD
ENDBRANCH  13  30
TORSDOF 3
