REMARK  Name = ZINC36500535
REMARK  11 active torsions:
REMARK  status: ('A' for Active; 'I' for Inactive)
REMARK    1  A    between atoms: C_1  and  C_2
REMARK    2  A    between atoms: C_2  and  C_4
REMARK    3  A    between atoms: C_2  and  C_10
REMARK    4  A    between atoms: C_10  and  C_12
REMARK    5  A    between atoms: C_10  and  N_21
REMARK    6  A    between atoms: N_14  and  C_15
REMARK    7  A    between atoms: N_21  and  C_22
REMARK    8  A    between atoms: C_22  and  C_23
REMARK    9  A    between atoms: C_28  and  C_30
REMARK   10  A    between atoms: C_31  and  O_37
REMARK   11  A    between atoms: C_35  and  O_36
REMARK                            x       y       z     vdW  Elec       q    Type
REMARK                         _______ _______ _______ _____ _____    ______ ____
ROOT
ATOM      1  C   UNL     1       0.613  -0.307  -1.238  0.00  0.00    +0.170 C 
ENDROOT
BRANCH   1   2
ATOM      2  C   UNL     1      -0.096   0.473  -2.315  0.00  0.00    +0.234 C 
ATOM      3  O   UNL     1      -1.301   0.395  -2.427  0.00  0.00    -0.274 OA
ATOM      4  N   UNL     1       0.610   1.259  -3.153  0.00  0.00    -0.311 N 
ATOM      5  H   UNL     1       1.579   1.265  -3.111  0.00  0.00    +0.149 HD
BRANCH   4   6
ATOM      6  C   UNL     1      -0.087   2.102  -4.127  0.00  0.00    +0.073 C 
ATOM      7  C   UNL     1      -0.392   1.285  -5.384  0.00  0.00    +0.022 C 
ATOM      8  C   UNL     1      -1.120   2.166  -6.401  0.00  0.00    +0.002 C 
ATOM      9  C   UNL     1      -0.234   3.358  -6.770  0.00  0.00    +0.000 C 
ATOM     10  C   UNL     1       0.070   4.175  -5.513  0.00  0.00    +0.002 C 
ATOM     11  C   UNL     1       0.798   3.294  -4.495  0.00  0.00    +0.022 C 
ENDBRANCH   4   6
ENDBRANCH   1   2
BRANCH   1  12
ATOM     12  N   UNL     1       0.448  -1.742  -1.486  0.00  0.00    -0.278 N 
ATOM     13  C   UNL     1       1.523  -2.506  -1.761  0.00  0.00    +0.255 C 
ATOM     14  O   UNL     1       2.630  -2.006  -1.804  0.00  0.00    -0.270 OA
BRANCH  13  15
ATOM     15  C   UNL     1       1.357  -3.948  -2.010  0.00  0.00    +0.119 A 
ATOM     16  C   UNL     1       1.137  -4.419  -3.313  0.00  0.00    +0.133 A 
ATOM     17  C   UNL     1       0.982  -5.778  -3.536  0.00  0.00    +0.046 A 
ATOM     18  C   UNL     1       1.044  -6.668  -2.480  0.00  0.00    +0.007 A 
ATOM     19  C   UNL     1       1.260  -6.215  -1.192  0.00  0.00    +0.046 A 
ATOM     20  C   UNL     1       1.423  -4.861  -0.947  0.00  0.00    +0.133 A 
BRANCH  20  21
ATOM     21  O   UNL     1       1.641  -4.419   0.317  0.00  0.00    -0.506 OA
ATOM     22  H   UNL     1       0.832  -4.211   0.805  0.00  0.00    +0.292 HD
ENDBRANCH  20  21
BRANCH  16  23
ATOM     23  O   UNL     1       1.075  -3.548  -4.351  0.00  0.00    -0.506 OA
ATOM     24  H   UNL     1       1.929  -3.374  -4.770  0.00  0.00    +0.292 HD
ENDBRANCH  16  23
ENDBRANCH  13  15
BRANCH  12  25
ATOM     25  C   UNL     1      -0.886  -2.345  -1.434  0.00  0.00    +0.183 C 
BRANCH  25  26
ATOM     26  C   UNL     1      -1.447  -2.444  -2.829  0.00  0.00    +0.122 A 
ATOM     27  C   UNL     1      -1.432  -3.542  -3.607  0.00  0.00    +0.046 A 
ATOM     28  C   UNL     1      -2.059  -3.190  -4.824  0.00  0.00    +0.041 A 
ATOM     29  C   UNL     1      -2.421  -1.898  -4.717  0.00  0.00    +0.195 A 
ATOM     30  O   UNL     1      -2.053  -1.454  -3.504  0.00  0.00    -0.466 OA
ENDBRANCH  25  26
ENDBRANCH  12  25
ENDBRANCH   1  12
BRANCH   1  32
ATOM     31  C   UNL     1       0.090   1.560   0.337  0.00  0.00    +0.015 C 
ATOM     32  C   UNL     1       0.016   0.047   0.125  0.00  0.00    +0.045 C 
BRANCH  32  33
ATOM     33  C   UNL     1       0.795  -0.651   1.211  0.00  0.00    -0.042 A 
ATOM     34  C   UNL     1       2.145  -0.396   1.366  0.00  0.00    +0.004 A 
ATOM     35  C   UNL     1       2.859  -1.036   2.362  0.00  0.00    +0.000 A 
ATOM     36  C   UNL     1       2.223  -1.931   3.203  0.00  0.00    +0.000 A 
ATOM     37  C   UNL     1       0.873  -2.184   3.048  0.00  0.00    +0.000 A 
ATOM     38  C   UNL     1       0.158  -1.541   2.055  0.00  0.00    +0.004 A 
ENDBRANCH  32  33
ENDBRANCH   1  32
TORSDOF 10
