REMARK  Name = ZINC20610483
REMARK  8 active torsions:
REMARK  status: ('A' for Active; 'I' for Inactive)
REMARK    1  A    between atoms: C_1  and  C_2
REMARK    2  A    between atoms: C_2  and  C_3
REMARK    3  A    between atoms: C_3  and  C_4
REMARK    4  A    between atoms: C_4  and  C_5
REMARK    5  A    between atoms: C_8  and  N_11
REMARK    6  A    between atoms: C_16  and  C_35
REMARK    7  A    between atoms: C_26  and  C_34
REMARK    8  A    between atoms: C_35  and  C_36
REMARK                            x       y       z     vdW  Elec       q    Type
REMARK                         _______ _______ _______ _____ _____    ______ ____
ROOT
ATOM      1  N   UNL     1      -6.737  -4.028   0.045  0.00  0.00    -0.210 N 
ATOM      2  C   UNL     1      -7.375  -4.367   1.171  0.00  0.00    +0.232 C 
ATOM      3  O   UNL     1      -6.908  -4.300   2.288  0.00  0.00    -0.274 OA
ATOM      4  C   UNL     1      -8.769  -4.845   0.835  0.00  0.00    +0.108 C 
ATOM      5  C   UNL     1      -8.878  -6.354   1.141  0.00  0.00    +0.076 C 
ATOM      6  N   UNL     1      -8.403  -7.030  -0.096  0.00  0.00    -0.295 NA
ATOM      7  C   UNL     1      -8.943  -6.200  -1.189  0.00  0.00    +0.136 C 
ATOM      8  C   UNL     1      -8.823  -4.731  -0.714  0.00  0.00    +0.123 C 
ATOM      9  C   UNL     1      -7.459  -4.185  -1.071  0.00  0.00    +0.233 C 
ATOM     10  O   UNL     1      -7.077  -3.932  -2.193  0.00  0.00    -0.274 OA
ATOM     11  C   UNL     1      -8.202  -6.429  -2.475  0.00  0.00    +0.005 A 
ATOM     12  C   UNL     1      -6.884  -6.285  -2.849  0.00  0.00    +0.011 A 
ATOM     13  C   UNL     1      -6.494  -6.584  -4.143  0.00  0.00    -0.049 A 
ATOM     14  C   UNL     1      -7.430  -7.027  -5.060  0.00  0.00    +0.025 A 
ATOM     15  C   UNL     1      -8.752  -7.173  -4.690  0.00  0.00    +0.063 A 
ATOM     16  C   UNL     1      -9.153  -6.874  -3.389  0.00  0.00    +0.057 A 
ATOM     17  N   UNL     1     -10.411  -6.938  -2.784  0.00  0.00    -0.282 N 
ATOM     18  C   UNL     1     -10.373  -6.557  -1.492  0.00  0.00    +0.243 C 
ATOM     19  O   UNL     1     -11.310  -6.512  -0.723  0.00  0.00    -0.273 OA
ATOM     20 CL   UNL     1      -9.918  -7.730  -5.849  0.00  0.00    -0.082 Cl
ATOM     21  C   UNL     1      -5.052  -6.426  -4.552  0.00  0.00    +0.044 C 
ATOM     22  H   UNL     1      -7.395  -7.058  -0.128  0.00  0.00    +0.124 HD
ATOM     23  H   UNL     1     -11.217  -7.223  -3.241  0.00  0.00    +0.155 HD
ENDROOT
BRANCH   1  27
ATOM     24  C   UNL     1      -2.827  -2.584   0.014  0.00  0.00    -0.047 A 
ATOM     25  C   UNL     1      -3.076  -3.894   0.380  0.00  0.00    +0.005 A 
ATOM     26  C   UNL     1      -4.370  -4.375   0.391  0.00  0.00    +0.024 A 
ATOM     27  C   UNL     1      -5.422  -3.542   0.035  0.00  0.00    +0.044 A 
ATOM     28  C   UNL     1      -5.169  -2.227  -0.332  0.00  0.00    +0.024 A 
ATOM     29  C   UNL     1      -3.873  -1.750  -0.336  0.00  0.00    +0.005 A 
BRANCH  24  30
ATOM     30  C   UNL     1      -1.413  -2.062   0.003  0.00  0.00    +0.035 C 
BRANCH  30  31
ATOM     31  C   UNL     1      -1.073  -1.481   1.377  0.00  0.00    +0.004 C 
BRANCH  31  33
ATOM     32  C   UNL     1       0.702  -0.369   2.739  0.00  0.00    +0.004 C 
ATOM     33  C   UNL     1       0.362  -0.951   1.365  0.00  0.00    -0.003 C 
ENDBRANCH  31  33
ENDBRANCH  30  31
ENDBRANCH  24  30
ENDBRANCH   1  27
BRANCH   5  34
ATOM     34  C   UNL     1      -7.987  -6.723   2.328  0.00  0.00    +0.115 C 
BRANCH  34  35
ATOM     35  C   UNL     1      -8.201  -8.171   2.687  0.00  0.00    +0.212 C 
ATOM     36  O   UNL     1      -8.990  -8.841   2.055  0.00  0.00    -0.276 OA
ATOM     37  N   UNL     1      -7.517  -8.720   3.710  0.00  0.00    -0.329 N 
ATOM     38  H   UNL     1      -6.886  -8.183   4.215  0.00  0.00    +0.145 HD
ATOM     39  H   UNL     1      -7.655  -9.652   3.941  0.00  0.00    +0.145 HD
ENDBRANCH  34  35
ENDBRANCH   5  34
TORSDOF 6
