REMARK  Name = ZINC38768192
REMARK  6 active torsions:
REMARK  status: ('A' for Active; 'I' for Inactive)
REMARK    1  A    between atoms: C_5  and  C_7
REMARK    2  A    between atoms: C_7  and  O_8
REMARK    3  A    between atoms: O_8  and  C_9
REMARK    4  A    between atoms: C_12  and  C_16
REMARK    5  A    between atoms: C_13  and  O_15
REMARK    6  A    between atoms: C_18  and  C_22
REMARK                            x       y       z     vdW  Elec       q    Type
REMARK                         _______ _______ _______ _____ _____    ______ ____
ROOT
ATOM      1  C   UNL     1      -0.272  -4.030  -0.017  0.00  0.00    +0.124 A 
ATOM      2  C   UNL     1       0.840  -4.861  -0.027  0.00  0.00    +0.046 A 
ATOM      3  C   UNL     1       0.678  -6.233  -0.033  0.00  0.00    +0.013 A 
ATOM      4  C   UNL     1      -0.591  -6.782  -0.030  0.00  0.00    +0.022 A 
ATOM      5  C   UNL     1      -1.705  -5.955  -0.020  0.00  0.00    +0.126 A 
ATOM      6  C   UNL     1      -1.545  -4.578  -0.007  0.00  0.00    +0.091 A 
ENDROOT
BRANCH   4   7
ATOM      7  C   UNL     1      -0.764  -8.278  -0.038  0.00  0.00    +0.164 C 
ATOM      8  C   UNL     1      -1.003  -8.800   1.369  0.00  0.00    +0.008 C 
ATOM      9  C   UNL     1       0.049  -9.624   1.587  0.00  0.00    +0.139 C 
ATOM     10  N   UNL     1       0.853  -9.653   0.516  0.00  0.00    -0.185 NA
ATOM     11  N   UNL     1       0.489  -8.946  -0.431  0.00  0.00    -0.297 N 
ATOM     12  H   UNL     1       0.945  -8.847  -1.281  0.00  0.00    +0.183 HD
BRANCH   8  13
ATOM     13  C   UNL     1      -2.114  -8.483   2.280  0.00  0.00    -0.018 A 
ATOM     14  C   UNL     1      -3.420  -8.866   1.956  0.00  0.00    +0.010 A 
ATOM     15  C   UNL     1      -4.456  -8.566   2.815  0.00  0.00    +0.020 A 
ATOM     16  C   UNL     1      -4.206  -7.887   3.996  0.00  0.00    +0.041 A 
ATOM     17  C   UNL     1      -2.916  -7.504   4.323  0.00  0.00    +0.020 A 
ATOM     18  C   UNL     1      -1.869  -7.802   3.477  0.00  0.00    +0.010 A 
ATOM     19 CL   UNL     1      -5.517  -7.513   5.071  0.00  0.00    -0.084 Cl
ENDBRANCH   8  13
ENDBRANCH   4   7
BRANCH   5  20
ATOM     20  O   UNL     1      -2.952  -6.495  -0.016  0.00  0.00    -0.506 OA
ATOM     21  H   UNL     1      -3.309  -6.656   0.868  0.00  0.00    +0.292 HD
ENDBRANCH   5  20
BRANCH   1  22
ATOM     22  O   UNL     1      -0.112  -2.680  -0.011  0.00  0.00    -0.487 OA
BRANCH  22  23
ATOM     23  C   UNL     1       1.229  -2.186  -0.022  0.00  0.00    +0.266 C 
BRANCH  23  28
ATOM     24  C   UNL     1      -0.017   1.378   0.010  0.00  0.00    +0.000 A 
ATOM     25  C   UNL     1       1.171   2.086   0.002  0.00  0.00    +0.001 A 
ATOM     26  C   UNL     1       2.377   1.412  -0.013  0.00  0.00    +0.020 A 
ATOM     27  C   UNL     1       2.397   0.029  -0.021  0.00  0.00    +0.047 A 
ATOM     28  C   UNL     1       1.208  -0.679  -0.013  0.00  0.00    +0.008 A 
ATOM     29  C   UNL     1       0.002  -0.004   0.002  0.00  0.00    +0.008 A 
ATOM     30 CL   UNL     1       3.912  -0.818  -0.041  0.00  0.00    -0.083 Cl
ENDBRANCH  23  28
ENDBRANCH  22  23
ENDBRANCH   1  22
TORSDOF 6
