REMARK  Name = ZINC01711655
REMARK  7 active torsions:
REMARK  status: ('A' for Active; 'I' for Inactive)
REMARK    1  A    between atoms: C_3  and  S_27
REMARK    2  A    between atoms: C_6  and  C_7
REMARK    3  A    between atoms: C_7  and  N_8
REMARK    4  A    between atoms: N_8  and  C_9
REMARK    5  A    between atoms: C_11  and  N_26
REMARK    6  A    between atoms: C_17  and  C_19
REMARK    7  A    between atoms: S_27  and  N_30
REMARK                            x       y       z     vdW  Elec       q    Type
REMARK                         _______ _______ _______ _____ _____    ______ ____
ROOT
ATOM      1  C   UNL     1      -2.900  -1.714  -1.613  0.00  0.00    +0.060 A 
ATOM      2  C   UNL     1      -3.679  -2.183  -0.573  0.00  0.00    +0.066 A 
ATOM      3  C   UNL     1      -4.857  -2.882  -0.852  0.00  0.00    +0.097 A 
ATOM      4  N   UNL     1      -5.250  -3.109  -2.091  0.00  0.00    -0.327 N 
ATOM      5  C   UNL     1      -4.541  -2.681  -3.142  0.00  0.00    +0.160 A 
ATOM      6  C   UNL     1      -3.338  -1.960  -2.940  0.00  0.00    +0.127 A 
ATOM      7  N   UNL     1      -2.633  -1.529  -3.987  0.00  0.00    -0.248 NA
ATOM      8  C   UNL     1      -3.059  -1.768  -5.206  0.00  0.00    +0.140 A 
ATOM      9  C   UNL     1      -4.253  -2.477  -5.416  0.00  0.00    +0.091 A 
ATOM     10  N   UNL     1      -4.959  -2.924  -4.389  0.00  0.00    -0.226 NA
ATOM     11  H   UNL     1      -6.073  -3.598  -2.244  0.00  0.00    +0.169 HD
ENDROOT
BRANCH   9  12
ATOM     12  C   UNL     1      -4.720  -2.738  -6.798  0.00  0.00    +0.002 A 
ATOM     13  C   UNL     1      -5.958  -3.343  -7.016  0.00  0.00    +0.011 A 
ATOM     14  C   UNL     1      -6.388  -3.584  -8.305  0.00  0.00    +0.020 A 
ATOM     15  C   UNL     1      -5.593  -3.226  -9.381  0.00  0.00    +0.041 A 
ATOM     16  C   UNL     1      -4.363  -2.625  -9.170  0.00  0.00    +0.020 A 
ATOM     17  C   UNL     1      -3.926  -2.375  -7.885  0.00  0.00    +0.011 A 
ATOM     18 CL   UNL     1      -6.139  -3.533 -11.000  0.00  0.00    -0.084 Cl
ENDBRANCH   9  12
BRANCH   3  19
ATOM     19  N   UNL     1      -5.631  -3.348   0.199  0.00  0.00    -0.345 N 
ATOM     20  H   UNL     1      -5.353  -3.188   1.114  0.00  0.00    +0.144 HD
ATOM     21  H   UNL     1      -6.451  -3.834   0.018  0.00  0.00    +0.144 HD
ENDBRANCH   3  19
BRANCH   1  22
ATOM     22  N   UNL     1      -1.726  -1.018  -1.368  0.00  0.00    -0.338 N 
ATOM     23  H   UNL     1      -1.192  -0.691  -2.108  0.00  0.00    +0.146 HD
BRANCH  22  24
ATOM     24  C   UNL     1      -1.293  -0.775   0.011  0.00  0.00    +0.137 C 
BRANCH  24  30
ATOM     25  C   UNL     1      -0.017   1.378   0.010  0.00  0.00    +0.007 A 
ATOM     26  C   UNL     1       1.171   2.086   0.002  0.00  0.00    +0.029 A 
ATOM     27  C   UNL     1       2.377   1.411  -0.013  0.00  0.00    +0.105 A 
ATOM     28  C   UNL     1       2.396   0.029  -0.020  0.00  0.00    +0.029 A 
ATOM     29  C   UNL     1       1.208  -0.679  -0.012  0.00  0.00    +0.007 A 
ATOM     30  C   UNL     1       0.002  -0.004   0.002  0.00  0.00    -0.030 A 
BRANCH  27  31
ATOM     31  S   UNL     1       3.891   2.312  -0.024  0.00  0.00    +0.056 S 
ATOM     32  O   UNL     1       4.872   1.453  -0.588  0.00  0.00    -0.153 OA
ATOM     33  O   UNL     1       3.597   3.593  -0.566  0.00  0.00    -0.153 OA
BRANCH  31  34
ATOM     34  N   UNL     1       4.327   2.556   1.555  0.00  0.00    -0.204 NA
ATOM     35  H   UNL     1       5.265   2.623   1.794  0.00  0.00    +0.144 HD
ATOM     36  H   UNL     1       3.645   2.631   2.241  0.00  0.00    +0.144 HD
ENDBRANCH  31  34
ENDBRANCH  27  31
ENDBRANCH  24  30
ENDBRANCH  22  24
ENDBRANCH   1  22
TORSDOF 7
