REMARK  Name = ZINC02383451
REMARK  9 active torsions:
REMARK  status: ('A' for Active; 'I' for Inactive)
REMARK    1  A    between atoms: C_1  and  O_2
REMARK    2  A    between atoms: O_2  and  C_3
REMARK    3  A    between atoms: C_6  and  C_11
REMARK    4  A    between atoms: C_8  and  O_9
REMARK    5  A    between atoms: O_9  and  C_10
REMARK    6  A    between atoms: C_19  and  C_20
REMARK    7  A    between atoms: C_23  and  C_25
REMARK    8  A    between atoms: C_28  and  S_31
REMARK    9  A    between atoms: S_31  and  N_34
REMARK                            x       y       z     vdW  Elec       q    Type
REMARK                         _______ _______ _______ _____ _____    ______ ____
ROOT
ATOM      1  C   UNL     1       2.480   1.069  -0.015  0.00  0.00    +0.183 A 
ATOM      2  N   UNL     1       2.628  -0.265  -0.024  0.00  0.00    -0.200 NA
ATOM      3  C   UNL     1       3.896  -0.556  -0.037  0.00  0.00    +0.200 A 
ATOM      4  N   UNL     1       4.635   0.595  -0.038  0.00  0.00    -0.169 N 
ATOM      5  N   UNL     1       3.663   1.632  -0.029  0.00  0.00    -0.141 NA
ATOM      6  C   UNL     1       5.970   0.496  -0.051  0.00  0.00    +0.288 A 
ATOM      7  O   UNL     1       6.664   1.497  -0.052  0.00  0.00    -0.265 OA
ATOM      8  C   UNL     1       6.566  -0.794  -0.063  0.00  0.00    +0.085 A 
ATOM      9  C   UNL     1       7.898  -1.141  -0.076  0.00  0.00    +0.067 C 
ATOM     10  S   UNL     1       5.121  -1.845  -0.056  0.00  0.00    -0.044 S 
ENDROOT
BRANCH   1  14
ATOM     11  C   UNL     1      -1.236   3.145   0.031  0.00  0.00    +0.162 A 
ATOM     12  C   UNL     1      -0.044   3.855   0.023  0.00  0.00    +0.050 A 
ATOM     13  C   UNL     1       1.161   3.184   0.008  0.00  0.00    +0.015 A 
ATOM     14  C   UNL     1       1.184   1.790   0.000  0.00  0.00    +0.025 A 
ATOM     15  C   UNL     1      -0.013   1.076   0.008  0.00  0.00    +0.061 A 
ATOM     16  C   UNL     1      -1.219   1.752   0.017  0.00  0.00    +0.162 A 
BRANCH  11  18
ATOM     17  C   UNL     1      -2.365   5.237   0.052  0.00  0.00    +0.277 C 
ATOM     18  O   UNL     1      -2.422   3.809   0.045  0.00  0.00    -0.491 OA
ENDBRANCH  11  18
BRANCH  16  19
ATOM     19  O   UNL     1      -2.388   1.058   0.019  0.00  0.00    -0.491 OA
ATOM     20  C   UNL     1      -2.296  -0.368   0.010  0.00  0.00    +0.277 C 
ENDBRANCH  16  19
ENDBRANCH   1  14
BRANCH   9  21
ATOM     21  C   UNL     1       8.273  -2.500  -0.087  0.00  0.00    +0.130 A 
ATOM     22  C   UNL     1       9.569  -2.985  -0.107  0.00  0.00    +0.050 A 
ATOM     23  C   UNL     1       9.480  -4.378  -0.109  0.00  0.00    +0.050 A 
ATOM     24  C   UNL     1       8.140  -4.696  -0.100  0.00  0.00    +0.136 A 
ATOM     25  O   UNL     1       7.429  -3.554  -0.087  0.00  0.00    -0.455 OA
BRANCH  24  26
ATOM     26  C   UNL     1       7.578  -6.060  -0.103  0.00  0.00    +0.017 A 
ATOM     27  C   UNL     1       8.428  -7.169  -0.122  0.00  0.00    +0.013 A 
ATOM     28  C   UNL     1       7.895  -8.441  -0.120  0.00  0.00    +0.029 A 
ATOM     29  C   UNL     1       6.523  -8.621  -0.110  0.00  0.00    +0.105 A 
ATOM     30  C   UNL     1       5.676  -7.527  -0.096  0.00  0.00    +0.029 A 
ATOM     31  C   UNL     1       6.194  -6.249  -0.093  0.00  0.00    +0.013 A 
BRANCH  29  32
ATOM     32  S   UNL     1       5.852 -10.250  -0.115  0.00  0.00    +0.056 S 
ATOM     33  O   UNL     1       6.853 -11.104   0.422  0.00  0.00    -0.153 OA
ATOM     34  O   UNL     1       4.550 -10.155   0.446  0.00  0.00    -0.153 OA
BRANCH  32  35
ATOM     35  N   UNL     1       5.653 -10.693  -1.699  0.00  0.00    -0.204 NA
ATOM     36  H   UNL     1       5.898 -10.079  -2.408  0.00  0.00    +0.144 HD
ATOM     37  H   UNL     1       5.291 -11.566  -1.917  0.00  0.00    +0.144 HD
ENDBRANCH  32  35
ENDBRANCH  29  32
ENDBRANCH  24  26
ENDBRANCH   9  21
TORSDOF 7
