REMARK  Name = ZINC16503994
REMARK  15 active torsions:
REMARK  status: ('A' for Active; 'I' for Inactive)
REMARK    1  A    between atoms: C_1  and  C_2
REMARK    2  A    between atoms: C_2  and  C_3
REMARK    3  A    between atoms: C_3  and  N_4
REMARK    4  A    between atoms: N_4  and  C_5
REMARK    5  A    between atoms: C_5  and  C_6
REMARK    6  A    between atoms: C_16  and  C_18
REMARK    7  A    between atoms: C_21  and  C_24
REMARK    8  A    between atoms: C_24  and  C_25
REMARK    9  A    between atoms: C_24  and  C_26
REMARK   10  A    between atoms: C_24  and  C_27
REMARK   11  A    between atoms: C_28  and  C_30
REMARK   12  A    between atoms: C_33  and  O_38
REMARK   13  A    between atoms: C_35  and  O_36
REMARK   14  A    between atoms: O_36  and  C_37
REMARK   15  A    between atoms: O_38  and  C_39
REMARK                            x       y       z     vdW  Elec       q    Type
REMARK                         _______ _______ _______ _____ _____    ______ ____
ROOT
ATOM      1  C   UNL     1       4.482   3.024  -2.223  0.00  0.00    +0.234 C 
ATOM      2  O   UNL     1       3.667   3.657  -1.585  0.00  0.00    -0.274 OA
ATOM      3  N   UNL     1       5.354   2.216  -1.587  0.00  0.00    -0.289 N 
ATOM      4  C   UNL     1       6.402   1.511  -2.341  0.00  0.00    +0.114 C 
ATOM      5  C   UNL     1       7.768   2.046  -1.883  0.00  0.00    +0.062 C 
ATOM      6  C   UNL     1       7.758   2.172  -0.394  0.00  0.00    -0.003 A 
ATOM      7  C   UNL     1       6.681   2.173   0.439  0.00  0.00    -0.012 A 
ATOM      8  C   UNL     1       6.943   2.312   1.800  0.00  0.00    +0.013 A 
ATOM      9  C   UNL     1       8.218   2.431   2.235  0.00  0.00    +0.046 A 
ATOM     10  S   UNL     1       9.137   2.355   0.706  0.00  0.00    -0.101 S 
ATOM     11  C   UNL     1       5.271   2.028  -0.133  0.00  0.00    +0.137 C 
ENDROOT
BRANCH  11  12
ATOM     12  C   UNL     1       4.367   3.074   0.467  0.00  0.00    -0.023 A 
ATOM     13  C   UNL     1       4.744   4.404   0.453  0.00  0.00    +0.006 A 
ATOM     14  C   UNL     1       3.917   5.362   1.008  0.00  0.00    +0.004 A 
ATOM     15  C   UNL     1       2.708   4.992   1.567  0.00  0.00    -0.042 A 
ATOM     16  C   UNL     1       2.331   3.663   1.580  0.00  0.00    +0.004 A 
ATOM     17  C   UNL     1       3.160   2.704   1.030  0.00  0.00    +0.006 A 
BRANCH  15  18
ATOM     18  C   UNL     1       1.804   6.038   2.167  0.00  0.00    -0.013 C 
ATOM     19  C   UNL     1       1.583   5.731   3.650  0.00  0.00    +0.015 C 
ATOM     20  C   UNL     1       2.453   7.417   2.023  0.00  0.00    +0.015 C 
ATOM     21  C   UNL     1       0.459   6.029   1.438  0.00  0.00    +0.015 C 
ENDBRANCH  15  18
ENDBRANCH  11  12
BRANCH   1  22
ATOM     22  C   UNL     1       4.520   3.141  -3.725  0.00  0.00    +0.204 C 
BRANCH  22  23
ATOM     23  N   UNL     1       3.480   4.073  -4.168  0.00  0.00    -0.289 N 
ATOM     24  C   UNL     1       2.401   3.613  -4.832  0.00  0.00    +0.251 C 
ATOM     25  O   UNL     1       1.557   4.390  -5.234  0.00  0.00    -0.270 OA
BRANCH  24  26
ATOM     26  C   UNL     1       2.245   2.168  -5.072  0.00  0.00    +0.079 A 
ATOM     27  C   UNL     1       2.759   1.244  -4.156  0.00  0.00    +0.020 A 
ATOM     28  C   UNL     1       2.611  -0.104  -4.383  0.00  0.00    +0.046 A 
ATOM     29  C   UNL     1       1.951  -0.555  -5.522  0.00  0.00    +0.124 A 
ATOM     30  C   UNL     1       1.437   0.352  -6.437  0.00  0.00    +0.092 A 
ATOM     31  C   UNL     1       1.575   1.712  -6.217  0.00  0.00    +0.136 A 
BRANCH  31  32
ATOM     32  O   UNL     1       1.068   2.600  -7.108  0.00  0.00    -0.494 OA
ATOM     33  C   UNL     1       0.398   2.063  -8.250  0.00  0.00    +0.277 C 
ENDBRANCH  31  32
BRANCH  29  34
ATOM     34  O   UNL     1       1.809  -1.887  -5.738  0.00  0.00    -0.495 OA
ATOM     35  C   UNL     1       2.361  -2.766  -4.756  0.00  0.00    +0.277 C 
ENDBRANCH  29  34
ENDBRANCH  24  26
BRANCH  23  36
ATOM     36  C   UNL     1       3.613   5.505  -3.890  0.00  0.00    +0.108 C 
BRANCH  36  38
ATOM     37  C   UNL     1       4.594   7.657  -4.695  0.00  0.00    +0.005 C 
ATOM     38  C   UNL     1       4.455   6.161  -4.986  0.00  0.00    +0.016 C 
ENDBRANCH  36  38
ENDBRANCH  23  36
ENDBRANCH  22  23
ENDBRANCH   1  22
TORSDOF 9
