REMARK  Name = ZINC12635570
REMARK  13 active torsions:
REMARK  status: ('A' for Active; 'I' for Inactive)
REMARK    1  A    between atoms: C_1  and  C_2
REMARK    2  A    between atoms: C_2  and  N_70
REMARK    3  A    between atoms: C_6  and  C_8
REMARK    4  A    between atoms: C_8  and  N_9
REMARK    5  A    between atoms: N_9  and  C_10
REMARK    6  A    between atoms: N_9  and  C_25
REMARK    7  A    between atoms: C_10  and  C_11
REMARK    8  A    between atoms: C_16  and  C_24
REMARK    9  A    between atoms: C_17  and  C_23
REMARK   10  A    between atoms: C_25  and  N_27
REMARK   11  A    between atoms: N_27  and  C_28
REMARK   12  A    between atoms: C_31  and  C_35
REMARK   13  A    between atoms: C_33  and  C_34
REMARK                            x       y       z     vdW  Elec       q    Type
REMARK                         _______ _______ _______ _____ _____    ______ ____
ROOT
ATOM      1  N   UNL     1      -2.682   0.961  -0.548  0.00  0.00    -0.309 N 
ENDROOT
BRANCH   1   2
ATOM      2  C   UNL     1      -3.384   1.898  -1.216  0.00  0.00    +0.137 C 
ATOM      3  S   UNL     1      -3.795   3.370  -0.446  0.00  0.00    -0.018 S 
BRANCH   2   4
ATOM      4  N   UNL     1      -3.763   1.675  -2.490  0.00  0.00    -0.297 N 
ATOM      5  H   UNL     1      -3.597   0.813  -2.902  0.00  0.00    +0.154 HD
BRANCH   4   6
ATOM      6  C   UNL     1      -4.396   2.687  -3.218  0.00  0.00    +0.036 A 
ATOM      7  C   UNL     1      -5.447   3.399  -2.653  0.00  0.00    +0.024 A 
ATOM      8  C   UNL     1      -6.067   4.401  -3.373  0.00  0.00    +0.005 A 
ATOM      9  C   UNL     1      -5.650   4.689  -4.660  0.00  0.00    -0.050 A 
ATOM     10  C   UNL     1      -4.608   3.980  -5.227  0.00  0.00    +0.008 A 
ATOM     11  C   UNL     1      -3.980   2.980  -4.510  0.00  0.00    -0.029 A 
ATOM     12  C   UNL     1      -2.844   2.206  -5.130  0.00  0.00    +0.045 C 
ATOM     13  C   UNL     1      -6.333   5.779  -5.445  0.00  0.00    +0.044 C 
ENDBRANCH   4   6
ENDBRANCH   2   4
ENDBRANCH   1   2
BRANCH   1  14
ATOM     14  C   UNL     1      -2.329  -0.299  -1.207  0.00  0.00    +0.092 C 
BRANCH  14  18
ATOM     15  C   UNL     1      -3.985  -2.901   0.755  0.00  0.00    -0.078 C 
ATOM     16  C   UNL     1      -3.884  -3.657  -0.586  0.00  0.00    -0.020 C 
ATOM     17  C   UNL     1      -2.984  -2.729  -1.444  0.00  0.00    -0.016 C 
ATOM     18  C   UNL     1      -3.438  -1.326  -0.968  0.00  0.00    -0.051 C 
ATOM     19  N   UNL     1      -3.672  -1.489   0.481  0.00  0.00    +0.382 N 
ATOM     20  H   UNL     1      -2.824  -1.223   0.995  0.00  0.00    -0.081 HD
BRANCH  19  22
ATOM     21  C   UNL     1      -5.086  -0.874   2.399  0.00  0.00    -0.017 C 
ATOM     22  C   UNL     1      -4.797  -0.621   0.918  0.00  0.00    -0.082 C 
ENDBRANCH  19  22
ENDBRANCH  14  18
ENDBRANCH   1  14
BRANCH   1  23
ATOM     23  C   UNL     1      -2.270   1.204   0.837  0.00  0.00    +0.147 C 
BRANCH  23  24
ATOM     24  C   UNL     1      -0.916   1.867   0.850  0.00  0.00    +0.035 A 
ATOM     25  C   UNL     1      -0.827   3.217   0.933  0.00  0.00    +0.020 A 
ATOM     26  C   UNL     1       0.502   3.831   0.937  0.00  0.00    -0.001 A 
ATOM     27  C   UNL     1       0.658   5.219   1.013  0.00  0.00    +0.010 A 
ATOM     28  C   UNL     1       1.913   5.760   1.015  0.00  0.00    +0.004 A 
ATOM     29  C   UNL     1       3.034   4.945   0.941  0.00  0.00    -0.046 A 
ATOM     30  C   UNL     1       2.904   3.575   0.864  0.00  0.00    -0.024 A 
ATOM     31  C   UNL     1       1.637   3.001   0.861  0.00  0.00    +0.052 A 
ATOM     32  N   UNL     1       1.478   1.634   0.785  0.00  0.00    -0.322 N 
ATOM     33  H   UNL     1       2.261   1.064   0.733  0.00  0.00    +0.169 HD
ATOM     34  C   UNL     1       0.253   1.079   0.781  0.00  0.00    +0.254 A 
ATOM     35  O   UNL     1       0.150  -0.133   0.712  0.00  0.00    -0.268 OA
ATOM     36  C   UNL     1       4.130   2.703   0.785  0.00  0.00    +0.046 C 
ATOM     37  C   UNL     1       4.408   5.565   0.945  0.00  0.00    +0.044 C 
ENDBRANCH  23  24
ENDBRANCH   1  23
TORSDOF 8
