REMARK  Name = ZINC36597454
REMARK  12 active torsions:
REMARK  status: ('A' for Active; 'I' for Inactive)
REMARK    1  A    between atoms: C_1  and  C_2
REMARK    2  A    between atoms: C_5  and  C_9
REMARK    3  A    between atoms: C_6  and  C_8
REMARK    4  A    between atoms: C_9  and  C_11
REMARK    5  A    between atoms: C_9  and  N_20
REMARK    6  A    between atoms: N_13  and  C_14
REMARK    7  A    between atoms: N_20  and  C_21
REMARK    8  A    between atoms: C_21  and  C_22
REMARK    9  A    between atoms: C_25  and  C_27
REMARK   10  A    between atoms: C_28  and  C_30
REMARK   11  A    between atoms: C_31  and  O_37
REMARK   12  A    between atoms: C_35  and  O_36
REMARK                            x       y       z     vdW  Elec       q    Type
REMARK                         _______ _______ _______ _____ _____    ______ ____
ROOT
ATOM      1  N   UNL     1       1.062  -5.528  -0.782  0.00  0.00    -0.274 N 
ATOM      2  C   UNL     1       2.256  -6.129  -0.948  0.00  0.00    +0.255 C 
ATOM      3  O   UNL     1       2.717  -6.269  -2.065  0.00  0.00    -0.270 OA
ENDROOT
BRANCH   2   4
ATOM      4  C   UNL     1       3.003  -6.618   0.222  0.00  0.00    +0.119 A 
ATOM      5  C   UNL     1       2.589  -7.780   0.890  0.00  0.00    +0.133 A 
ATOM      6  C   UNL     1       3.300  -8.232   1.990  0.00  0.00    +0.046 A 
ATOM      7  C   UNL     1       4.413  -7.542   2.430  0.00  0.00    +0.007 A 
ATOM      8  C   UNL     1       4.830  -6.395   1.780  0.00  0.00    +0.046 A 
ATOM      9  C   UNL     1       4.138  -5.929   0.675  0.00  0.00    +0.133 A 
BRANCH   9  10
ATOM     10  O   UNL     1       4.552  -4.807   0.035  0.00  0.00    -0.506 OA
ATOM     11  H   UNL     1       4.204  -3.987   0.411  0.00  0.00    +0.292 HD
ENDBRANCH   9  10
BRANCH   5  12
ATOM     12  O   UNL     1       1.496  -8.459   0.460  0.00  0.00    -0.506 OA
ATOM     13  H   UNL     1       1.690  -9.143  -0.195  0.00  0.00    +0.292 HD
ENDBRANCH   5  12
ENDBRANCH   2   4
BRANCH   1  14
ATOM     14  C   UNL     1       0.559  -5.258   0.567  0.00  0.00    +0.193 C 
BRANCH  14  19
ATOM     15  C   UNL     1      -0.332   0.418   1.193  0.00  0.00    +0.044 C 
ATOM     16  C   UNL     1      -0.100  -1.062   1.030  0.00  0.00    -0.050 A 
ATOM     17  C   UNL     1      -0.858  -1.786   0.129  0.00  0.00    +0.004 A 
ATOM     18  C   UNL     1      -0.645  -3.143  -0.021  0.00  0.00    +0.006 A 
ATOM     19  C   UNL     1       0.327  -3.777   0.730  0.00  0.00    -0.015 A 
ATOM     20  C   UNL     1       1.086  -3.054   1.630  0.00  0.00    -0.045 A 
ATOM     21  C   UNL     1       0.876  -1.695   1.777  0.00  0.00    +0.007 A 
ATOM     22  C   UNL     1       2.145  -3.745   2.449  0.00  0.00    +0.044 C 
ENDBRANCH  14  19
BRANCH  14  23
ATOM     23  C   UNL     1      -0.739  -5.995   0.777  0.00  0.00    +0.238 C 
ATOM     24  O   UNL     1      -1.285  -6.539  -0.159  0.00  0.00    -0.273 OA
ATOM     25  N   UNL     1      -1.292  -6.050   2.005  0.00  0.00    -0.311 N 
ATOM     26  H   UNL     1      -0.894  -5.555   2.738  0.00  0.00    +0.149 HD
BRANCH  25  27
ATOM     27  C   UNL     1      -2.493  -6.857   2.232  0.00  0.00    +0.073 C 
ATOM     28  C   UNL     1      -3.734  -6.038   1.870  0.00  0.00    +0.022 C 
ATOM     29  C   UNL     1      -4.988  -6.881   2.107  0.00  0.00    +0.002 C 
ATOM     30  C   UNL     1      -5.058  -7.289   3.580  0.00  0.00    +0.000 C 
ATOM     31  C   UNL     1      -3.817  -8.108   3.942  0.00  0.00    +0.002 C 
ATOM     32  C   UNL     1      -2.563  -7.265   3.705  0.00  0.00    +0.022 C 
ENDBRANCH  25  27
ENDBRANCH  14  23
ENDBRANCH   1  14
BRANCH   1  33
ATOM     33  C   UNL     1       0.266  -5.144  -1.951  0.00  0.00    +0.183 C 
BRANCH  33  34
ATOM     34  C   UNL     1       0.728  -3.801  -2.454  0.00  0.00    +0.122 A 
ATOM     35  C   UNL     1       1.775  -3.584  -3.271  0.00  0.00    +0.046 A 
ATOM     36  C   UNL     1       1.846  -2.189  -3.484  0.00  0.00    +0.045 A 
ATOM     37  C   UNL     1       0.839  -1.635  -2.785  0.00  0.00    +0.102 A 
ATOM     38  O   UNL     1       0.162  -2.617  -2.168  0.00  0.00    -0.463 OA
ATOM     39  C   UNL     1       0.521  -0.164  -2.711  0.00  0.00    +0.086 C 
ENDBRANCH  33  34
ENDBRANCH   1  33
TORSDOF 9
