REMARK  Name = ZINC65742651
REMARK  7 active torsions:
REMARK  status: ('A' for Active; 'I' for Inactive)
REMARK    1  A    between atoms: C_1  and  C_2
REMARK    2  A    between atoms: C_13  and  C_15
REMARK    3  A    between atoms: N_17  and  C_18
REMARK    4  A    between atoms: C_18  and  C_19
REMARK    5  A    between atoms: C_18  and  C_20
REMARK    6  A    between atoms: C_18  and  C_21
REMARK    7  A    between atoms: C_27  and  C_33
REMARK                            x       y       z     vdW  Elec       q    Type
REMARK                         _______ _______ _______ _____ _____    ______ ____
ROOT
ATOM      1  C   UNL     1       0.161   1.576   0.027  0.00  0.00    +0.012 C 
ATOM      2  C   UNL     1       0.093   0.048   0.033  0.00  0.00    -0.018 C 
ATOM      3  C   UNL     1      -1.331  -0.400   0.294  0.00  0.00    +0.008 C 
ATOM      4  C   UNL     1      -1.788   0.266   1.603  0.00  0.00    +0.005 C 
ATOM      5  C   UNL     1      -0.862  -0.092   2.760  0.00  0.00    +0.004 C 
ATOM      6  C   UNL     1       0.600   0.265   2.444  0.00  0.00    -0.003 C 
ATOM      7  C   UNL     1       0.976  -0.512   1.181  0.00  0.00    -0.001 C 
ATOM      8  C   UNL     1       2.386  -0.259   0.638  0.00  0.00    +0.005 C 
ATOM      9  C   UNL     1       2.259  -0.651  -0.860  0.00  0.00    +0.013 C 
ATOM     10  C   UNL     1       0.760  -0.502  -1.224  0.00  0.00    +0.081 C 
ATOM     11  C   UNL     1       1.491  -0.141   3.617  0.00  0.00    +0.006 C 
ATOM     12  C   UNL     1       1.045   0.593   4.886  0.00  0.00    +0.023 C 
ATOM     13  C   UNL     1      -0.408   0.232   5.187  0.00  0.00    +0.083 C 
ATOM     14  C   UNL     1      -1.275   0.666   4.019  0.00  0.00    +0.008 C 
ATOM     15  C   UNL     1      -2.718   0.400   4.357  0.00  0.00    -0.013 C 
ATOM     16  C   UNL     1      -3.128   0.594   5.613  0.00  0.00    +0.063 C 
ATOM     17  C   UNL     1      -2.159   1.071   6.617  0.00  0.00    +0.237 C 
ATOM     18  O   UNL     1      -2.546   1.644   7.617  0.00  0.00    -0.271 OA
ATOM     19  N   UNL     1      -0.874   0.900   6.400  0.00  0.00    -0.308 N 
ATOM     20  C   UNL     1      -1.087   2.168   3.792  0.00  0.00    +0.017 C 
ATOM     21  H   UNL     1      -0.238   1.204   7.067  0.00  0.00    +0.149 HD
ENDROOT
BRANCH  10  22
ATOM     22  C   UNL     1       0.594   0.464  -2.369  0.00  0.00    +0.217 C 
ATOM     23  O   UNL     1       1.431   1.319  -2.567  0.00  0.00    -0.275 OA
ATOM     24  N   UNL     1      -0.484   0.377  -3.172  0.00  0.00    -0.304 N 
ATOM     25  H   UNL     1      -1.153  -0.307  -3.014  0.00  0.00    +0.150 HD
BRANCH  24  26
ATOM     26  C   UNL     1      -0.645   1.316  -4.285  0.00  0.00    +0.084 C 
ATOM     27  C   UNL     1      -0.703   2.745  -3.742  0.00  0.00    +0.039 C 
ATOM     28  C   UNL     1       0.541   1.181  -5.242  0.00  0.00    +0.039 C 
BRANCH  26  29
ATOM     29  C   UNL     1      -1.923   1.007  -5.022  0.00  0.00    +0.248 C 
ATOM     30  O   UNL     1      -2.790   1.843  -5.104  0.00  0.00    -0.299 OA
ENDBRANCH  26  29
ENDBRANCH  24  26
ENDBRANCH  10  22
TORSDOF 3
