REMARK  Name = ZINC63541313
REMARK  7 active torsions:
REMARK  status: ('A' for Active; 'I' for Inactive)
REMARK    1  A    between atoms: C_7  and  C_10
REMARK    2  A    between atoms: C_10  and  C_11
REMARK    3  A    between atoms: C_11  and  N_12
REMARK    4  A    between atoms: C_13  and  S_24
REMARK    5  A    between atoms: S_24  and  C_25
REMARK    6  A    between atoms: C_25  and  C_26
REMARK    7  A    between atoms: N_28  and  C_29
REMARK                            x       y       z     vdW  Elec       q    Type
REMARK                         _______ _______ _______ _____ _____    ______ ____
ROOT
ATOM      1  N   UNL     1      -0.451  -4.782  -1.448  0.00  0.00    -0.268 N 
ATOM      2  C   UNL     1       0.086  -6.140  -1.354  0.00  0.00    +0.223 C 
ATOM      3  N   UNL     1      -0.758  -7.075  -2.106  0.00  0.00    -0.300 N 
ATOM      4  C   UNL     1      -2.134  -6.975  -1.992  0.00  0.00    +0.151 A 
ATOM      5  C   UNL     1      -2.690  -5.710  -1.727  0.00  0.00    +0.165 A 
ATOM      6  N   UNL     1      -4.005  -5.572  -1.637  0.00  0.00    -0.246 NA
ATOM      7  C   UNL     1      -4.783  -6.629  -1.784  0.00  0.00    +0.131 A 
ATOM      8  C   UNL     1      -4.234  -7.879  -2.030  0.00  0.00    +0.132 A 
ATOM      9  N   UNL     1      -2.923  -8.028  -2.130  0.00  0.00    -0.237 NA
ATOM     10  C   UNL     1      -1.778  -4.563  -1.535  0.00  0.00    +0.270 C 
ATOM     11  O   UNL     1      -2.220  -3.433  -1.459  0.00  0.00    -0.268 OA
ATOM     12  H   UNL     1      -0.358  -7.753  -2.674  0.00  0.00    +0.150 HD
ENDROOT
BRANCH   1  13
ATOM     13  C   UNL     1       0.469  -3.642  -1.444  0.00  0.00    +0.115 C 
BRANCH  13  14
ATOM     14  C   UNL     1       0.706  -3.183  -0.003  0.00  0.00    +0.052 C 
BRANCH  14  21
ATOM     15  C   UNL     1       0.019   1.353   0.058  0.00  0.00    +0.001 A 
ATOM     16  C   UNL     1       1.204   2.101   0.054  0.00  0.00    +0.002 A 
ATOM     17  C   UNL     1       2.427   1.530   0.035  0.00  0.00    +0.026 A 
ATOM     18  C   UNL     1       2.558   0.114   0.018  0.00  0.00    +0.043 A 
ATOM     19  N   UNL     1       3.613  -0.665  -0.003  0.00  0.00    -0.380 N 
ATOM     20  C   UNL     1       3.163  -2.062  -0.015  0.00  0.00    +0.144 C 
ATOM     21  C   UNL     1       1.652  -2.011   0.002  0.00  0.00    -0.040 C 
ATOM     22  C   UNL     1       1.321  -0.699   0.021  0.00  0.00    -0.001 A 
ATOM     23  C   UNL     1       0.031   0.001   0.042  0.00  0.00    +0.010 A 
ATOM     24  H   UNL     1       4.536  -0.367  -0.009  0.00  0.00    +0.160 HD
ENDBRANCH  14  21
ENDBRANCH  13  14
ENDBRANCH   1  13
BRANCH   2  25
ATOM     25  S   UNL     1       0.132  -6.647   0.388  0.00  0.00    -0.110 S 
BRANCH  25  26
ATOM     26  C   UNL     1      -1.601  -6.556   0.917  0.00  0.00    +0.168 C 
BRANCH  26  27
ATOM     27  C   UNL     1      -1.705  -6.958   2.366  0.00  0.00    +0.227 C 
ATOM     28  O   UNL     1      -0.708  -7.274   2.981  0.00  0.00    -0.275 OA
ATOM     29  N   UNL     1      -2.905  -6.966   2.978  0.00  0.00    -0.285 N 
ATOM     30  H   UNL     1      -3.692  -6.650   2.507  0.00  0.00    +0.155 HD
BRANCH  29  31
ATOM     31  C   UNL     1      -3.017  -7.431   4.294  0.00  0.00    +0.034 A 
ATOM     32  C   UNL     1      -4.152  -8.124   4.693  0.00  0.00    +0.026 A 
ATOM     33  C   UNL     1      -4.260  -8.582   5.991  0.00  0.00    +0.040 A 
ATOM     34  C   UNL     1      -3.237  -8.351   6.896  0.00  0.00    +0.124 A 
ATOM     35  C   UNL     1      -2.104  -7.660   6.500  0.00  0.00    +0.040 A 
ATOM     36  C   UNL     1      -1.990  -7.205   5.201  0.00  0.00    +0.026 A 
ATOM     37  F   UNL     1      -3.345  -8.799   8.166  0.00  0.00    -0.205 F 
ENDBRANCH  29  31
ENDBRANCH  26  27
ENDBRANCH  25  26
ENDBRANCH   2  25
TORSDOF 7
