REMARK  Name = ZINC44918327
REMARK  2 active torsions:
REMARK  status: ('A' for Active; 'I' for Inactive)
REMARK    1  A    between atoms: C_4  and  N_7
REMARK    2  A    between atoms: C_12  and  C_19
REMARK                            x       y       z     vdW  Elec       q    Type
REMARK                         _______ _______ _______ _____ _____    ______ ____
ROOT
ATOM      1  N   UNL     1       3.623  -0.652  -0.037  0.00  0.00    -0.218 N 
ATOM      2  C   UNL     1       3.918  -1.799   0.666  0.00  0.00    +0.133 A 
ATOM      3  C   UNL     1       5.195  -2.126   0.371  0.00  0.00    +0.030 A 
ATOM      4  C   UNL     1       5.691  -1.160  -0.530  0.00  0.00    +0.141 A 
ATOM      5  N   UNL     1       4.752  -0.291  -0.774  0.00  0.00    -0.173 NA
ATOM      6  C   UNL     1       6.033  -3.272   0.845  0.00  0.00    +0.112 C 
ATOM      7  S   UNL     1       5.091  -4.775   1.120  0.00  0.00    -0.138 S 
ATOM      8  C   UNL     1       4.020  -4.439   2.525  0.00  0.00    +0.166 C 
ATOM      9  C   UNL     1       2.955  -3.462   2.218  0.00  0.00    +0.228 C 
ATOM     10  O   UNL     1       1.881  -3.699   2.729  0.00  0.00    -0.275 OA
ATOM     11  N   UNL     1       2.986  -2.388   1.486  0.00  0.00    -0.269 N 
ATOM     12  H   UNL     1       2.159  -1.884   1.530  0.00  0.00    +0.156 HD
ENDROOT
BRANCH   1  16
ATOM     13  C   UNL     1      -0.016   1.380   0.011  0.00  0.00    +0.000 A 
ATOM     14  C   UNL     1       0.533   0.920   1.194  0.00  0.00    +0.002 A 
ATOM     15  C   UNL     1       1.739   0.246   1.181  0.00  0.00    +0.028 A 
ATOM     16  C   UNL     1       2.399   0.031  -0.021  0.00  0.00    +0.067 A 
ATOM     17  C   UNL     1       1.845   0.493  -1.207  0.00  0.00    +0.028 A 
ATOM     18  C   UNL     1       0.639   1.167  -1.188  0.00  0.00    +0.002 A 
ENDBRANCH   1  16
BRANCH   6  19
ATOM     19  C   UNL     1       7.097  -3.552  -0.185  0.00  0.00    -0.027 A 
ATOM     20  C   UNL     1       6.753  -3.895  -1.484  0.00  0.00    +0.025 A 
ATOM     21  C   UNL     1       7.756  -4.146  -2.402  0.00  0.00    +0.111 A 
ATOM     22  N   UNL     1       9.025  -4.061  -2.054  0.00  0.00    -0.263 NA
ATOM     23  C   UNL     1       9.388  -3.738  -0.828  0.00  0.00    +0.111 A 
ATOM     24  C   UNL     1       8.441  -3.468   0.142  0.00  0.00    +0.025 A 
ENDBRANCH   6  19
TORSDOF 2
