REMARK  Name = ZINC47926096
REMARK  3 active torsions:
REMARK  status: ('A' for Active; 'I' for Inactive)
REMARK    1  A    between atoms: C_3  and  C_7
REMARK    2  A    between atoms: N_12  and  S_13
REMARK    3  A    between atoms: S_13  and  C_16
REMARK                            x       y       z     vdW  Elec       q    Type
REMARK                         _______ _______ _______ _____ _____    ______ ____
ROOT
ATOM      1  S   UNL     1       3.854  -1.115   2.083  0.00  0.00    +0.062 S 
ATOM      2  O   UNL     1       4.910  -2.017   2.383  0.00  0.00    -0.153 OA
ATOM      3  O   UNL     1       3.589   0.037   2.871  0.00  0.00    -0.153 OA
ENDROOT
BRANCH   1   4
ATOM      4  C   UNL     1       2.371  -2.064   2.064  0.00  0.00    +0.109 A 
ATOM      5  C   UNL     1       1.154  -1.446   2.286  0.00  0.00    +0.032 A 
ATOM      6  C   UNL     1      -0.015  -2.186   2.272  0.00  0.00    +0.051 A 
ATOM      7  C   UNL     1       0.037  -3.549   2.035  0.00  0.00    +0.162 A 
ATOM      8  C   UNL     1       1.258  -4.169   1.812  0.00  0.00    +0.164 A 
ATOM      9  C   UNL     1       2.426  -3.425   1.822  0.00  0.00    +0.078 A 
ATOM     10  O   UNL     1       1.299  -5.513   1.578  0.00  0.00    -0.488 OA
ATOM     11  C   UNL     1       0.956  -6.350   2.684  0.00  0.00    +0.232 C 
ATOM     12  C   UNL     1      -0.551  -6.526   2.781  0.00  0.00    +0.082 C 
ATOM     13  C   UNL     1      -1.267  -5.220   3.090  0.00  0.00    +0.232 C 
ATOM     14  O   UNL     1      -1.109  -4.289   2.017  0.00  0.00    -0.488 OA
ENDBRANCH   1   4
BRANCH   1  19
ATOM     15  C   UNL     1       3.614   0.681  -0.029  0.00  0.00    +0.126 C 
ATOM     16  C   UNL     1       4.125   0.769  -1.483  0.00  0.00    +0.028 C 
ATOM     17  C   UNL     1       5.354  -0.179  -1.477  0.00  0.00    +0.019 C 
ATOM     18  C   UNL     1       4.885  -1.290  -0.505  0.00  0.00    +0.110 C 
ATOM     19  N   UNL     1       4.114  -0.581   0.537  0.00  0.00    -0.168 NA
BRANCH  15  22
ATOM     20  C   UNL     1      -0.016   1.344   0.009  0.00  0.00    +0.019 A 
ATOM     21  C   UNL     1       1.322   1.784  -0.001  0.00  0.00    +0.024 A 
ATOM     22  C   UNL     1       2.107   0.688  -0.014  0.00  0.00    +0.035 A 
ATOM     23  N   UNL     1       1.303  -0.413  -0.013  0.00  0.00    -0.363 N 
ATOM     24  H   UNL     1       1.606  -1.334  -0.021  0.00  0.00    +0.165 HD
ATOM     25  C   UNL     1       0.002  -0.004   0.002  0.00  0.00    +0.083 A 
ENDBRANCH  15  22
ENDBRANCH   1  19
TORSDOF 3
