REMARK  Name = ZINC40985941
REMARK  8 active torsions:
REMARK  status: ('A' for Active; 'I' for Inactive)
REMARK    1  A    between atoms: C_4  and  C_7
REMARK    2  A    between atoms: C_7  and  C_9
REMARK    3  A    between atoms: C_7  and  N_29
REMARK    4  A    between atoms: C_9  and  N_10
REMARK    5  A    between atoms: C_11  and  C_13
REMARK    6  A    between atoms: C_16  and  S_20
REMARK    7  A    between atoms: S_20  and  C_21
REMARK    8  A    between atoms: C_21  and  C_22
REMARK                            x       y       z     vdW  Elec       q    Type
REMARK                         _______ _______ _______ _____ _____    ______ ____
ROOT
ATOM      1  N   UNL     1       5.320  -1.941   1.316  0.00  0.00    -0.312 N 
ATOM      2  C   UNL     1       5.837  -2.443   2.455  0.00  0.00    +0.248 C 
ATOM      3  O   UNL     1       5.352  -2.139   3.528  0.00  0.00    -0.270 OA
ATOM      4  H   UNL     1       5.707  -2.183   0.460  0.00  0.00    +0.149 HD
ENDROOT
BRANCH   2   5
ATOM      5  C   UNL     1       6.990  -3.360   2.400  0.00  0.00    +0.092 A 
ATOM      6  C   UNL     1       7.567  -3.717   1.174  0.00  0.00    +0.129 A 
ATOM      7  N   UNL     1       8.598  -4.540   1.167  0.00  0.00    -0.229 NA
ATOM      8  C   UNL     1       9.089  -5.028   2.300  0.00  0.00    +0.190 A 
ATOM      9  N   UNL     1       8.573  -4.715   3.481  0.00  0.00    -0.209 NA
ATOM     10  C   UNL     1       7.543  -3.893   3.574  0.00  0.00    +0.146 A 
ATOM     11 CL   UNL     1       6.879  -3.485   5.125  0.00  0.00    -0.061 Cl
BRANCH   8  12
ATOM     12  S   UNL     1      10.468  -6.123   2.232  0.00  0.00    -0.081 S 
BRANCH  12  13
ATOM     13  C   UNL     1      10.792  -6.529   3.970  0.00  0.00    +0.112 C 
BRANCH  13  14
ATOM     14  C   UNL     1      11.964  -7.472   4.056  0.00  0.00    -0.037 A 
ATOM     15  C   UNL     1      11.756  -8.838   4.011  0.00  0.00    +0.006 A 
ATOM     16  C   UNL     1      12.830  -9.704   4.090  0.00  0.00    +0.020 A 
ATOM     17  C   UNL     1      14.114  -9.204   4.213  0.00  0.00    +0.041 A 
ATOM     18  C   UNL     1      14.322  -7.836   4.258  0.00  0.00    +0.020 A 
ATOM     19  C   UNL     1      13.247  -6.971   4.174  0.00  0.00    +0.006 A 
ATOM     20 CL   UNL     1      15.464 -10.290   4.313  0.00  0.00    -0.084 Cl
ENDBRANCH  13  14
ENDBRANCH  12  13
ENDBRANCH   8  12
ENDBRANCH   2   5
BRANCH   1  21
ATOM     21  C   UNL     1       4.174  -1.030   1.370  0.00  0.00    +0.094 C 
BRANCH  21  22
ATOM     22  C   UNL     1       3.870  -0.508  -0.035  0.00  0.00    -0.020 C 
BRANCH  22  26
ATOM     23  C   UNL     1       7.127   1.896  -1.399  0.00  0.00    +0.000 A 
ATOM     24  C   UNL     1       7.011   0.585  -1.822  0.00  0.00    +0.000 A 
ATOM     25  C   UNL     1       5.957  -0.193  -1.381  0.00  0.00    +0.002 A 
ATOM     26  C   UNL     1       5.019   0.340  -0.516  0.00  0.00    -0.059 A 
ATOM     27  C   UNL     1       5.136   1.651  -0.092  0.00  0.00    +0.002 A 
ATOM     28  C   UNL     1       6.189   2.429  -0.535  0.00  0.00    +0.000 A 
ENDBRANCH  22  26
BRANCH  22  29
ATOM     29  N   UNL     1       2.645   0.302  -0.003  0.00  0.00    +0.385 N 
ATOM     30  C   UNL     1       2.327   0.805  -1.363  0.00  0.00    -0.078 C 
ATOM     31  C   UNL     1       0.811   1.116  -1.282  0.00  0.00    -0.020 C 
ATOM     32  C   UNL     1       0.271  -0.028  -0.394  0.00  0.00    -0.020 C 
ATOM     33  C   UNL     1       1.492  -0.534   0.397  0.00  0.00    -0.078 C 
ATOM     34  H   UNL     1       2.754   1.073   0.638  0.00  0.00    -0.081 HD
ENDBRANCH  22  29
ENDBRANCH  21  22
ENDBRANCH   1  21
TORSDOF 8
