REMARK  Name = ZINC31870171
REMARK  5 active torsions:
REMARK  status: ('A' for Active; 'I' for Inactive)
REMARK    1  A    between atoms: C_1  and  C_2
REMARK    2  A    between atoms: N_13  and  C_19
REMARK    3  A    between atoms: C_19  and  C_20
REMARK    4  A    between atoms: N_22  and  N_23
REMARK    5  A    between atoms: C_24  and  C_25
REMARK                            x       y       z     vdW  Elec       q    Type
REMARK                         _______ _______ _______ _____ _____    ______ ____
ROOT
ATOM      1  C   UNL     1      -1.086  -1.352   0.837  0.00  0.00    +0.044 C 
ATOM      2  C   UNL     1       0.235  -0.634   0.742  0.00  0.00    -0.050 A 
ATOM      3  C   UNL     1       0.273   0.629   0.175  0.00  0.00    +0.005 A 
ATOM      4  C   UNL     1       1.449   1.347   0.055  0.00  0.00    +0.026 A 
ATOM      5  C   UNL     1       2.614   0.749   0.531  0.00  0.00    +0.049 A 
ATOM      6  C   UNL     1       2.570  -0.554   1.113  0.00  0.00    +0.003 A 
ATOM      7  C   UNL     1       1.363  -1.253   1.219  0.00  0.00    +0.013 A 
ATOM      8  C   UNL     1       3.922  -0.868   1.486  0.00  0.00    -0.020 A 
ATOM      9  C   UNL     1       4.674   0.191   1.127  0.00  0.00    +0.009 A 
ATOM     10  N   UNL     1       3.907   1.176   0.571  0.00  0.00    -0.347 N 
ATOM     11  C   UNL     1       4.497   2.455   0.147  0.00  0.00    +0.103 C 
ATOM     12  C   UNL     1       6.018   2.276   0.068  0.00  0.00    -0.055 C 
ATOM     13  N   UNL     1       6.547   1.654   1.290  0.00  0.00    +0.392 N 
ATOM     14  C   UNL     1       6.168   0.228   1.358  0.00  0.00    -0.020 C 
ATOM     15  C   UNL     1       6.447  -0.338   2.741  0.00  0.00    -0.009 C 
ATOM     16  C   UNL     1       5.613  -1.525   3.158  0.00  0.00    +0.003 C 
ATOM     17  C   UNL     1       4.589  -2.038   2.156  0.00  0.00    +0.037 C 
ATOM     18  H   UNL     1       6.104   2.172   2.153  0.00  0.00    -0.080 HD
ENDROOT
BRANCH  13  19
ATOM     19  C   UNL     1       8.005   1.815   1.374  0.00  0.00    +0.021 C 
BRANCH  19  20
ATOM     20  C   UNL     1       8.339   3.275   1.549  0.00  0.00    +0.216 C 
ATOM     21  O   UNL     1       7.451   4.099   1.599  0.00  0.00    -0.276 OA
ATOM     22  N   UNL     1       9.626   3.664   1.650  0.00  0.00    -0.209 N 
ATOM     23  H   UNL     1      10.432   2.916   1.605  0.00  0.00    +0.177 HD
BRANCH  22  24
ATOM     24  N   UNL     1       9.937   5.020   1.813  0.00  0.00    -0.188 NA
ATOM     25  C   UNL     1      11.175   5.409   1.792  0.00  0.00    +0.138 C 
BRANCH  25  26
ATOM     26  C   UNL     1      12.200   4.570   1.145  0.00  0.00    -0.005 A 
ATOM     27  C   UNL     1      13.556   4.835   1.351  0.00  0.00    +0.011 A 
ATOM     28  C   UNL     1      14.510   4.043   0.748  0.00  0.00    +0.020 A 
ATOM     29  C   UNL     1      14.127   2.994  -0.071  0.00  0.00    +0.041 A 
ATOM     30  C   UNL     1      12.784   2.729  -0.284  0.00  0.00    +0.020 A 
ATOM     31  C   UNL     1      11.820   3.510   0.318  0.00  0.00    +0.011 A 
ATOM     32 CL   UNL     1      15.334   2.006  -0.833  0.00  0.00    -0.084 Cl
ENDBRANCH  25  26
ENDBRANCH  22  24
ENDBRANCH  19  20
ENDBRANCH  13  19
TORSDOF 4
