REMARK  Name = ZINC17327077
REMARK  2 active torsions:
REMARK  status: ('A' for Active; 'I' for Inactive)
REMARK    1  A    between atoms: N_12  and  N_13
REMARK    2  A    between atoms: N_13  and  C_14
REMARK                            x       y       z     vdW  Elec       q    Type
REMARK                         _______ _______ _______ _____ _____    ______ ____
ROOT
ATOM      1  C   UNL     1       1.158  -0.604   0.740  0.00  0.00    +0.001 A 
ATOM      2  C   UNL     1       2.360   0.091   0.747  0.00  0.00    +0.001 A 
ATOM      3  C   UNL     1       2.385   1.449   0.511  0.00  0.00    +0.011 A 
ATOM      4  C   UNL     1       1.192   2.126   0.262  0.00  0.00    +0.013 A 
ATOM      5  C   UNL     1      -0.029   1.418   0.255  0.00  0.00    -0.016 A 
ATOM      6  C   UNL     1      -0.023   0.038   0.499  0.00  0.00    +0.008 A 
ATOM      7  C   UNL     1      -1.279   2.125   0.001  0.00  0.00    +0.012 C 
ATOM      8  C   UNL     1      -1.300   3.453  -0.241  0.00  0.00    +0.054 C 
ATOM      9  C   UNL     1      -0.118   4.224  -0.249  0.00  0.00    +0.206 C 
ATOM     10  O   UNL     1      -0.171   5.425  -0.466  0.00  0.00    -0.286 OA
ATOM     11  C   UNL     1       1.177   3.576   0.005  0.00  0.00    +0.136 C 
ATOM     12  N   UNL     1       2.297   4.276   0.003  0.00  0.00    -0.178 NA
ENDROOT
BRANCH  12  13
ATOM     13  N   UNL     1       2.255   5.562  -0.087  0.00  0.00    -0.236 N 
ATOM     14  H   UNL     1       1.285   6.082  -0.075  0.00  0.00    +0.174 HD
BRANCH  13  15
ATOM     15  C   UNL     1       3.437   6.293  -0.199  0.00  0.00    +0.067 A 
ATOM     16  C   UNL     1       4.663   5.638  -0.208  0.00  0.00    +0.027 A 
ATOM     17  C   UNL     1       5.831   6.364  -0.324  0.00  0.00    +0.022 A 
ATOM     18  C   UNL     1       5.784   7.745  -0.421  0.00  0.00    +0.042 A 
ATOM     19  C   UNL     1       4.566   8.401  -0.407  0.00  0.00    +0.042 A 
ATOM     20  C   UNL     1       3.392   7.680  -0.296  0.00  0.00    +0.065 A 
ATOM     21 CL   UNL     1       1.864   8.505  -0.278  0.00  0.00    -0.082 Cl
ATOM     22 CL   UNL     1       7.256   8.654  -0.559  0.00  0.00    -0.083 Cl
ENDBRANCH  13  15
ENDBRANCH  12  13
TORSDOF 2
