REMARK  Name = ZINC21254019
REMARK  8 active torsions:
REMARK  status: ('A' for Active; 'I' for Inactive)
REMARK    1  A    between atoms: C_1  and  C_2
REMARK    2  A    between atoms: C_2  and  C_3
REMARK    3  A    between atoms: C_2  and  O_4
REMARK    4  A    between atoms: O_4  and  C_5
REMARK    5  A    between atoms: C_8  and  C_13
REMARK    6  A    between atoms: C_10  and  O_11
REMARK    7  A    between atoms: O_11  and  C_12
REMARK    8  A    between atoms: C_18  and  C_28
REMARK                            x       y       z     vdW  Elec       q    Type
REMARK                         _______ _______ _______ _____ _____    ______ ____
ROOT
ATOM      1  C   UNL     1      -0.004   8.161  -3.111  0.00  0.00    +0.032 C 
ATOM      2  C   UNL     1       0.379   7.819  -1.672  0.00  0.00    +0.059 C 
ATOM      3  C   UNL     1       1.359   6.659  -1.659  0.00  0.00    +0.017 C 
ATOM      4  C   UNL     1       2.242   6.499  -2.661  0.00  0.00    +0.036 C 
ATOM      5  C   UNL     1       3.274   5.403  -2.765  0.00  0.00    +0.136 C 
ATOM      6  N   UNL     1       3.457   4.628  -1.556  0.00  0.00    -0.331 N 
ATOM      7  C   UNL     1       2.429   3.831  -1.051  0.00  0.00    +0.049 A 
ATOM      8  C   UNL     1       2.529   2.451  -1.020  0.00  0.00    +0.025 A 
ATOM      9  C   UNL     1       1.447   1.700  -0.592  0.00  0.00    +0.002 A 
ATOM     10  C   UNL     1       0.275   2.323  -0.204  0.00  0.00    +0.002 A 
ATOM     11  C   UNL     1       0.180   3.704  -0.213  0.00  0.00    +0.025 A 
ATOM     12  C   UNL     1       1.267   4.456  -0.624  0.00  0.00    +0.052 A 
ATOM     13  N   UNL     1       1.269   5.845  -0.577  0.00  0.00    -0.316 N 
ATOM     14  C   UNL     1       2.250   7.401  -3.751  0.00  0.00    +0.163 C 
ATOM     15  O   UNL     1       3.072   7.247  -4.633  0.00  0.00    -0.292 OA
ATOM     16  C   UNL     1       1.280   8.539  -3.858  0.00  0.00    +0.088 C 
ATOM     17  H   UNL     1       4.417   4.661  -1.022  0.00  0.00    +0.147 HD
ATOM     18  H   UNL     1       1.190   6.277   0.431  0.00  0.00    +0.152 HD
ENDROOT
BRANCH   5  19
ATOM     19  C   UNL     1       2.865   4.466  -3.872  0.00  0.00    -0.021 A 
ATOM     20  C   UNL     1       3.650   4.348  -5.004  0.00  0.00    +0.006 A 
ATOM     21  C   UNL     1       3.277   3.485  -6.017  0.00  0.00    +0.002 A 
ATOM     22  C   UNL     1       2.114   2.747  -5.904  0.00  0.00    +0.020 A 
ATOM     23  C   UNL     1       1.326   2.868  -4.774  0.00  0.00    +0.041 A 
ATOM     24  C   UNL     1       1.702   3.728  -3.757  0.00  0.00    +0.025 A 
ATOM     25 CL   UNL     1      -0.136   1.942  -4.631  0.00  0.00    -0.084 Cl
ENDBRANCH   5  19
BRANCH   1  29
ATOM     26  C   UNL     1      -2.722  11.462  -3.139  0.00  0.00    +0.162 A 
ATOM     27  C   UNL     1      -1.457  11.607  -2.592  0.00  0.00    +0.050 A 
ATOM     28  C   UNL     1      -0.581  10.538  -2.584  0.00  0.00    +0.008 A 
ATOM     29  C   UNL     1      -0.963   9.323  -3.122  0.00  0.00    -0.040 A 
ATOM     30  C   UNL     1      -2.222   9.173  -3.674  0.00  0.00    +0.053 A 
ATOM     31  C   UNL     1      -3.107  10.239  -3.680  0.00  0.00    +0.162 A 
BRANCH  31  32
ATOM     32  O   UNL     1      -4.347  10.092  -4.218  0.00  0.00    -0.491 OA
ATOM     33  C   UNL     1      -4.673   8.809  -4.755  0.00  0.00    +0.277 C 
ENDBRANCH  31  32
BRANCH  26  34
ATOM     34  O   UNL     1      -3.586  12.513  -3.148  0.00  0.00    -0.486 OA
BRANCH  34  36
ATOM     35  C   UNL     1      -2.302  14.545  -3.405  0.00  0.00    +0.051 C 
ATOM     36  C   UNL     1      -3.169  13.700  -2.470  0.00  0.00    +0.167 C 
ATOM     37  C   UNL     1      -4.400  14.506  -2.049  0.00  0.00    +0.051 C 
ENDBRANCH  34  36
ENDBRANCH  26  34
ENDBRANCH   1  29
TORSDOF 5
