REMARK  Name = ZINC64871249
REMARK  5 active torsions:
REMARK  status: ('A' for Active; 'I' for Inactive)
REMARK    1  A    between atoms: C_4  and  C_7
REMARK    2  A    between atoms: C_7  and  C_8
REMARK    3  A    between atoms: C_8  and  N_9
REMARK    4  A    between atoms: C_15  and  C_22
REMARK    5  A    between atoms: C_25  and  C_29
REMARK                            x       y       z     vdW  Elec       q    Type
REMARK                         _______ _______ _______ _____ _____    ______ ____
ROOT
ATOM      1  N   UNL     1       5.450  -1.678   1.382  0.00  0.00    -0.260 N 
ATOM      2  C   UNL     1       5.453  -3.029   1.370  0.00  0.00    +0.264 A 
ATOM      3  O   UNL     1       4.411  -3.655   1.372  0.00  0.00    -0.267 OA
ATOM      4  C   UNL     1       6.753  -3.724   1.352  0.00  0.00    +0.063 A 
ATOM      5  C   UNL     1       6.840  -5.114   1.338  0.00  0.00    +0.016 A 
ATOM      6  C   UNL     1       8.081  -5.717   1.322  0.00  0.00    +0.008 A 
ATOM      7  C   UNL     1       9.234  -4.948   1.319  0.00  0.00    -0.000 A 
ATOM      8  C   UNL     1       9.162  -3.569   1.333  0.00  0.00    +0.034 A 
ATOM      9  C   UNL     1       7.923  -2.946   1.349  0.00  0.00    +0.056 A 
ATOM     10  N   UNL     1       7.806  -1.563   1.363  0.00  0.00    -0.307 N 
ATOM     11  H   UNL     1       8.605  -1.013   1.361  0.00  0.00    +0.170 HD
ATOM     12  C   UNL     1       6.595  -0.979   1.373  0.00  0.00    +0.330 A 
ATOM     13  O   UNL     1       6.535   0.235   1.381  0.00  0.00    -0.246 OA
ENDROOT
BRANCH   7  14
ATOM     14  C   UNL     1      10.581  -5.624   1.302  0.00  0.00    +0.242 C 
ATOM     15  N   UNL     1      10.500  -6.956   1.955  0.00  0.00    -0.265 NA
ATOM     16  C   UNL     1      11.649  -7.684   1.354  0.00  0.00    +0.181 C 
ATOM     17  N   UNL     1      11.676  -7.198  -0.046  0.00  0.00    -0.177 NA
ATOM     18  O   UNL     1      10.987  -5.898  -0.051  0.00  0.00    -0.274 OA
ATOM     19  H   UNL     1      10.605  -6.876   2.955  0.00  0.00    +0.127 HD
ATOM     20  H   UNL     1      11.221  -7.853  -0.664  0.00  0.00    +0.156 HD
BRANCH  16  21
ATOM     21  C   UNL     1      11.416  -9.172   1.398  0.00  0.00    -0.000 A 
ATOM     22  C   UNL     1      10.569  -9.712   2.348  0.00  0.00    +0.007 A 
ATOM     23  C   UNL     1      10.354 -11.076   2.388  0.00  0.00    +0.000 A 
ATOM     24  C   UNL     1      10.987 -11.903   1.478  0.00  0.00    +0.001 A 
ATOM     25  C   UNL     1      11.834 -11.365   0.527  0.00  0.00    +0.015 A 
ATOM     26  C   UNL     1      12.045  -9.998   0.484  0.00  0.00    +0.024 A 
ATOM     27 BR   UNL     1      13.199  -9.260  -0.821  0.00  0.00    -0.050 Br
ENDBRANCH  16  21
ENDBRANCH   7  14
BRANCH   1  28
ATOM     28  C   UNL     1       4.171  -0.963   1.399  0.00  0.00    +0.134 C 
BRANCH  28  29
ATOM     29  C   UNL     1       3.711  -0.707  -0.038  0.00  0.00    +0.057 C 
BRANCH  29  33
ATOM     30  C   UNL     1      -0.017   1.378   0.010  0.00  0.00    +0.000 A 
ATOM     31  C   UNL     1       1.171   2.086   0.002  0.00  0.00    +0.000 A 
ATOM     32  C   UNL     1       2.377   1.411  -0.013  0.00  0.00    +0.004 A 
ATOM     33  C   UNL     1       2.396   0.029  -0.020  0.00  0.00    -0.046 A 
ATOM     34  C   UNL     1       1.208  -0.679  -0.012  0.00  0.00    +0.004 A 
ATOM     35  C   UNL     1       0.002  -0.004   0.002  0.00  0.00    +0.000 A 
ENDBRANCH  29  33
ENDBRANCH  28  29
ENDBRANCH   1  28
TORSDOF 5
