REMARK  Name = ZINC08790092
REMARK  5 active torsions:
REMARK  status: ('A' for Active; 'I' for Inactive)
REMARK    1  A    between atoms: C_1  and  C_2
REMARK    2  A    between atoms: C_13  and  C_15
REMARK    3  A    between atoms: C_15  and  C_16
REMARK    4  A    between atoms: N_21  and  C_24
REMARK    5  A    between atoms: C_24  and  C_25
REMARK                            x       y       z     vdW  Elec       q    Type
REMARK                         _______ _______ _______ _____ _____    ______ ____
ROOT
ATOM      1  C   UNL     1      -8.643   1.291  -0.368  0.00  0.00    +0.044 C 
ATOM      2  C   UNL     1      -8.549   0.915   1.089  0.00  0.00    -0.050 A 
ATOM      3  C   UNL     1      -9.437   1.454   2.002  0.00  0.00    +0.005 A 
ATOM      4  C   UNL     1      -9.356   1.114   3.336  0.00  0.00    +0.024 A 
ATOM      5  C   UNL     1      -8.377   0.224   3.775  0.00  0.00    +0.036 A 
ATOM      6  C   UNL     1      -7.489  -0.311   2.846  0.00  0.00    -0.027 A 
ATOM      7  C   UNL     1      -7.575   0.030   1.515  0.00  0.00    +0.008 A 
ATOM      8  C   UNL     1      -6.576  -1.214   3.626  0.00  0.00    +0.050 C 
ATOM      9  C   UNL     1      -5.111  -0.778   3.494  0.00  0.00    +0.088 C 
ATOM     10  C   UNL     1      -4.307  -2.109   3.482  0.00  0.00    +0.073 C 
ATOM     11  C   UNL     1      -5.372  -3.216   3.626  0.00  0.00    -0.049 C 
ATOM     12  C   UNL     1      -3.729  -2.155   2.086  0.00  0.00    +0.224 C 
ATOM     13  O   UNL     1      -3.036  -3.046   1.645  0.00  0.00    -0.275 OA
ATOM     14  N   UNL     1      -4.098  -1.058   1.415  0.00  0.00    -0.237 N 
ATOM     15  C   UNL     1      -4.874  -0.217   2.109  0.00  0.00    +0.225 C 
ATOM     16  O   UNL     1      -5.317   0.831   1.693  0.00  0.00    -0.275 OA
ATOM     17  C   UNL     1      -7.051  -1.118   5.050  0.00  0.00    +0.211 C 
ATOM     18  O   UNL     1      -6.585  -1.694   6.010  0.00  0.00    -0.277 OA
ATOM     19  N   UNL     1      -8.096  -0.267   5.051  0.00  0.00    -0.286 N 
ATOM     20  H   UNL     1      -8.595  -0.024   5.847  0.00  0.00    +0.155 HD
ATOM     21  N   UNL     1      -6.606  -2.586   3.151  0.00  0.00    +0.394 N 
ATOM     22  H   UNL     1      -6.642  -2.605   2.125  0.00  0.00    -0.083 HD
ATOM     23  H   UNL     1      -7.424  -3.075   3.531  0.00  0.00    -0.083 HD
ENDROOT
BRANCH  11  24
ATOM     24  C   UNL     1      -4.998  -4.428   2.768  0.00  0.00    +0.080 C 
BRANCH  24  25
ATOM     25  C   UNL     1      -5.983  -5.541   3.017  0.00  0.00    +0.209 C 
ATOM     26  O   UNL     1      -6.893  -5.382   3.802  0.00  0.00    -0.276 OA
ATOM     27  N   UNL     1      -5.851  -6.714   2.366  0.00  0.00    -0.329 N 
ATOM     28  H   UNL     1      -5.123  -6.842   1.738  0.00  0.00    +0.145 HD
ATOM     29  H   UNL     1      -6.485  -7.431   2.526  0.00  0.00    +0.145 HD
ENDBRANCH  24  25
ENDBRANCH  11  24
BRANCH  14  30
ATOM     30  C   UNL     1      -3.691  -0.801   0.032  0.00  0.00    +0.151 C 
BRANCH  30  31
ATOM     31  C   UNL     1      -2.395  -0.032   0.024  0.00  0.00    -0.026 A 
ATOM     32  C   UNL     1      -2.414   1.351   0.031  0.00  0.00    +0.009 A 
ATOM     33  C   UNL     1      -1.228   2.061   0.020  0.00  0.00    +0.050 A 
ATOM     34  C   UNL     1      -0.017   1.389   0.010  0.00  0.00    +0.166 A 
ATOM     35  C   UNL     1       0.002  -0.004   0.002  0.00  0.00    +0.167 A 
ATOM     36  C   UNL     1      -1.190  -0.710   0.009  0.00  0.00    +0.054 A 
ATOM     37  O   UNL     1       1.301  -0.423  -0.013  0.00  0.00    -0.453 OA
ATOM     38  C   UNL     1       2.077   0.718   0.398  0.00  0.00    +0.466 C 
ATOM     39  O   UNL     1       1.270   1.842  -0.000  0.00  0.00    -0.453 OA
ENDBRANCH  30  31
ENDBRANCH  14  30
TORSDOF 4
