REMARK  Name = ZINC06610106
REMARK  5 active torsions:
REMARK  status: ('A' for Active; 'I' for Inactive)
REMARK    1  A    between atoms: C_11  and  S_13
REMARK    2  A    between atoms: S_13  and  C_14
REMARK    3  A    between atoms: C_14  and  C_15
REMARK    4  A    between atoms: N_17  and  C_18
REMARK    5  A    between atoms: C_19  and  C_27
REMARK                            x       y       z     vdW  Elec       q    Type
REMARK                         _______ _______ _______ _____ _____    ______ ____
ROOT
ATOM      1  C   UNL     1      -5.219  -2.005   0.040  0.00  0.00    +0.228 C 
ATOM      2  O   UNL     1      -5.434  -3.199   0.035  0.00  0.00    -0.275 OA
ATOM      3  N   UNL     1      -6.248  -1.135   0.054  0.00  0.00    -0.278 N 
ATOM      4  H   UNL     1      -6.076  -0.180   0.058  0.00  0.00    +0.155 HD
ENDROOT
BRANCH   3   5
ATOM      5  C   UNL     1      -7.554  -1.605   0.063  0.00  0.00    +0.090 A 
ATOM      6  C   UNL     1      -8.732  -0.874   0.084  0.00  0.00    +0.084 A 
ATOM      7  C   UNL     1      -9.982  -1.613   0.086  0.00  0.00    -0.018 A 
ATOM      8  C   UNL     1      -9.854  -2.959   0.078  0.00  0.00    -0.004 A 
ATOM      9  S   UNL     1      -8.108  -3.247   0.060  0.00  0.00    -0.077 S 
ATOM     10  C   UNL     1     -10.958  -3.971   0.084  0.00  0.00    +0.043 C 
ATOM     11  C   UNL     1     -12.262  -3.262   0.479  0.00  0.00    +0.005 C 
ATOM     12  C   UNL     1     -12.398  -1.982  -0.350  0.00  0.00    +0.005 C 
ATOM     13  C   UNL     1     -11.357  -0.956   0.102  0.00  0.00    +0.037 C 
BRANCH   6  14
ATOM     14  C   UNL     1      -8.717   0.558   0.098  0.00  0.00    +0.102 C 
ATOM     15  N   UNL     1      -8.705   1.694   0.109  0.00  0.00    -0.191 NA
ENDBRANCH   6  14
ENDBRANCH   3   5
BRANCH   1  16
ATOM     16  C   UNL     1      -3.801  -1.496   0.030  0.00  0.00    +0.173 C 
BRANCH  16  17
ATOM     17  S   UNL     1      -2.656  -2.897   0.012  0.00  0.00    -0.078 S 
BRANCH  17  28
ATOM     18  C   UNL     1       2.381   1.422  -0.013  0.00  0.00    +0.001 A 
ATOM     19  C   UNL     1       1.161   2.086   0.002  0.00  0.00    +0.002 A 
ATOM     20  C   UNL     1      -0.017   1.394   0.010  0.00  0.00    +0.028 A 
ATOM     21  C   UNL     1       0.002  -0.004   0.002  0.00  0.00    +0.079 A 
ATOM     22  C   UNL     1       1.245  -0.677  -0.013  0.00  0.00    +0.065 A 
ATOM     23  C   UNL     1       2.432   0.055  -0.021  0.00  0.00    +0.015 A 
ATOM     24  C   UNL     1       1.239  -2.146  -0.021  0.00  0.00    +0.260 A 
ATOM     25  O   UNL     1       2.277  -2.782  -0.034  0.00  0.00    -0.267 OA
ATOM     26  N   UNL     1       0.036  -2.766  -0.012  0.00  0.00    -0.301 N 
ATOM     27  H   UNL     1      -0.007  -3.735  -0.017  0.00  0.00    +0.171 HD
ATOM     28  C   UNL     1      -1.119  -2.036   0.002  0.00  0.00    +0.170 A 
ATOM     29  N   UNL     1      -1.136  -0.726   0.009  0.00  0.00    -0.223 NA
ENDBRANCH  17  28
ENDBRANCH  16  17
ENDBRANCH   1  16
TORSDOF 5
