REMARK  Name = ZINC00868975
REMARK  7 active torsions:
REMARK  status: ('A' for Active; 'I' for Inactive)
REMARK    1  A    between atoms: C_1  and  C_2
REMARK    2  A    between atoms: C_9  and  C_11
REMARK    3  A    between atoms: C_14  and  O_30
REMARK    4  A    between atoms: C_15  and  N_17
REMARK    5  A    between atoms: C_18  and  C_19
REMARK    6  A    between atoms: C_28  and  O_29
REMARK    7  A    between atoms: O_30  and  C_31
REMARK                            x       y       z     vdW  Elec       q    Type
REMARK                         _______ _______ _______ _____ _____    ______ ____
ROOT
ATOM      1  C   UNL     1      -0.203  -5.521   2.347  0.00  0.00    +0.039 A 
ATOM      2  C   UNL     1       0.070  -5.501   3.718  0.00  0.00    +0.017 A 
ATOM      3  C   UNL     1       0.362  -6.673   4.384  0.00  0.00    +0.048 A 
ATOM      4  C   UNL     1       0.388  -7.878   3.699  0.00  0.00    +0.145 A 
ATOM      5  C   UNL     1       0.117  -7.910   2.323  0.00  0.00    +0.106 A 
ATOM      6  C   UNL     1      -0.185  -6.728   1.650  0.00  0.00    +0.044 A 
ENDROOT
BRANCH   1  15
ATOM      7  C   UNL     1      -1.581   1.380   0.120  0.00  0.00    +0.044 C 
ATOM      8  C   UNL     1      -1.385  -0.115   0.101  0.00  0.00    -0.048 A 
ATOM      9  C   UNL     1      -1.535  -0.814  -1.087  0.00  0.00    +0.007 A 
ATOM     10  C   UNL     1      -1.359  -2.182  -1.121  0.00  0.00    +0.049 A 
ATOM     11  C   UNL     1      -1.030  -2.865   0.039  0.00  0.00    +0.156 A 
ATOM     12  C   UNL     1      -0.877  -2.161   1.245  0.00  0.00    +0.110 A 
ATOM     13  C   UNL     1      -1.052  -0.775   1.262  0.00  0.00    +0.035 A 
ATOM     14  N   UNL     1      -0.560  -3.078   2.195  0.00  0.00    -0.209 NA
ATOM     15  C   UNL     1      -0.516  -4.263   1.638  0.00  0.00    +0.228 A 
ATOM     16  O   UNL     1      -0.798  -4.166   0.325  0.00  0.00    -0.435 OA
ENDBRANCH   1  15
BRANCH   5  17
ATOM     17  N   UNL     1       0.142  -9.098   1.646  0.00  0.00    -0.251 NA
ATOM     18  C   UNL     1       0.788  -9.190   0.514  0.00  0.00    +0.123 C 
BRANCH  18  19
ATOM     19  C   UNL     1       0.718 -10.426  -0.270  0.00  0.00    +0.042 A 
ATOM     20  C   UNL     1       1.439 -10.549  -1.537  0.00  0.00    -0.006 A 
ATOM     21  C   UNL     1       2.216  -9.500  -2.040  0.00  0.00    +0.009 A 
ATOM     22  C   UNL     1       2.873  -9.655  -3.225  0.00  0.00    +0.001 A 
ATOM     23  C   UNL     1       2.782 -10.845  -3.942  0.00  0.00    +0.001 A 
ATOM     24  C   UNL     1       2.035 -11.886  -3.480  0.00  0.00    +0.008 A 
ATOM     25  C   UNL     1       1.345 -11.761  -2.263  0.00  0.00    -0.017 A 
ATOM     26  C   UNL     1       0.564 -12.816  -1.755  0.00  0.00    +0.012 A 
ATOM     27  C   UNL     1      -0.100 -12.686  -0.577  0.00  0.00    +0.046 A 
ATOM     28  C   UNL     1      -0.035 -11.514   0.178  0.00  0.00    +0.126 A 
BRANCH  28  29
ATOM     29  O   UNL     1      -0.710 -11.430   1.351  0.00  0.00    -0.506 OA
ATOM     30  H   UNL     1      -1.613 -11.094   1.262  0.00  0.00    +0.292 HD
ENDBRANCH  28  29
ENDBRANCH  18  19
ENDBRANCH   5  17
BRANCH   4  31
ATOM     31  O   UNL     1       0.677  -9.028   4.361  0.00  0.00    -0.493 OA
ATOM     32  C   UNL     1       0.944  -8.922   5.761  0.00  0.00    +0.277 C 
ENDBRANCH   4  31
TORSDOF 5
