REMARK  Name = ZINC39695138
REMARK  10 active torsions:
REMARK  status: ('A' for Active; 'I' for Inactive)
REMARK    1  A    between atoms: C_1  and  C_2
REMARK    2  A    between atoms: C_3  and  C_9
REMARK    3  A    between atoms: C_9  and  N_10
REMARK    4  A    between atoms: C_11  and  C_13
REMARK    5  A    between atoms: C_24  and  C_26
REMARK    6  A    between atoms: C_26  and  C_28
REMARK    7  A    between atoms: C_26  and  O_31
REMARK    8  A    between atoms: C_28  and  C_29
REMARK    9  A    between atoms: C_28  and  C_30
REMARK   10  A    between atoms: O_31  and  C_32
REMARK                            x       y       z     vdW  Elec       q    Type
REMARK                         _______ _______ _______ _____ _____    ______ ____
ROOT
ATOM      1  C   UNL     1       2.988   1.773  -4.356  0.00  0.00    +0.100 C 
ATOM      2  C   UNL     1       3.416   2.816  -3.299  0.00  0.00    +0.121 C 
ATOM      3  N   UNL     1       4.171   3.836  -4.064  0.00  0.00    -0.297 N 
ATOM      4  C   UNL     1       3.420   3.975  -5.334  0.00  0.00    +0.115 C 
ATOM      5  C   UNL     1       2.992   2.538  -5.690  0.00  0.00    -0.004 C 
ATOM      6  C   UNL     1       3.994   1.912  -6.655  0.00  0.00    -0.010 C 
ATOM      7  C   UNL     1       3.939   2.654  -7.993  0.00  0.00    -0.082 C 
ATOM      8  N   UNL     1       2.581   2.572  -8.544  0.00  0.00    +0.379 N 
ATOM      9  C   UNL     1       1.636   3.257  -7.654  0.00  0.00    -0.082 C 
ATOM     10  C   UNL     1       1.595   2.540  -6.302  0.00  0.00    -0.010 C 
ATOM     11  C   UNL     1       5.289   4.489  -3.689  0.00  0.00    +0.257 C 
ATOM     12  O   UNL     1       5.794   5.303  -4.433  0.00  0.00    -0.272 OA
ATOM     13  H   UNL     1       2.561   3.009  -9.454  0.00  0.00    -0.086 HD
ATOM     14  H   UNL     1       2.314   1.603  -8.634  0.00  0.00    -0.086 HD
ENDROOT
BRANCH   1  16
ATOM     15  N   UNL     1       1.208   0.067  -4.550  0.00  0.00    -0.311 N 
ATOM     16  C   UNL     1       1.607   1.254  -4.052  0.00  0.00    +0.218 C 
ATOM     17  O   UNL     1       0.853   1.905  -3.359  0.00  0.00    -0.275 OA
ATOM     18  H   UNL     1       1.810  -0.454  -5.104  0.00  0.00    +0.149 HD
BRANCH  15  19
ATOM     19  C   UNL     1      -0.136  -0.438  -4.255  0.00  0.00    +0.139 C 
BRANCH  19  22
ATOM     20  C   UNL     1       0.949  -2.829  -3.050  0.00  0.00    +0.045 C 
ATOM     21  C   UNL     1       0.189  -2.917  -4.349  0.00  0.00    -0.027 A 
ATOM     22  C   UNL     1      -0.330  -1.773  -4.925  0.00  0.00    -0.026 A 
ATOM     23  C   UNL     1      -1.026  -1.854  -6.116  0.00  0.00    +0.005 A 
ATOM     24  C   UNL     1      -1.205  -3.079  -6.732  0.00  0.00    +0.002 A 
ATOM     25  C   UNL     1      -0.687  -4.223  -6.157  0.00  0.00    +0.020 A 
ATOM     26  C   UNL     1       0.016  -4.143  -4.967  0.00  0.00    +0.044 A 
ATOM     27 CL   UNL     1       0.672  -5.579  -4.247  0.00  0.00    -0.083 Cl
ENDBRANCH  19  22
ENDBRANCH  15  19
ENDBRANCH   1  16
BRANCH  11  28
ATOM     28  C   UNL     1       5.912   4.207  -2.346  0.00  0.00    +0.261 C 
BRANCH  28  29
ATOM     29  C   UNL     1       4.954   4.647  -1.237  0.00  0.00    +0.033 C 
ATOM     30  C   UNL     1       5.587   4.362   0.126  0.00  0.00    +0.011 C 
ATOM     31  C   UNL     1       4.678   6.147  -1.367  0.00  0.00    +0.011 C 
ENDBRANCH  28  29
BRANCH  28  32
ATOM     32  O   UNL     1       7.140   4.929  -2.229  0.00  0.00    -0.479 OA
BRANCH  32  33
ATOM     33  C   UNL     1       8.133   4.345  -1.509  0.00  0.00    +0.122 A 
ATOM     34  C   UNL     1       7.961   3.067  -0.997  0.00  0.00    +0.045 A 
ATOM     35  C   UNL     1       8.972   2.475  -0.265  0.00  0.00    +0.004 A 
ATOM     36  C   UNL     1      10.155   3.156  -0.043  0.00  0.00    +0.000 A 
ATOM     37  C   UNL     1      10.329   4.429  -0.551  0.00  0.00    +0.004 A 
ATOM     38  C   UNL     1       9.323   5.023  -1.289  0.00  0.00    +0.045 A 
ENDBRANCH  32  33
ENDBRANCH  28  32
ENDBRANCH  11  28
TORSDOF 7
