REMARK  Name = ZINC39663903
REMARK  10 active torsions:
REMARK  status: ('A' for Active; 'I' for Inactive)
REMARK    1  A    between atoms: C_1  and  N_2
REMARK    2  A    between atoms: N_2  and  C_3
REMARK    3  A    between atoms: N_2  and  C_4
REMARK    4  A    between atoms: C_4  and  C_6
REMARK    5  A    between atoms: C_4  and  C_32
REMARK    6  A    between atoms: C_6  and  N_7
REMARK    7  A    between atoms: C_8  and  C_10
REMARK    8  A    between atoms: C_21  and  C_23
REMARK    9  A    between atoms: C_35  and  O_38
REMARK   10  A    between atoms: O_38  and  C_39
REMARK                            x       y       z     vdW  Elec       q    Type
REMARK                         _______ _______ _______ _____ _____    ______ ____
ROOT
ATOM      1  C   UNL     1      -2.064   4.093  -3.284  0.00  0.00    +0.100 C 
ATOM      2  C   UNL     1      -2.692   4.656  -1.989  0.00  0.00    +0.121 C 
ATOM      3  N   UNL     1      -3.598   5.734  -2.451  0.00  0.00    -0.296 N 
ATOM      4  C   UNL     1      -4.214   5.194  -3.687  0.00  0.00    +0.115 C 
ATOM      5  C   UNL     1      -3.066   4.447  -4.396  0.00  0.00    -0.004 C 
ATOM      6  C   UNL     1      -2.407   5.353  -5.431  0.00  0.00    -0.010 C 
ATOM      7  C   UNL     1      -3.405   5.646  -6.555  0.00  0.00    -0.082 C 
ATOM      8  N   UNL     1      -3.827   4.385  -7.177  0.00  0.00    +0.379 N 
ATOM      9  C   UNL     1      -4.542   3.558  -6.197  0.00  0.00    -0.082 C 
ATOM     10  C   UNL     1      -3.592   3.178  -5.058  0.00  0.00    -0.010 C 
ATOM     11  C   UNL     1      -3.814   6.934  -1.877  0.00  0.00    +0.248 C 
ATOM     12  O   UNL     1      -4.669   7.677  -2.323  0.00  0.00    -0.270 OA
ATOM     13  H   UNL     1      -4.437   4.584  -7.956  0.00  0.00    -0.086 HD
ATOM     14  H   UNL     1      -3.015   3.886  -7.508  0.00  0.00    -0.086 HD
ENDROOT
BRANCH  11  15
ATOM     15  C   UNL     1      -3.019   7.345  -0.713  0.00  0.00    +0.052 A 
ATOM     16  C   UNL     1      -2.628   6.441   0.223  0.00  0.00    +0.059 A 
ATOM     17  S   UNL     1      -1.758   7.319   1.355  0.00  0.00    -0.096 S 
ATOM     18  C   UNL     1      -1.866   8.939   0.646  0.00  0.00    +0.020 A 
ATOM     19  C   UNL     1      -2.617   8.741  -0.528  0.00  0.00    +0.001 A 
ATOM     20  C   UNL     1      -2.873   9.870  -1.329  0.00  0.00    +0.010 A 
ATOM     21  C   UNL     1      -2.394  11.104  -0.964  0.00  0.00    +0.001 A 
ATOM     22  C   UNL     1      -1.651  11.272   0.196  0.00  0.00    +0.001 A 
ATOM     23  C   UNL     1      -1.394  10.183   1.007  0.00  0.00    +0.015 A 
ENDBRANCH  11  15
BRANCH   1  25
ATOM     24  N   UNL     1      -0.904   1.981  -3.844  0.00  0.00    -0.316 N 
ATOM     25  C   UNL     1      -1.902   2.598  -3.181  0.00  0.00    +0.218 C 
ATOM     26  O   UNL     1      -2.670   1.950  -2.502  0.00  0.00    -0.275 OA
ATOM     27  H   UNL     1      -0.290   2.499  -4.388  0.00  0.00    +0.149 HD
BRANCH  24  28
ATOM     28  C   UNL     1      -0.746   0.528  -3.744  0.00  0.00    +0.093 C 
BRANCH  28  29
ATOM     29  C   UNL     1       0.379   0.072  -4.676  0.00  0.00    -0.021 C 
BRANCH  29  30
ATOM     30  C   UNL     1       1.690   0.640  -4.196  0.00  0.00    -0.059 A 
ATOM     31  C   UNL     1       2.363   0.035  -3.151  0.00  0.00    +0.005 A 
ATOM     32  C   UNL     1       3.564   0.554  -2.709  0.00  0.00    +0.046 A 
ATOM     33  C   UNL     1       4.096   1.684  -3.315  0.00  0.00    +0.120 A 
ATOM     34  C   UNL     1       3.418   2.289  -4.364  0.00  0.00    +0.046 A 
ATOM     35  C   UNL     1       2.220   1.762  -4.805  0.00  0.00    +0.005 A 
BRANCH  33  36
ATOM     36  O   UNL     1       5.277   2.197  -2.882  0.00  0.00    -0.495 OA
ATOM     37  C   UNL     1       5.764   3.361  -3.553  0.00  0.00    +0.277 C 
ENDBRANCH  33  36
ENDBRANCH  29  30
BRANCH  29  39
ATOM     38  C   UNL     1      -0.811  -1.948  -5.181  0.00  0.00    -0.096 C 
ATOM     39  N   UNL     1       0.451  -1.395  -4.674  0.00  0.00    +0.382 N 
ATOM     40  C   UNL     1       1.558  -1.832  -5.535  0.00  0.00    -0.096 C 
ATOM     41  H   UNL     1       0.608  -1.723  -3.732  0.00  0.00    -0.082 HD
ENDBRANCH  29  39
ENDBRANCH  28  29
ENDBRANCH  24  28
ENDBRANCH   1  25
TORSDOF 7
