REMARK  Name = ZINC10052604
REMARK  10 active torsions:
REMARK  status: ('A' for Active; 'I' for Inactive)
REMARK    1  A    between atoms: C_1  and  C_2
REMARK    2  A    between atoms: C_2  and  C_3
REMARK    3  A    between atoms: C_3  and  C_4
REMARK    4  A    between atoms: C_4  and  N_5
REMARK    5  A    between atoms: C_18  and  S_19
REMARK    6  A    between atoms: S_19  and  C_20
REMARK    7  A    between atoms: C_20  and  C_22
REMARK    8  A    between atoms: C_20  and  C_23
REMARK    9  A    between atoms: N_25  and  C_26
REMARK   10  A    between atoms: C_26  and  C_32
REMARK                            x       y       z     vdW  Elec       q    Type
REMARK                         _______ _______ _______ _____ _____    ______ ____
ROOT
ATOM      1  N   UNL     1       3.589   3.505  -0.015  0.00  0.00    -0.277 N 
ATOM      2  C   UNL     1       3.652   2.158  -0.023  0.00  0.00    +0.263 A 
ATOM      3  O   UNL     1       4.727   1.589  -0.037  0.00  0.00    -0.267 OA
ATOM      4  C   UNL     1       2.395   1.387  -0.014  0.00  0.00    +0.064 A 
ATOM      5  C   UNL     1       2.401  -0.007  -0.021  0.00  0.00    +0.015 A 
ATOM      6  C   UNL     1       1.205  -0.693  -0.013  0.00  0.00    +0.001 A 
ATOM      7  C   UNL     1       0.002  -0.004   0.002  0.00  0.00    +0.002 A 
ATOM      8  C   UNL     1      -0.017   1.377   0.010  0.00  0.00    +0.027 A 
ATOM      9  C   UNL     1       1.177   2.083   0.002  0.00  0.00    +0.064 A 
ATOM     10  N   UNL     1       1.186   3.476   0.009  0.00  0.00    -0.256 N 
ATOM     11  C   UNL     1       2.369   4.164   0.000  0.00  0.00    +0.240 A 
ATOM     12  N   UNL     1       2.087   5.447   0.009  0.00  0.00    -0.109 NA
ATOM     13  N   UNL     1       0.694   5.587   0.023  0.00  0.00    -0.120 NA
ATOM     14  C   UNL     1       0.165   4.388   0.023  0.00  0.00    +0.198 A 
ENDROOT
BRANCH   1  15
ATOM     15  C   UNL     1       4.829   4.285  -0.024  0.00  0.00    +0.128 C 
BRANCH  15  16
ATOM     16  C   UNL     1       5.246   4.564  -1.470  0.00  0.00    +0.021 C 
BRANCH  16  18
ATOM     17  C   UNL     1       6.958   5.657  -2.924  0.00  0.00    +0.004 C 
ATOM     18  C   UNL     1       6.541   5.378  -1.479  0.00  0.00    -0.002 C 
ENDBRANCH  16  18
ENDBRANCH  15  16
ENDBRANCH   1  15
BRANCH  14  19
ATOM     19  S   UNL     1      -1.557   4.015   0.038  0.00  0.00    -0.073 S 
BRANCH  19  20
ATOM     20  C   UNL     1      -2.358   5.643   0.054  0.00  0.00    +0.137 C 
ATOM     21  C   UNL     1      -2.050   6.376  -1.253  0.00  0.00    +0.029 C 
BRANCH  20  22
ATOM     22  C   UNL     1      -3.849   5.467   0.192  0.00  0.00    +0.227 C 
ATOM     23  O   UNL     1      -4.363   4.405  -0.088  0.00  0.00    -0.275 OA
ATOM     24  N   UNL     1      -4.610   6.491   0.625  0.00  0.00    -0.296 N 
ATOM     25  H   UNL     1      -4.199   7.341   0.849  0.00  0.00    +0.150 HD
BRANCH  24  26
ATOM     26  C   UNL     1      -6.059   6.321   0.759  0.00  0.00    +0.121 C 
ATOM     27  C   UNL     1      -6.659   5.965  -0.602  0.00  0.00    +0.041 C 
ATOM     28  C   UNL     1      -8.172   5.787  -0.463  0.00  0.00    +0.003 C 
ATOM     29  C   UNL     1      -8.794   7.090   0.044  0.00  0.00    +0.000 C 
ATOM     30  C   UNL     1      -8.194   7.446   1.406  0.00  0.00    +0.003 C 
ATOM     31  C   UNL     1      -6.681   7.624   1.266  0.00  0.00    +0.041 C 
BRANCH  26  32
ATOM     32  C   UNL     1      -6.339   5.238   1.717  0.00  0.00    +0.088 C 
ATOM     33  N   UNL     1      -6.556   4.403   2.456  0.00  0.00    -0.194 NA
ENDBRANCH  26  32
ENDBRANCH  24  26
ENDBRANCH  20  22
ENDBRANCH  19  20
ENDBRANCH  14  19
TORSDOF 8
