REMARK  Name = ZINC39548934
REMARK  4 active torsions:
REMARK  status: ('A' for Active; 'I' for Inactive)
REMARK    1  A    between atoms: C_1  and  C_2
REMARK    2  A    between atoms: N_16  and  C_17
REMARK    3  A    between atoms: C_17  and  C_18
REMARK    4  A    between atoms: N_20  and  C_21
REMARK                            x       y       z     vdW  Elec       q    Type
REMARK                         _______ _______ _______ _____ _____    ______ ____
ROOT
ATOM      1  C   UNL     1      -0.127   1.424  -0.047  0.00  0.00    -0.008 C 
ATOM      2  C   UNL     1      -0.046  -0.103   0.003  0.00  0.00    -0.040 C 
ATOM      3  C   UNL     1       0.531  -0.612  -1.292  0.00  0.00    -0.054 A 
ATOM      4  C   UNL     1       0.131  -0.013  -2.478  0.00  0.00    +0.051 A 
ATOM      5  C   UNL     1       0.634  -0.452  -3.691  0.00  0.00    +0.162 A 
ATOM      6  C   UNL     1       1.546  -1.500  -3.719  0.00  0.00    +0.162 A 
ATOM      7  C   UNL     1       1.943  -2.095  -2.533  0.00  0.00    +0.053 A 
ATOM      8  C   UNL     1       1.438  -1.651  -1.321  0.00  0.00    -0.038 A 
ATOM      9  C   UNL     1       1.901  -2.317  -0.053  0.00  0.00    -0.019 C 
ATOM     10  C   UNL     1       1.933  -3.844  -0.250  0.00  0.00    +0.010 C 
ATOM     11  C   UNL     1       3.405  -4.146  -0.627  0.00  0.00    +0.001 C 
ATOM     12  C   UNL     1       4.197  -3.161   0.267  0.00  0.00    +0.001 C 
ATOM     13  C   UNL     1       3.337  -1.879   0.273  0.00  0.00    +0.010 C 
ATOM     14  C   UNL     1       0.973  -1.965   1.106  0.00  0.00    -0.066 C 
ATOM     15  N   UNL     1       0.792  -0.505   1.136  0.00  0.00    +0.390 N 
ATOM     16  O   UNL     1       2.057  -1.948  -4.898  0.00  0.00    -0.485 OA
ATOM     17  C   UNL     1       1.353  -1.574  -6.087  0.00  0.00    +0.270 C 
ATOM     18  C   UNL     1       1.032  -0.075  -6.004  0.00  0.00    +0.270 C 
ATOM     19  O   UNL     1       0.226   0.147  -4.843  0.00  0.00    -0.485 OA
ATOM     20  H   UNL     1       1.691  -0.052   1.068  0.00  0.00    -0.080 HD
ENDROOT
BRANCH  15  21
ATOM     21  C   UNL     1       0.138  -0.118   2.392  0.00  0.00    +0.019 C 
BRANCH  21  22
ATOM     22  C   UNL     1       1.068  -0.387   3.547  0.00  0.00    +0.197 C 
ATOM     23  O   UNL     1       2.205  -0.752   3.337  0.00  0.00    -0.278 OA
ATOM     24  N   UNL     1       0.636  -0.222   4.813  0.00  0.00    -0.314 N 
ATOM     25  H   UNL     1      -0.274   0.070   4.981  0.00  0.00    +0.149 HD
BRANCH  24  26
ATOM     26  C   UNL     1       1.541  -0.484   5.935  0.00  0.00    +0.073 C 
ATOM     27  C   UNL     1       1.470  -1.972   6.335  0.00  0.00    +0.022 C 
ATOM     28  C   UNL     1       1.591  -1.957   7.879  0.00  0.00    +0.002 C 
ATOM     29  C   UNL     1       0.774  -0.701   8.274  0.00  0.00    +0.002 C 
ATOM     30  C   UNL     1       1.099   0.324   7.168  0.00  0.00    +0.022 C 
ENDBRANCH  24  26
ENDBRANCH  21  22
ENDBRANCH  15  21
TORSDOF 3
