REMARK  Name = ZINC59267058
REMARK  5 active torsions:
REMARK  status: ('A' for Active; 'I' for Inactive)
REMARK    1  A    between atoms: C_1  and  O_2
REMARK    2  A    between atoms: O_2  and  C_3
REMARK    3  A    between atoms: C_5  and  C_12
REMARK    4  A    between atoms: C_8  and  O_9
REMARK    5  A    between atoms: O_9  and  C_10
REMARK                            x       y       z     vdW  Elec       q    Type
REMARK                         _______ _______ _______ _____ _____    ______ ____
ROOT
ATOM      1  C   UNL     1       2.401   0.380  -4.231  0.00  0.00    +0.105 C 
ATOM      2  C   UNL     1       1.413   0.480  -5.374  0.00  0.00    +0.029 C 
ATOM      3  C   UNL     1       0.499   1.710  -5.116  0.00  0.00    +0.033 C 
ATOM      4  C   UNL     1       1.187   2.843  -5.846  0.00  0.00    -0.030 C 
ATOM      5  C   UNL     1       2.045   2.383  -6.721  0.00  0.00    -0.023 C 
ATOM      6  C   UNL     1       2.052   0.857  -6.710  0.00  0.00    +0.049 C 
ATOM      7  C   UNL     1       3.410   0.282  -6.932  0.00  0.00    -0.018 A 
ATOM      8  C   UNL     1       3.938   0.278  -8.215  0.00  0.00    +0.006 A 
ATOM      9  C   UNL     1       5.186  -0.257  -8.458  0.00  0.00    +0.002 A 
ATOM     10  C   UNL     1       5.925  -0.799  -7.421  0.00  0.00    +0.022 A 
ATOM     11  C   UNL     1       5.411  -0.796  -6.140  0.00  0.00    +0.062 A 
ATOM     12  C   UNL     1       4.156  -0.249  -5.892  0.00  0.00    +0.050 A 
ATOM     13  N   UNL     1       3.672  -0.205  -4.596  0.00  0.00    -0.335 N 
ATOM     14 CL   UNL     1       6.333  -1.477  -4.836  0.00  0.00    -0.082 Cl
ATOM     15  H   UNL     1       4.212  -0.608  -3.898  0.00  0.00    +0.147 HD
ENDROOT
BRANCH   1  18
ATOM     16  C   UNL     1       0.606  -0.608  -1.056  0.00  0.00    +0.163 A 
ATOM     17  C   UNL     1       1.173   0.159  -2.062  0.00  0.00    +0.055 A 
ATOM     18  C   UNL     1       1.786  -0.455  -3.138  0.00  0.00    -0.022 A 
ATOM     19  C   UNL     1       1.836  -1.835  -3.214  0.00  0.00    +0.024 A 
ATOM     20  C   UNL     1       1.273  -2.606  -2.213  0.00  0.00    +0.063 A 
ATOM     21  C   UNL     1       0.662  -1.996  -1.129  0.00  0.00    +0.175 A 
ATOM     22 BR   UNL     1       1.342  -4.493  -2.321  0.00  0.00    -0.046 Br
BRANCH  16  24
ATOM     23  C   UNL     1      -0.017   1.425   0.010  0.00  0.00    +0.277 C 
ATOM     24  O   UNL     1       0.002  -0.004   0.002  0.00  0.00    -0.491 OA
ENDBRANCH  16  24
BRANCH  21  25
ATOM     25  O   UNL     1       0.112  -2.752  -0.141  0.00  0.00    -0.490 OA
ATOM     26  C   UNL     1      -1.259  -3.125  -0.296  0.00  0.00    +0.277 C 
ENDBRANCH  21  25
ENDBRANCH   1  18
TORSDOF 3
