REMARK  Name = ZINC36024498
REMARK  10 active torsions:
REMARK  status: ('A' for Active; 'I' for Inactive)
REMARK    1  A    between atoms: C_1  and  C_2
REMARK    2  A    between atoms: C_2  and  C_3
REMARK    3  A    between atoms: C_3  and  C_5
REMARK    4  A    between atoms: C_3  and  N_6
REMARK    5  A    between atoms: C_9  and  C_28
REMARK    6  A    between atoms: N_15  and  S_18
REMARK    7  A    between atoms: S_18  and  C_21
REMARK    8  A    between atoms: C_24  and  C_27
REMARK    9  A    between atoms: C_28  and  C_29
REMARK   10  A    between atoms: C_28  and  C_30
REMARK                            x       y       z     vdW  Elec       q    Type
REMARK                         _______ _______ _______ _____ _____    ______ ____
ROOT
ATOM      1  N   UNL     1      -2.336  -0.181  -1.085  0.00  0.00    -0.311 N 
ATOM      2  C   UNL     1      -2.247  -0.649  -2.348  0.00  0.00    +0.201 C 
ATOM      3  O   UNL     1      -1.415  -1.431  -2.757  0.00  0.00    -0.277 OA
ATOM      4  C   UNL     1      -3.362  -0.035  -3.167  0.00  0.00    +0.022 C 
ATOM      5  N   UNL     1      -3.827   1.123  -2.365  0.00  0.00    +0.401 N 
ATOM      6  C   UNL     1      -3.479   0.731  -0.981  0.00  0.00    +0.006 C 
ATOM      7  C   UNL     1      -3.094   1.971  -0.177  0.00  0.00    +0.023 C 
ATOM      8  C   UNL     1      -2.695   1.553   1.242  0.00  0.00    +0.109 C 
ATOM      9  N   UNL     1      -3.784   0.759   1.825  0.00  0.00    -0.177 NA
ATOM     10  C   UNL     1      -4.277  -0.414   1.089  0.00  0.00    +0.109 C 
ATOM     11  C   UNL     1      -4.663   0.021  -0.328  0.00  0.00    +0.023 C 
ATOM     12  H   UNL     1      -3.338   1.963  -2.636  0.00  0.00    -0.082 HD
ATOM     13  H   UNL     1      -4.824   1.243  -2.459  0.00  0.00    -0.082 HD
ENDROOT
BRANCH   9  14
ATOM     14  S   UNL     1      -4.446   1.177   3.284  0.00  0.00    +0.061 S 
ATOM     15  O   UNL     1      -5.018  -0.006   3.825  0.00  0.00    -0.153 OA
ATOM     16  O   UNL     1      -3.460   1.932   3.976  0.00  0.00    -0.153 OA
BRANCH  14  17
ATOM     17  C   UNL     1      -5.782   2.277   2.954  0.00  0.00    +0.105 A 
ATOM     18  C   UNL     1      -5.556   3.640   2.892  0.00  0.00    +0.029 A 
ATOM     19  C   UNL     1      -6.605   4.503   2.632  0.00  0.00    +0.005 A 
ATOM     20  C   UNL     1      -7.879   4.003   2.436  0.00  0.00    -0.050 A 
ATOM     21  C   UNL     1      -8.104   2.641   2.498  0.00  0.00    +0.005 A 
ATOM     22  C   UNL     1      -7.055   1.778   2.753  0.00  0.00    +0.029 A 
ATOM     23  C   UNL     1      -9.022   4.944   2.155  0.00  0.00    +0.044 C 
ENDBRANCH  14  17
ENDBRANCH   9  14
BRANCH   4  24
ATOM     24  C   UNL     1      -2.830   0.433  -4.523  0.00  0.00    -0.023 C 
ATOM     25  C   UNL     1      -2.285  -0.768  -5.299  0.00  0.00    +0.006 C 
ATOM     26  C   UNL     1      -3.964   1.082  -5.319  0.00  0.00    +0.006 C 
ENDBRANCH   4  24
BRANCH   1  27
ATOM     27  C   UNL     1      -1.433  -0.534   0.013  0.00  0.00    +0.071 C 
ATOM     28  C   UNL     1      -1.212  -2.048   0.025  0.00  0.00    +0.028 C 
BRANCH  27  30
ATOM     29  C   UNL     1      -0.294   1.688  -0.069  0.00  0.00    +0.005 C 
ATOM     30  C   UNL     1      -0.092   0.176  -0.181  0.00  0.00    +0.019 C 
ENDBRANCH  27  30
ENDBRANCH   1  27
TORSDOF 5
