REMARK  Name = ZINC07141724
REMARK  8 active torsions:
REMARK  status: ('A' for Active; 'I' for Inactive)
REMARK    1  A    between atoms: C_1  and  O_2
REMARK    2  A    between atoms: O_2  and  C_3
REMARK    3  A    between atoms: C_8  and  O_9
REMARK    4  A    between atoms: O_9  and  C_10
REMARK    5  A    between atoms: C_11  and  C_26
REMARK    6  A    between atoms: C_15  and  C_16
REMARK    7  A    between atoms: C_15  and  N_56
REMARK    8  A    between atoms: C_21  and  O_22
REMARK                            x       y       z     vdW  Elec       q    Type
REMARK                         _______ _______ _______ _____ _____    ______ ____
ROOT
ATOM      1  C   UNL     1       1.858   2.108   0.258  0.00  0.00    +0.162 A 
ATOM      2  C   UNL     1       2.924   1.248   0.061  0.00  0.00    +0.053 A 
ATOM      3  C   UNL     1       2.718  -0.122   0.003  0.00  0.00    -0.044 A 
ATOM      4  C   UNL     1       1.445  -0.634   0.139  0.00  0.00    -0.050 A 
ATOM      5  C   UNL     1       0.373   0.224   0.339  0.00  0.00    +0.052 A 
ATOM      6  C   UNL     1       0.573   1.592   0.399  0.00  0.00    +0.162 A 
ATOM      7  C   UNL     1       1.172  -2.114   0.071  0.00  0.00    -0.006 C 
ATOM      8  C   UNL     1       3.452  -2.404  -0.657  0.00  0.00    -0.072 C 
ATOM      9  C   UNL     1       3.912  -1.018  -0.207  0.00  0.00    +0.017 C 
ATOM     10  N   UNL     1       2.418  -2.867   0.292  0.00  0.00    +0.390 N 
ATOM     11  H   UNL     1       2.745  -2.701   1.251  0.00  0.00    -0.080 HD
ENDROOT
BRANCH   7  12
ATOM     12  C   UNL     1       0.182  -2.487   1.144  0.00  0.00    -0.057 A 
ATOM     13  C   UNL     1       0.597  -2.604   2.457  0.00  0.00    +0.002 A 
ATOM     14  C   UNL     1      -0.313  -2.942   3.442  0.00  0.00    +0.000 A 
ATOM     15  C   UNL     1      -1.635  -3.173   3.111  0.00  0.00    +0.000 A 
ATOM     16  C   UNL     1      -2.049  -3.061   1.797  0.00  0.00    +0.000 A 
ATOM     17  C   UNL     1      -1.140  -2.718   0.813  0.00  0.00    +0.002 A 
ENDBRANCH   7  12
BRANCH   1  19
ATOM     18  C   UNL     1       3.410   3.907   0.161  0.00  0.00    +0.277 C 
ATOM     19  O   UNL     1       2.064   3.451   0.313  0.00  0.00    -0.491 OA
ENDBRANCH   1  19
BRANCH   6  20
ATOM     20  O   UNL     1      -0.482   2.429   0.589  0.00  0.00    -0.491 OA
ATOM     21  C   UNL     1      -1.772   1.827   0.719  0.00  0.00    +0.277 C 
ENDBRANCH   6  20
BRANCH  10  22
ATOM     22  C   UNL     1       2.175  -4.315   0.111  0.00  0.00    -0.038 C 
BRANCH  22  23
ATOM     23  C   UNL     1       1.613  -4.584  -1.262  0.00  0.00    -0.019 A 
ATOM     24  C   UNL     1       0.248  -4.720  -1.434  0.00  0.00    +0.055 A 
ATOM     25  C   UNL     1      -0.272  -4.966  -2.694  0.00  0.00    +0.167 A 
ATOM     26  C   UNL     1       0.583  -5.078  -3.789  0.00  0.00    +0.170 A 
ATOM     27  C   UNL     1       1.950  -4.941  -3.613  0.00  0.00    +0.095 A 
ATOM     28  C   UNL     1       2.465  -4.688  -2.350  0.00  0.00    +0.122 A 
ATOM     29  O   UNL     1      -0.166  -5.319  -4.904  0.00  0.00    -0.452 OA
ATOM     30  C   UNL     1      -1.511  -4.948  -4.552  0.00  0.00    +0.466 C 
ATOM     31  O   UNL     1      -1.556  -5.138  -3.126  0.00  0.00    -0.453 OA
BRANCH  28  32
ATOM     32  O   UNL     1       3.807  -4.548  -2.179  0.00  0.00    -0.506 OA
ATOM     33  H   UNL     1       4.278  -5.385  -2.066  0.00  0.00    +0.292 HD
ENDBRANCH  28  32
ENDBRANCH  22  23
ENDBRANCH  10  22
TORSDOF 6
