REMARK  Name = ZINC14670745
REMARK  15 active torsions:
REMARK  status: ('A' for Active; 'I' for Inactive)
REMARK    1  A    between atoms: C_1  and  C_2
REMARK    2  A    between atoms: C_2  and  C_3
REMARK    3  A    between atoms: C_3  and  C_4
REMARK    4  A    between atoms: C_4  and  N_5
REMARK    5  A    between atoms: C_9  and  S_29
REMARK    6  A    between atoms: C_13  and  C_14
REMARK    7  A    between atoms: C_14  and  N_61
REMARK    8  A    between atoms: C_15  and  N_61
REMARK    9  A    between atoms: C_16  and  C_17
REMARK   10  A    between atoms: C_16  and  N_61
REMARK   11  A    between atoms: C_20  and  O_25
REMARK   12  A    between atoms: C_21  and  O_23
REMARK   13  A    between atoms: O_23  and  C_24
REMARK   14  A    between atoms: O_25  and  C_26
REMARK   15  A    between atoms: S_29  and  N_32
REMARK                            x       y       z     vdW  Elec       q    Type
REMARK                         _______ _______ _______ _____ _____    ______ ____
ROOT
ATOM      1  N   UNL     1      -1.752   4.872  -4.971  0.00  0.00    -0.329 N 
ATOM      2  C   UNL     1      -1.575   4.359  -3.702  0.00  0.00    +0.069 A 
ATOM      3  C   UNL     1      -1.045   4.861  -2.521  0.00  0.00    +0.030 A 
ATOM      4  C   UNL     1      -1.019   4.070  -1.393  0.00  0.00    +0.030 A 
ATOM      5  C   UNL     1      -1.507   2.771  -1.433  0.00  0.00    +0.107 A 
ATOM      6  C   UNL     1      -2.031   2.260  -2.587  0.00  0.00    +0.058 A 
ATOM      7  C   UNL     1      -2.074   3.046  -3.741  0.00  0.00    +0.091 A 
ATOM      8  N   UNL     1      -2.520   2.830  -5.005  0.00  0.00    -0.234 NA
ATOM      9  C   UNL     1      -2.332   3.898  -5.724  0.00  0.00    +0.094 A 
ENDROOT
BRANCH   5  10
ATOM     10  S   UNL     1      -1.456   1.774   0.019  0.00  0.00    +0.056 S 
ATOM     11  O   UNL     1      -2.472   0.792  -0.128  0.00  0.00    -0.153 OA
ATOM     12  O   UNL     1      -1.413   2.667   1.123  0.00  0.00    -0.153 OA
BRANCH  10  13
ATOM     13  N   UNL     1      -0.011   0.966   0.007  0.00  0.00    -0.204 NA
ATOM     14  H   UNL     1       0.002  -0.004   0.002  0.00  0.00    +0.144 HD
ATOM     15  H   UNL     1       0.822   1.462   0.002  0.00  0.00    +0.144 HD
ENDBRANCH  10  13
ENDBRANCH   5  10
BRANCH   1  16
ATOM     16  C   UNL     1      -1.384   6.216  -5.423  0.00  0.00    +0.123 C 
BRANCH  16  17
ATOM     17  C   UNL     1      -2.561   7.168  -5.203  0.00  0.00    +0.021 C 
BRANCH  17  19
ATOM     18  C   UNL     1      -3.353   9.524  -5.454  0.00  0.00    +0.004 C 
ATOM     19  C   UNL     1      -2.177   8.572  -5.675  0.00  0.00    -0.002 C 
ENDBRANCH  17  19
ENDBRANCH  16  17
ENDBRANCH   1  16
BRANCH   9  20
ATOM     20  C   UNL     1      -2.701   4.037  -7.178  0.00  0.00    -0.003 C 
BRANCH  20  22
ATOM     21  C   UNL     1      -5.042   3.570  -6.773  0.00  0.00    -0.095 C 
ATOM     22  N   UNL     1      -4.076   4.571  -7.272  0.00  0.00    +0.385 N 
ATOM     23  H   UNL     1      -4.145   5.418  -6.695  0.00  0.00    -0.081 HD
BRANCH  22  24
ATOM     24  C   UNL     1      -4.388   4.919  -8.674  0.00  0.00    -0.043 C 
BRANCH  24  25
ATOM     25  C   UNL     1      -5.700   5.660  -8.710  0.00  0.00    -0.060 A 
ATOM     26  C   UNL     1      -6.882   4.963  -8.879  0.00  0.00    +0.005 A 
ATOM     27  C   UNL     1      -8.088   5.637  -8.907  0.00  0.00    +0.050 A 
ATOM     28  C   UNL     1      -8.114   7.016  -8.778  0.00  0.00    +0.168 A 
ATOM     29  C   UNL     1      -6.924   7.719  -8.614  0.00  0.00    +0.162 A 
ATOM     30  C   UNL     1      -5.719   7.036  -8.581  0.00  0.00    +0.051 A 
BRANCH  29  31
ATOM     31  O   UNL     1      -6.944   9.073  -8.486  0.00  0.00    -0.491 OA
ATOM     32  C   UNL     1      -5.685   9.727  -8.320  0.00  0.00    +0.277 C 
ENDBRANCH  29  31
BRANCH  28  33
ATOM     33  O   UNL     1      -9.299   7.682  -8.811  0.00  0.00    -0.431 OA
BRANCH  33  34
ATOM     34  C   UNL     1     -10.480   6.896  -8.982  0.00  0.00    +0.541 C 
ATOM     35  F   UNL     1     -10.406   6.200 -10.194  0.00  0.00    -0.166 F 
ATOM     36  F   UNL     1     -10.590   5.984  -7.927  0.00  0.00    -0.166 F 
ENDBRANCH  33  34
ENDBRANCH  28  33
ENDBRANCH  24  25
ENDBRANCH  22  24
ENDBRANCH  20  22
ENDBRANCH   9  20
TORSDOF 12
