REMARK  Name = ZINC39666657
REMARK  7 active torsions:
REMARK  status: ('A' for Active; 'I' for Inactive)
REMARK    1  A    between atoms: C_1  and  C_2
REMARK    2  A    between atoms: C_2  and  C_4
REMARK    3  A    between atoms: C_2  and  O_27
REMARK    4  A    between atoms: C_4  and  N_5
REMARK    5  A    between atoms: C_6  and  C_8
REMARK    6  A    between atoms: C_19  and  C_21
REMARK    7  A    between atoms: O_27  and  C_28
REMARK                            x       y       z     vdW  Elec       q    Type
REMARK                         _______ _______ _______ _____ _____    ______ ____
ROOT
ATOM      1  C   UNL     1       0.693  -4.275  -1.914  0.00  0.00    +0.100 C 
ATOM      2  C   UNL     1       1.235  -4.816  -0.571  0.00  0.00    +0.121 C 
ATOM      3  N   UNL     1       1.790  -6.149  -0.902  0.00  0.00    -0.300 N 
ATOM      4  C   UNL     1       2.442  -5.961  -2.220  0.00  0.00    +0.115 C 
ATOM      5  C   UNL     1       1.488  -5.029  -2.993  0.00  0.00    -0.004 C 
ATOM      6  C   UNL     1       2.286  -4.046  -3.844  0.00  0.00    -0.010 C 
ATOM      7  C   UNL     1       3.022  -4.813  -4.947  0.00  0.00    -0.082 C 
ATOM      8  N   UNL     1       2.049  -5.533  -5.777  0.00  0.00    +0.379 N 
ATOM      9  C   UNL     1       1.351  -6.541  -4.971  0.00  0.00    -0.082 C 
ATOM     10  C   UNL     1       0.544  -5.847  -3.869  0.00  0.00    -0.010 C 
ATOM     11  C   UNL     1       1.718  -7.279  -0.169  0.00  0.00    +0.219 C 
ATOM     12  O   UNL     1       2.228  -8.300  -0.579  0.00  0.00    -0.275 OA
ATOM     13  H   UNL     1       1.378  -4.879  -6.150  0.00  0.00    -0.086 HD
ATOM     14  H   UNL     1       2.530  -5.988  -6.539  0.00  0.00    -0.086 HD
ENDROOT
BRANCH  11  15
ATOM     15  C   UNL     1       1.005  -7.271   1.158  0.00  0.00    +0.079 C 
ATOM     16  C   UNL     1       1.686  -6.273   2.100  0.00  0.00    +0.041 C 
ATOM     17  C   UNL     1       1.005  -6.330   3.470  0.00  0.00    +0.160 C 
ATOM     18  O   UNL     1       1.072  -7.664   3.979  0.00  0.00    -0.380 OA
ATOM     19  C   UNL     1       0.411  -8.634   3.164  0.00  0.00    +0.160 C 
ATOM     20  C   UNL     1       1.069  -8.669   1.781  0.00  0.00    +0.041 C 
ENDBRANCH  11  15
BRANCH   1  22
ATOM     21  N   UNL     1       0.126  -2.027  -2.774  0.00  0.00    -0.312 N 
ATOM     22  C   UNL     1       0.939  -2.792  -2.020  0.00  0.00    +0.218 C 
ATOM     23  O   UNL     1       1.869  -2.288  -1.427  0.00  0.00    -0.275 OA
ATOM     24  H   UNL     1      -0.618  -2.430  -3.248  0.00  0.00    +0.149 HD
BRANCH  21  25
ATOM     25  C   UNL     1       0.365  -0.585  -2.878  0.00  0.00    +0.148 C 
BRANCH  25  27
ATOM     26  C   UNL     1      -0.371   1.525  -3.995  0.00  0.00    +0.053 C 
ATOM     27  C   UNL     1      -0.693   0.043  -3.787  0.00  0.00    +0.187 C 
BRANCH  27  28
ATOM     28  O   UNL     1      -1.980  -0.083  -3.179  0.00  0.00    -0.486 OA
BRANCH  28  29
ATOM     29  C   UNL     1      -3.058  -0.060  -4.006  0.00  0.00    +0.139 A 
ATOM     30  C   UNL     1      -2.891   0.195  -5.359  0.00  0.00    +0.047 A 
ATOM     31  C   UNL     1      -3.988   0.217  -6.198  0.00  0.00    +0.004 A 
ATOM     32  C   UNL     1      -5.253  -0.014  -5.690  0.00  0.00    +0.002 A 
ATOM     33  C   UNL     1      -5.424  -0.269  -4.342  0.00  0.00    +0.023 A 
ATOM     34  C   UNL     1      -4.328  -0.299  -3.499  0.00  0.00    +0.083 A 
ATOM     35 CL   UNL     1      -4.542  -0.625  -1.808  0.00  0.00    -0.080 Cl
ENDBRANCH  28  29
ENDBRANCH  27  28
ENDBRANCH  25  27
ENDBRANCH  21  25
ENDBRANCH   1  22
TORSDOF 6
