REMARK  Name = ZINC21093399
REMARK  8 active torsions:
REMARK  status: ('A' for Active; 'I' for Inactive)
REMARK    1  A    between atoms: C_1  and  C_2
REMARK    2  A    between atoms: C_5  and  N_9
REMARK    3  A    between atoms: C_10  and  C_12
REMARK    4  A    between atoms: C_12  and  S_13
REMARK    5  A    between atoms: S_13  and  C_14
REMARK    6  A    between atoms: C_17  and  C_20
REMARK    7  A    between atoms: N_18  and  N_19
REMARK    8  A    between atoms: C_24  and  C_25
REMARK                            x       y       z     vdW  Elec       q    Type
REMARK                         _______ _______ _______ _____ _____    ______ ____
ROOT
ATOM      1  S   UNL     1      -0.024   1.806  -0.011  0.00  0.00    -0.075 S 
ENDROOT
BRANCH   1   2
ATOM      2  C   UNL     1       1.706   2.137  -0.039  0.00  0.00    +0.209 A 
ATOM      3  N   UNL     1       2.670   1.244  -0.058  0.00  0.00    -0.121 NA
ATOM      4  N   UNL     1       3.813   1.830  -0.075  0.00  0.00    -0.127 NA
ATOM      5  C   UNL     1       3.651   3.132  -0.069  0.00  0.00    +0.185 A 
ATOM      6  N   UNL     1       2.297   3.370  -0.052  0.00  0.00    -0.224 N 
BRANCH   5   7
ATOM      7  C   UNL     1       4.723   4.152  -0.085  0.00  0.00    +0.061 A 
ATOM      8  C   UNL     1       4.558   5.611  -0.078  0.00  0.00    +0.053 A 
ATOM      9  C   UNL     1       5.799   6.124  -0.097  0.00  0.00    +0.196 A 
ATOM     10  O   UNL     1       6.688   5.119  -0.113  0.00  0.00    -0.467 OA
ATOM     11  C   UNL     1       6.065   3.932  -0.101  0.00  0.00    +0.112 A 
ATOM     12  C   UNL     1       6.737   2.583  -0.108  0.00  0.00    +0.087 C 
ENDBRANCH   5   7
BRANCH   6  13
ATOM     13  N   UNL     1       1.672   4.585  -0.046  0.00  0.00    -0.295 N 
ATOM     14  H   UNL     1       2.267   5.509  -0.058  0.00  0.00    +0.163 HD
ATOM     15  H   UNL     1       0.573   4.638  -0.029  0.00  0.00    +0.163 HD
ENDBRANCH   6  13
ENDBRANCH   1   2
BRANCH   1  16
ATOM     16  C   UNL     1       0.001  -0.003  -0.016  0.00  0.00    +0.173 C 
BRANCH  16  18
ATOM     17  N   UNL     1      -1.640  -1.854   0.008  0.00  0.00    -0.284 N 
ATOM     18  C   UNL     1      -1.412  -0.526   0.007  0.00  0.00    +0.228 C 
ATOM     19  O   UNL     1      -2.345   0.250   0.024  0.00  0.00    -0.275 OA
ATOM     20  H   UNL     1      -0.798  -2.556  -0.082  0.00  0.00    +0.155 HD
BRANCH  17  25
ATOM     21  C   UNL     1      -6.941  -3.823   0.475  0.00  0.00    +0.044 C 
ATOM     22  C   UNL     1      -5.533  -3.300   0.351  0.00  0.00    -0.049 A 
ATOM     23  C   UNL     1      -5.291  -2.126  -0.338  0.00  0.00    +0.005 A 
ATOM     24  C   UNL     1      -4.002  -1.645  -0.454  0.00  0.00    +0.024 A 
ATOM     25  C   UNL     1      -2.947  -2.340   0.123  0.00  0.00    +0.047 A 
ATOM     26  C   UNL     1      -3.193  -3.522   0.811  0.00  0.00    +0.039 A 
ATOM     27  C   UNL     1      -4.486  -3.996   0.927  0.00  0.00    +0.020 A 
ATOM     28 BR   UNL     1      -1.760  -4.477   1.593  0.00  0.00    -0.048 Br
ENDBRANCH  17  25
ENDBRANCH  16  18
ENDBRANCH   1  16
TORSDOF 6
