REMARK  Name = ZINC39702847
REMARK  6 active torsions:
REMARK  status: ('A' for Active; 'I' for Inactive)
REMARK    1  A    between atoms: C_1  and  C_2
REMARK    2  A    between atoms: C_3  and  C_19
REMARK    3  A    between atoms: N_6  and  C_9
REMARK    4  A    between atoms: N_20  and  C_21
REMARK    5  A    between atoms: C_21  and  C_23
REMARK    6  A    between atoms: C_21  and  C_24
REMARK                            x       y       z     vdW  Elec       q    Type
REMARK                         _______ _______ _______ _____ _____    ______ ____
ROOT
ATOM      1  C   UNL     1      -1.301  -0.051   3.080  0.00  0.00    +0.066 C 
ATOM      2  C   UNL     1      -0.648  -0.708   1.890  0.00  0.00    +0.044 A 
ATOM      3  C   UNL     1      -1.214  -0.857   0.641  0.00  0.00    +0.079 A 
ATOM      4  C   UNL     1      -0.216  -1.549  -0.191  0.00  0.00    +0.278 A 
ATOM      5  O   UNL     1      -0.336  -1.865  -1.360  0.00  0.00    -0.265 OA
ATOM      6  N   UNL     1       0.858  -1.764   0.597  0.00  0.00    -0.220 N 
ATOM      7  N   UNL     1       0.590  -1.242   1.866  0.00  0.00    -0.296 N 
ATOM      8  H   UNL     1       1.202  -1.264   2.618  0.00  0.00    +0.187 HD
ENDROOT
BRANCH   6   9
ATOM      9  C   UNL     1       2.098  -2.428   0.189  0.00  0.00    +0.257 C 
ATOM     10  N   UNL     1       1.830  -3.774  -0.335  0.00  0.00    -0.313 N 
ATOM     11  C   UNL     1       2.170  -4.029  -1.662  0.00  0.00    +0.043 A 
ATOM     12  C   UNL     1       1.989  -5.251  -2.334  0.00  0.00    +0.024 A 
ATOM     13  C   UNL     1       2.359  -5.403  -3.650  0.00  0.00    +0.002 A 
ATOM     14  C   UNL     1       2.922  -4.357  -4.358  0.00  0.00    +0.001 A 
ATOM     15  C   UNL     1       3.112  -3.141  -3.723  0.00  0.00    +0.016 A 
ATOM     16  C   UNL     1       2.741  -2.991  -2.405  0.00  0.00    +0.032 A 
ATOM     17  S   UNL     1       2.831  -1.611  -1.285  0.00  0.00    -0.078 S 
ATOM     18  H   UNL     1       1.432  -4.461   0.223  0.00  0.00    +0.149 HD
ENDBRANCH   6   9
BRANCH   3  19
ATOM     19  C   UNL     1      -2.549  -0.412   0.223  0.00  0.00    +0.120 C 
ATOM     20  N   UNL     1      -3.457  -1.287  -0.086  0.00  0.00    -0.283 NA
BRANCH  20  21
ATOM     21  C   UNL     1      -3.125  -2.714  -0.097  0.00  0.00    +0.132 C 
ATOM     22  C   UNL     1      -3.908  -3.427   1.008  0.00  0.00    +0.037 C 
BRANCH  21  23
ATOM     23  C   UNL     1      -3.492  -3.305  -1.433  0.00  0.00    -0.023 A 
ATOM     24  C   UNL     1      -4.659  -2.917  -2.064  0.00  0.00    +0.006 A 
ATOM     25  C   UNL     1      -4.995  -3.459  -3.291  0.00  0.00    +0.000 A 
ATOM     26  C   UNL     1      -4.164  -4.390  -3.886  0.00  0.00    +0.000 A 
ATOM     27  C   UNL     1      -2.996  -4.777  -3.255  0.00  0.00    +0.000 A 
ATOM     28  C   UNL     1      -2.658  -4.231  -2.031  0.00  0.00    +0.006 A 
ENDBRANCH  21  23
ENDBRANCH  20  21
ENDBRANCH   3  19
TORSDOF 4
