REMARK  Name = ZINC33359351
REMARK  5 active torsions:
REMARK  status: ('A' for Active; 'I' for Inactive)
REMARK    1  A    between atoms: C_1  and  C_2
REMARK    2  A    between atoms: C_3  and  C_13
REMARK    3  A    between atoms: C_4  and  C_7
REMARK    4  A    between atoms: C_19  and  S_21
REMARK    5  A    between atoms: S_21  and  C_22
REMARK                            x       y       z     vdW  Elec       q    Type
REMARK                         _______ _______ _______ _____ _____    ______ ____
ROOT
ATOM      1  C   UNL     1      -0.018   1.503   0.010  0.00  0.00    +0.090 C 
ATOM      2  C   UNL     1       0.002  -0.004   0.002  0.00  0.00    +0.144 A 
ATOM      3  C   UNL     1      -1.090  -0.816   0.003  0.00  0.00    +0.070 A 
ATOM      4  C   UNL     1      -0.593  -2.199  -0.008  0.00  0.00    +0.123 A 
ATOM      5  N   UNL     1       0.715  -2.134  -0.014  0.00  0.00    -0.077 NA
ATOM      6  O   UNL     1       1.097  -0.772  -0.013  0.00  0.00    -0.359 OA
ENDROOT
BRANCH   3   7
ATOM      7  C   UNL     1      -2.506  -0.388   0.012  0.00  0.00    +0.084 A 
ATOM      8  C   UNL     1      -3.048   0.206   1.146  0.00  0.00    +0.098 A 
ATOM      9  C   UNL     1      -4.392   0.599   1.121  0.00  0.00    +0.253 A 
ATOM     10  O   UNL     1      -4.902   1.124   2.098  0.00  0.00    -0.268 OA
ATOM     11  N   UNL     1      -5.112   0.387   0.001  0.00  0.00    -0.302 N 
ATOM     12  H   UNL     1      -6.045   0.654  -0.033  0.00  0.00    +0.171 HD
ATOM     13  C   UNL     1      -4.535  -0.199  -1.085  0.00  0.00    +0.169 A 
ATOM     14  N   UNL     1      -3.270  -0.567  -1.074  0.00  0.00    -0.223 NA
BRANCH  13  15
ATOM     15  S   UNL     1      -5.497  -0.463  -2.537  0.00  0.00    -0.091 S 
ATOM     16  C   UNL     1      -4.341  -1.249  -3.693  0.00  0.00    +0.093 C 
ENDBRANCH  13  15
ENDBRANCH   3   7
BRANCH   4  17
ATOM     17  C   UNL     1      -1.416  -3.433  -0.010  0.00  0.00    +0.004 A 
ATOM     18  C   UNL     1      -2.625  -3.469   0.682  0.00  0.00    +0.010 A 
ATOM     19  C   UNL     1      -3.386  -4.620   0.676  0.00  0.00    +0.001 A 
ATOM     20  C   UNL     1      -2.952  -5.736  -0.015  0.00  0.00    +0.000 A 
ATOM     21  C   UNL     1      -1.753  -5.706  -0.704  0.00  0.00    +0.001 A 
ATOM     22  C   UNL     1      -0.986  -4.559  -0.710  0.00  0.00    +0.010 A 
ENDBRANCH   4  17
TORSDOF 3
