REMARK  Name = ZINC66867165
REMARK  4 active torsions:
REMARK  status: ('A' for Active; 'I' for Inactive)
REMARK    1  A    between atoms: C_4  and  C_7
REMARK    2  A    between atoms: N_12  and  C_15
REMARK    3  A    between atoms: C_15  and  C_16
REMARK    4  A    between atoms: N_21  and  C_22
REMARK                            x       y       z     vdW  Elec       q    Type
REMARK                         _______ _______ _______ _____ _____    ______ ____
ROOT
ATOM      1  C   UNL     1       5.351  -5.256  -2.094  0.00  0.00    +0.181 C 
ENDROOT
BRANCH   1   7
ATOM      2  C   UNL     1       2.859  -0.454  -2.507  0.00  0.00    +0.219 C 
ATOM      3  O   UNL     1       3.225   0.340  -3.348  0.00  0.00    -0.275 OA
ATOM      4  N   UNL     1       3.087  -1.771  -2.680  0.00  0.00    -0.299 N 
ATOM      5  C   UNL     1       2.557  -2.760  -1.730  0.00  0.00    +0.123 C 
ATOM      6  C   UNL     1       3.704  -3.675  -1.288  0.00  0.00    +0.104 C 
ATOM      7  N   UNL     1       4.358  -4.242  -2.475  0.00  0.00    -0.291 NA
ATOM      8  C   UNL     1       4.969  -3.191  -3.300  0.00  0.00    +0.104 C 
ATOM      9  C   UNL     1       3.869  -2.257  -3.828  0.00  0.00    +0.123 C 
BRANCH   2  13
ATOM     10  C   UNL     1       1.769   2.039   0.830  0.00  0.00    +0.000 C 
ATOM     11  C   UNL     1       2.441   0.696   1.121  0.00  0.00    +0.001 C 
ATOM     12  C   UNL     1       3.161   0.203  -0.136  0.00  0.00    +0.013 C 
ATOM     13  C   UNL     1       2.149   0.032  -1.270  0.00  0.00    +0.075 C 
ATOM     14  C   UNL     1       1.478   1.375  -1.561  0.00  0.00    +0.013 C 
ATOM     15  C   UNL     1       0.757   1.868  -0.305  0.00  0.00    +0.001 C 
ENDBRANCH   2  13
ENDBRANCH   1   7
BRANCH   1  16
ATOM     16  C   UNL     1       5.821  -5.986  -3.326  0.00  0.00    +0.234 C 
ATOM     17  O   UNL     1       5.374  -5.690  -4.414  0.00  0.00    -0.274 OA
ATOM     18  N   UNL     1       6.739  -6.967  -3.219  0.00  0.00    -0.239 N 
ATOM     19  C   UNL     1       7.160  -7.619  -4.321  0.00  0.00    +0.306 C 
ATOM     20  O   UNL     1       6.712  -7.323  -5.411  0.00  0.00    -0.252 OA
ATOM     21  N   UNL     1       8.078  -8.600  -4.214  0.00  0.00    -0.296 N 
ATOM     22  H   UNL     1       7.097  -7.203  -2.349  0.00  0.00    +0.159 HD
ATOM     23  H   UNL     1       8.435  -8.837  -3.344  0.00  0.00    +0.151 HD
BRANCH  21  24
ATOM     24  C   UNL     1       8.535  -9.309  -5.411  0.00  0.00    +0.074 C 
ATOM     25  C   UNL     1       7.567 -10.450  -5.729  0.00  0.00    +0.022 C 
ATOM     26  C   UNL     1       8.045 -11.191  -6.980  0.00  0.00    +0.002 C 
ATOM     27  C   UNL     1       9.443 -11.762  -6.732  0.00  0.00    +0.000 C 
ATOM     28  C   UNL     1      10.411 -10.621  -6.414  0.00  0.00    +0.002 C 
ATOM     29  C   UNL     1       9.933  -9.880  -5.163  0.00  0.00    +0.022 C 
ENDBRANCH  21  24
ENDBRANCH   1  16
TORSDOF 4
