REMARK  Name = ZINC02435768
REMARK  8 active torsions:
REMARK  status: ('A' for Active; 'I' for Inactive)
REMARK    1  A    between atoms: C_1  and  C_2
REMARK    2  A    between atoms: N_8  and  C_9
REMARK    3  A    between atoms: C_9  and  C_10
REMARK    4  A    between atoms: C_15  and  O_16
REMARK    5  A    between atoms: O_16  and  C_17
REMARK    6  A    between atoms: C_18  and  C_26
REMARK    7  A    between atoms: C_20  and  C_24
REMARK    8  A    between atoms: C_21  and  N_23
REMARK                            x       y       z     vdW  Elec       q    Type
REMARK                         _______ _______ _______ _____ _____    ______ ____
ROOT
ATOM      1  C   UNL     1       5.522   2.675   1.273  0.00  0.00    +0.064 C 
ATOM      2  C   UNL     1       4.418   1.681   1.016  0.00  0.00    +0.023 A 
ATOM      3  C   UNL     1       3.195   2.122   0.654  0.00  0.00    +0.068 A 
ATOM      4  C   UNL     1       2.159   1.196   0.412  0.00  0.00    +0.141 A 
ATOM      5  C   UNL     1       2.421  -0.150   0.552  0.00  0.00    +0.072 A 
ATOM      6  C   UNL     1       3.706  -0.562   0.930  0.00  0.00    +0.259 A 
ATOM      7  O   UNL     1       3.952  -1.751   1.057  0.00  0.00    -0.267 OA
ATOM      8  N   UNL     1       4.669   0.352   1.152  0.00  0.00    -0.308 N 
ATOM      9  C   UNL     1       1.346  -1.172   0.304  0.00  0.00    +0.103 C 
ATOM     10  C   UNL     1      -0.006  -0.514   0.310  0.00  0.00    +0.098 C 
ATOM     11  C   UNL     1      -0.133   0.829   0.185  0.00  0.00    +0.199 C 
ATOM     12  O   UNL     1       0.934   1.635   0.052  0.00  0.00    -0.441 OA
ENDROOT
BRANCH   9  13
ATOM     13  C   UNL     1       1.577  -1.826  -1.034  0.00  0.00    -0.034 A 
ATOM     14  C   UNL     1       1.565  -1.062  -2.187  0.00  0.00    +0.006 A 
ATOM     15  C   UNL     1       1.783  -1.660  -3.414  0.00  0.00    +0.020 A 
ATOM     16  C   UNL     1       2.002  -3.024  -3.490  0.00  0.00    +0.041 A 
ATOM     17  C   UNL     1       2.008  -3.788  -2.336  0.00  0.00    +0.020 A 
ATOM     18  C   UNL     1       1.796  -3.188  -1.109  0.00  0.00    +0.006 A 
ATOM     19 CL   UNL     1       2.268  -3.777  -5.031  0.00  0.00    -0.084 Cl
ENDBRANCH   9  13
BRANCH  11  20
ATOM     20  N   UNL     1      -1.389   1.382   0.190  0.00  0.00    -0.328 N 
ATOM     21  H   UNL     1      -2.170   0.813   0.282  0.00  0.00    +0.145 HD
ATOM     22  H   UNL     1      -1.497   2.342   0.102  0.00  0.00    +0.145 HD
ENDBRANCH  11  20
BRANCH  10  23
ATOM     23  C   UNL     1      -1.180  -1.321   0.450  0.00  0.00    +0.101 C 
ATOM     24  N   UNL     1      -2.112  -1.961   0.562  0.00  0.00    -0.191 NA
ENDBRANCH  10  23
BRANCH   8  25
ATOM     25  C   UNL     1       6.008  -0.093   1.546  0.00  0.00    +0.164 C 
BRANCH  25  26
ATOM     26  C   UNL     1       6.094  -0.155   3.049  0.00  0.00    +0.014 A 
ATOM     27  C   UNL     1       6.677   0.883   3.751  0.00  0.00    +0.009 A 
ATOM     28  C   UNL     1       6.755   0.827   5.130  0.00  0.00    +0.001 A 
ATOM     29  C   UNL     1       6.252  -0.267   5.811  0.00  0.00    +0.004 A 
ATOM     30  C   UNL     1       5.669  -1.306   5.113  0.00  0.00    +0.046 A 
ATOM     31  C   UNL     1       5.584  -1.251   3.729  0.00  0.00    +0.125 A 
BRANCH  31  32
ATOM     32  O   UNL     1       5.005  -2.270   3.042  0.00  0.00    -0.495 OA
ATOM     33  C   UNL     1       4.502  -3.366   3.808  0.00  0.00    +0.277 C 
ENDBRANCH  31  32
ENDBRANCH  25  26
ENDBRANCH   8  25
TORSDOF 6
