REMARK  Name = ZINC38688260
REMARK  9 active torsions:
REMARK  status: ('A' for Active; 'I' for Inactive)
REMARK    1  A    between atoms: C_1  and  O_2
REMARK    2  A    between atoms: O_2  and  C_3
REMARK    3  A    between atoms: C_6  and  C_10
REMARK    4  A    between atoms: C_10  and  O_12
REMARK    5  A    between atoms: O_12  and  C_13
REMARK    6  A    between atoms: C_20  and  N_35
REMARK    7  A    between atoms: C_21  and  C_33
REMARK    8  A    between atoms: C_22  and  C_24
REMARK    9  A    between atoms: C_27  and  N_30
REMARK                            x       y       z     vdW  Elec       q    Type
REMARK                         _______ _______ _______ _____ _____    ______ ____
ROOT
ATOM      1  C   UNL     1      -6.273  -4.460   0.011  0.00  0.00    +0.135 A 
ATOM      2  C   UNL     1      -7.359  -3.599  -0.056  0.00  0.00    +0.047 A 
ATOM      3  C   UNL     1      -8.643  -4.108  -0.081  0.00  0.00    +0.012 A 
ATOM      4  C   UNL     1      -8.852  -5.475  -0.037  0.00  0.00    +0.008 A 
ATOM      5  C   UNL     1      -7.770  -6.340   0.030  0.00  0.00    +0.138 A 
ATOM      6  C   UNL     1      -6.479  -5.830   0.049  0.00  0.00    +0.093 A 
ATOM      7  O   UNL     1      -7.955  -7.682   0.074  0.00  0.00    -0.441 OA
ATOM      8  C   UNL     1      -9.123  -8.212  -0.328  0.00  0.00    +0.199 C 
ATOM      9  C   UNL     1     -10.253  -7.471  -0.415  0.00  0.00    +0.098 C 
ATOM     10  C   UNL     1     -10.259  -6.010  -0.064  0.00  0.00    +0.098 C 
ENDROOT
BRANCH  10  11
ATOM     11  C   UNL     1     -10.889  -5.826   1.293  0.00  0.00    -0.035 A 
ATOM     12  C   UNL     1     -10.320  -6.418   2.405  0.00  0.00    +0.007 A 
ATOM     13  C   UNL     1     -10.898  -6.249   3.650  0.00  0.00    +0.033 A 
ATOM     14  C   UNL     1     -12.044  -5.487   3.782  0.00  0.00    +0.126 A 
ATOM     15  C   UNL     1     -12.612  -4.894   2.670  0.00  0.00    +0.033 A 
ATOM     16  C   UNL     1     -12.032  -5.060   1.426  0.00  0.00    +0.007 A 
BRANCH  14  17
ATOM     17  N   UNL     1     -12.663  -5.307   5.114  0.00  0.00    +0.056 N 
ATOM     18  O   UNL     1     -12.166  -5.826   6.087  0.00  0.00    -0.126 OA
ATOM     19  O   UNL     1     -13.665  -4.641   5.230  0.00  0.00    -0.126 OA
ENDBRANCH  14  17
ENDBRANCH  10  11
BRANCH   8  20
ATOM     20  N   UNL     1      -9.171  -9.543  -0.660  0.00  0.00    -0.328 N 
ATOM     21  H   UNL     1      -8.370 -10.086  -0.603  0.00  0.00    +0.145 HD
ATOM     22  H   UNL     1     -10.006  -9.940  -0.952  0.00  0.00    +0.145 HD
ENDBRANCH   8  20
BRANCH   9  23
ATOM     23  C   UNL     1     -11.467  -8.093  -0.851  0.00  0.00    +0.101 C 
ATOM     24  N   UNL     1     -12.430  -8.587  -1.197  0.00  0.00    -0.191 NA
ENDBRANCH   9  23
BRANCH   1  25
ATOM     25  O   UNL     1      -5.009  -3.961   0.036  0.00  0.00    -0.422 OA
BRANCH  25  26
ATOM     26  C   UNL     1      -4.285  -4.016  -1.100  0.00  0.00    +0.344 C 
ATOM     27  O   UNL     1      -4.733  -4.580  -2.079  0.00  0.00    -0.245 OA
BRANCH  26  31
ATOM     28  C   UNL     1      -0.444  -2.214  -1.259  0.00  0.00    +0.138 A 
ATOM     29  C   UNL     1      -0.954  -2.860  -2.379  0.00  0.00    +0.048 A 
ATOM     30  C   UNL     1      -2.199  -3.446  -2.332  0.00  0.00    +0.018 A 
ATOM     31  C   UNL     1      -2.951  -3.390  -1.155  0.00  0.00    +0.061 A 
ATOM     32  C   UNL     1      -2.435  -2.740  -0.030  0.00  0.00    +0.038 A 
ATOM     33  C   UNL     1      -1.186  -2.161  -0.084  0.00  0.00    +0.083 A 
ATOM     34 CL   UNL     1      -0.540  -1.359   1.313  0.00  0.00    -0.080 Cl
BRANCH  28  36
ATOM     35  C   UNL     1       1.492  -1.730  -2.549  0.00  0.00    +0.277 C 
ATOM     36  O   UNL     1       0.784  -1.638  -1.311  0.00  0.00    -0.494 OA
ENDBRANCH  28  36
ENDBRANCH  26  31
ENDBRANCH  25  26
ENDBRANCH   1  25
TORSDOF 8
