REMARK  Name = ZINC15632277
REMARK  5 active torsions:
REMARK  status: ('A' for Active; 'I' for Inactive)
REMARK    1  A    between atoms: C_6  and  C_7
REMARK    2  A    between atoms: N_9  and  N_10
REMARK    3  A    between atoms: C_11  and  C_13
REMARK    4  A    between atoms: C_13  and  C_14
REMARK    5  A    between atoms: C_14  and  N_15
REMARK                            x       y       z     vdW  Elec       q    Type
REMARK                         _______ _______ _______ _____ _____    ______ ____
ROOT
ATOM      1  N   UNL     1      -2.446  -2.830   0.011  0.00  0.00    -0.234 N 
ATOM      2  C   UNL     1      -2.425  -4.178   0.004  0.00  0.00    +0.231 C 
ATOM      3  O   UNL     1      -1.365  -4.768  -0.010  0.00  0.00    -0.274 OA
ATOM      4  H   UNL     1      -3.294  -2.359   0.022  0.00  0.00    +0.173 HD
ENDROOT
BRANCH   1   7
ATOM      5  C   UNL     1      -1.266  -0.763   0.011  0.00  0.00    +0.260 C 
ATOM      6  O   UNL     1      -2.328  -0.172   0.024  0.00  0.00    -0.269 OA
ATOM      7  N   UNL     1      -1.244  -2.111   0.003  0.00  0.00    -0.230 N 
ATOM      8  H   UNL     1      -0.397  -2.582  -0.008  0.00  0.00    +0.173 HD
BRANCH   5  14
ATOM      9  C   UNL     1      -0.017   1.392   0.010  0.00  0.00    +0.014 A 
ATOM     10  C   UNL     1       1.169   2.095   0.002  0.00  0.00    +0.021 A 
ATOM     11  C   UNL     1       2.378   1.419  -0.013  0.00  0.00    +0.041 A 
ATOM     12  C   UNL     1       2.403   0.034  -0.021  0.00  0.00    +0.021 A 
ATOM     13  C   UNL     1       1.224  -0.680  -0.014  0.00  0.00    +0.014 A 
ATOM     14  C   UNL     1       0.002  -0.004   0.002  0.00  0.00    +0.038 A 
ATOM     15 CL   UNL     1       3.868   2.310  -0.023  0.00  0.00    -0.084 Cl
ENDBRANCH   5  14
ENDBRANCH   1   7
BRANCH   2  16
ATOM     16  C   UNL     1      -3.718  -4.952   0.012  0.00  0.00    +0.117 C 
BRANCH  16  17
ATOM     17  C   UNL     1      -3.415  -6.452   0.001  0.00  0.00    +0.127 C 
BRANCH  17  18
ATOM     18  N   UNL     1      -4.672  -7.204   0.010  0.00  0.00    -0.224 N 
ATOM     19  C   UNL     1      -5.314  -7.595   1.130  0.00  0.00    +0.247 C 
ATOM     20  O   UNL     1      -4.974  -7.399   2.277  0.00  0.00    -0.273 OA
ATOM     21  C   UNL     1      -6.546  -8.330   0.654  0.00  0.00    +0.113 C 
ATOM     22  C   UNL     1      -7.807  -7.625   1.142  0.00  0.00    +0.035 C 
ATOM     23  C   UNL     1      -9.042  -8.367   0.623  0.00  0.00    +0.003 C 
ATOM     24  C   UNL     1      -9.017  -9.811   1.127  0.00  0.00    +0.000 C 
ATOM     25  C   UNL     1      -7.758 -10.511   0.610  0.00  0.00    +0.003 C 
ATOM     26  C   UNL     1      -6.519  -9.778   1.129  0.00  0.00    +0.035 C 
ATOM     27  N   UNL     1      -6.455  -8.266  -0.811  0.00  0.00    -0.285 N 
ATOM     28  C   UNL     1      -5.328  -7.585  -1.093  0.00  0.00    +0.309 C 
ATOM     29  O   UNL     1      -4.949  -7.344  -2.222  0.00  0.00    -0.252 OA
ATOM     30  H   UNL     1      -7.084  -8.639  -1.448  0.00  0.00    +0.151 HD
ENDBRANCH  17  18
ENDBRANCH  16  17
ENDBRANCH   2  16
TORSDOF 5
