REMARK  Name = ZINC39652984
REMARK  9 active torsions:
REMARK  status: ('A' for Active; 'I' for Inactive)
REMARK    1  A    between atoms: C_1  and  O_2
REMARK    2  A    between atoms: O_2  and  C_3
REMARK    3  A    between atoms: C_5  and  C_11
REMARK    4  A    between atoms: C_7  and  O_9
REMARK    5  A    between atoms: O_9  and  C_10
REMARK    6  A    between atoms: C_11  and  C_12
REMARK    7  A    between atoms: C_12  and  N_13
REMARK    8  A    between atoms: C_14  and  C_16
REMARK    9  A    between atoms: C_27  and  C_29
REMARK                            x       y       z     vdW  Elec       q    Type
REMARK                         _______ _______ _______ _____ _____    ______ ____
ROOT
ATOM      1  C   UNL     1      -3.248  -7.962   2.762  0.00  0.00    +0.100 C 
ATOM      2  C   UNL     1      -4.411  -8.710   2.073  0.00  0.00    +0.121 C 
ATOM      3  N   UNL     1      -4.637  -9.908   2.915  0.00  0.00    -0.296 N 
ATOM      4  C   UNL     1      -4.470  -9.419   4.304  0.00  0.00    +0.115 C 
ATOM      5  C   UNL     1      -3.291  -8.430   4.227  0.00  0.00    -0.004 C 
ATOM      6  C   UNL     1      -3.536  -7.243   5.154  0.00  0.00    -0.010 C 
ATOM      7  C   UNL     1      -3.517  -7.724   6.607  0.00  0.00    -0.082 C 
ATOM      8  N   UNL     1      -2.218  -8.341   6.903  0.00  0.00    +0.379 N 
ATOM      9  C   UNL     1      -2.031  -9.536   6.072  0.00  0.00    -0.082 C 
ATOM     10  C   UNL     1      -1.987  -9.132   4.596  0.00  0.00    -0.010 C 
ATOM     11  C   UNL     1      -4.928 -11.160   2.509  0.00  0.00    +0.247 C 
ATOM     12  O   UNL     1      -4.906 -11.436   1.325  0.00  0.00    -0.270 OA
ATOM     13  H   UNL     1      -1.481  -7.680   6.710  0.00  0.00    -0.086 HD
ATOM     14  H   UNL     1      -2.185  -8.602   7.877  0.00  0.00    -0.086 HD
ENDROOT
BRANCH  11  15
ATOM     15  C   UNL     1      -5.275 -12.197   3.502  0.00  0.00    +0.038 A 
ATOM     16  C   UNL     1      -5.723 -11.829   4.773  0.00  0.00    +0.014 A 
ATOM     17  C   UNL     1      -6.045 -12.801   5.696  0.00  0.00    +0.022 A 
ATOM     18  C   UNL     1      -5.925 -14.141   5.367  0.00  0.00    +0.059 A 
ATOM     19  C   UNL     1      -5.481 -14.513   4.108  0.00  0.00    +0.060 A 
ATOM     20  C   UNL     1      -5.161 -13.549   3.173  0.00  0.00    +0.034 A 
ATOM     21 CL   UNL     1      -5.333 -16.195   3.703  0.00  0.00    -0.082 Cl
ATOM     22 CL   UNL     1      -6.331 -15.358   6.535  0.00  0.00    -0.082 Cl
ENDBRANCH  11  15
BRANCH   1  24
ATOM     23  N   UNL     1      -2.399  -5.642   2.640  0.00  0.00    -0.315 N 
ATOM     24  C   UNL     1      -3.459  -6.473   2.681  0.00  0.00    +0.218 C 
ATOM     25  O   UNL     1      -4.585  -6.021   2.652  0.00  0.00    -0.275 OA
ATOM     26  H   UNL     1      -1.499  -6.003   2.663  0.00  0.00    +0.149 HD
BRANCH  23  27
ATOM     27  C   UNL     1      -2.605  -4.194   2.561  0.00  0.00    +0.109 C 
BRANCH  27  28
ATOM     28  C   UNL     1      -1.248  -3.487   2.528  0.00  0.00    +0.054 C 
BRANCH  28  31
ATOM     29  C   UNL     1      -1.757   0.122   3.532  0.00  0.00    +0.124 A 
ATOM     30  C   UNL     1      -1.562  -1.250   3.605  0.00  0.00    +0.049 A 
ATOM     31  C   UNL     1      -1.460  -1.997   2.446  0.00  0.00    -0.039 A 
ATOM     32  C   UNL     1      -1.552  -1.380   1.214  0.00  0.00    +0.049 A 
ATOM     33  C   UNL     1      -1.747  -0.008   1.136  0.00  0.00    +0.124 A 
ATOM     34  C   UNL     1      -1.855   0.742   2.296  0.00  0.00    +0.091 A 
BRANCH  29  36
ATOM     35  C   UNL     1      -2.062   2.261   4.522  0.00  0.00    +0.277 C 
ATOM     36  O   UNL     1      -1.856   0.855   4.672  0.00  0.00    -0.495 OA
ENDBRANCH  29  36
BRANCH  33  37
ATOM     37  O   UNL     1      -1.837   0.598  -0.077  0.00  0.00    -0.495 OA
ATOM     38  C   UNL     1      -2.038   2.013  -0.082  0.00  0.00    +0.277 C 
ENDBRANCH  33  37
ENDBRANCH  28  31
ENDBRANCH  27  28
ENDBRANCH  23  27
ENDBRANCH   1  24
TORSDOF 7
