REMARK  Name = ZINC20437326
REMARK  7 active torsions:
REMARK  status: ('A' for Active; 'I' for Inactive)
REMARK    1  A    between atoms: C_3  and  C_8
REMARK    2  A    between atoms: C_8  and  O_9
REMARK    3  A    between atoms: O_9  and  C_10
REMARK    4  A    between atoms: C_14  and  C_16
REMARK    5  A    between atoms: C_19  and  C_30
REMARK    6  A    between atoms: C_25  and  N_29
REMARK    7  A    between atoms: C_26  and  C_27
REMARK                            x       y       z     vdW  Elec       q    Type
REMARK                         _______ _______ _______ _____ _____    ______ ____
ROOT
ATOM      1  C   UNL     1       7.415   4.344   4.463  0.00  0.00    +0.102 C 
ATOM      2  C   UNL     1       7.647   5.830   4.553  0.00  0.00    +0.054 A 
ATOM      3  C   UNL     1       6.713   6.869   4.619  0.00  0.00    +0.100 A 
ATOM      4  N   UNL     1       7.376   8.008   4.685  0.00  0.00    -0.171 NA
ATOM      5  N   UNL     1       8.750   7.721   4.663  0.00  0.00    -0.246 N 
ATOM      6  H   UNL     1       9.469   8.371   4.700  0.00  0.00    +0.192 HD
ATOM      7  C   UNL     1       8.895   6.382   4.583  0.00  0.00    +0.223 A 
ATOM      8  O   UNL     1      10.027   5.636   4.537  0.00  0.00    -0.423 OA
ATOM      9  C   UNL     1       9.908   4.307   4.736  0.00  0.00    +0.200 C 
ATOM     10  C   UNL     1       8.728   3.646   4.717  0.00  0.00    +0.098 C 
ENDROOT
BRANCH   3  11
ATOM     11  C   UNL     1       5.237   6.717   4.614  0.00  0.00    +0.003 A 
ATOM     12  C   UNL     1       4.635   5.712   5.369  0.00  0.00    +0.011 A 
ATOM     13  C   UNL     1       3.262   5.575   5.362  0.00  0.00    +0.020 A 
ATOM     14  C   UNL     1       2.482   6.434   4.607  0.00  0.00    +0.041 A 
ATOM     15  C   UNL     1       3.075   7.434   3.855  0.00  0.00    +0.020 A 
ATOM     16  C   UNL     1       4.447   7.583   3.860  0.00  0.00    +0.011 A 
ATOM     17 CL   UNL     1       0.756   6.257   4.601  0.00  0.00    -0.084 Cl
ENDBRANCH   3  11
BRANCH   1  22
ATOM     18  C   UNL     1       5.252   2.984   1.680  0.00  0.00    +0.121 A 
ATOM     19  C   UNL     1       5.987   3.345   0.559  0.00  0.00    +0.045 A 
ATOM     20  C   UNL     1       7.179   4.027   0.707  0.00  0.00    +0.004 A 
ATOM     21  C   UNL     1       7.640   4.350   1.970  0.00  0.00    +0.005 A 
ATOM     22  C   UNL     1       6.910   3.991   3.088  0.00  0.00    -0.031 A 
ATOM     23  C   UNL     1       5.714   3.314   2.945  0.00  0.00    +0.050 A 
BRANCH  18  24
ATOM     24  O   UNL     1       4.079   2.313   1.537  0.00  0.00    -0.487 OA
BRANCH  24  25
ATOM     25  C   UNL     1       3.665   2.006   0.204  0.00  0.00    +0.264 C 
BRANCH  25  28
ATOM     26  C   UNL     1      -0.043   1.291   0.240  0.00  0.00    +0.002 A 
ATOM     27  C   UNL     1       1.162   1.969   0.204  0.00  0.00    +0.007 A 
ATOM     28  C   UNL     1       2.352   1.267   0.243  0.00  0.00    -0.009 A 
ATOM     29  C   UNL     1       2.339  -0.113   0.317  0.00  0.00    +0.027 A 
ATOM     30  C   UNL     1       1.134  -0.792   0.353  0.00  0.00    +0.041 A 
ATOM     31  C   UNL     1      -0.057  -0.089   0.315  0.00  0.00    +0.020 A 
ATOM     32 CL   UNL     1       1.116  -2.526   0.446  0.00  0.00    -0.084 Cl
ENDBRANCH  25  28
ENDBRANCH  24  25
ENDBRANCH  18  24
ENDBRANCH   1  22
BRANCH   9  33
ATOM     33  N   UNL     1      11.050   3.584   4.971  0.00  0.00    -0.328 N 
ATOM     34  H   UNL     1      11.911   4.030   4.990  0.00  0.00    +0.145 HD
ATOM     35  H   UNL     1      10.996   2.626   5.118  0.00  0.00    +0.145 HD
ENDBRANCH   9  33
BRANCH  10  36
ATOM     36  C   UNL     1       8.724   2.233   4.948  0.00  0.00    +0.101 C 
ATOM     37  N   UNL     1       8.721   1.111   5.130  0.00  0.00    -0.191 NA
ENDBRANCH  10  36
TORSDOF 7
