REMARK  Name = ZINC35870323
REMARK  5 active torsions:
REMARK  status: ('A' for Active; 'I' for Inactive)
REMARK    1  A    between atoms: C_1  and  C_2
REMARK    2  A    between atoms: C_2  and  N_3
REMARK    3  A    between atoms: C_4  and  C_6
REMARK    4  A    between atoms: C_11  and  N_29
REMARK    5  A    between atoms: C_22  and  C_24
REMARK                            x       y       z     vdW  Elec       q    Type
REMARK                         _______ _______ _______ _____ _____    ______ ____
ROOT
ATOM      1  C   UNL     1      -2.893  -2.554  -0.404  0.00  0.00    +0.101 C 
ATOM      2  C   UNL     1      -3.387  -2.141  -1.789  0.00  0.00    +0.051 C 
ATOM      3  C   UNL     1      -4.678  -2.864  -2.077  0.00  0.00    -0.023 A 
ATOM      4  C   UNL     1      -5.617  -2.279  -2.907  0.00  0.00    +0.038 A 
ATOM      5  C   UNL     1      -6.808  -2.929  -3.169  0.00  0.00    +0.127 A 
ATOM      6  C   UNL     1      -7.064  -4.164  -2.600  0.00  0.00    +0.034 A 
ATOM      7  C   UNL     1      -6.128  -4.753  -1.774  0.00  0.00    +0.025 A 
ATOM      8  C   UNL     1      -4.924  -4.103  -1.514  0.00  0.00    +0.033 A 
ATOM      9  N   UNL     1      -3.981  -4.740  -0.690  0.00  0.00    -0.323 N 
ATOM     10  C   UNL     1      -2.737  -4.077  -0.338  0.00  0.00    +0.103 C 
ATOM     11  C   UNL     1      -2.227  -4.447   1.045  0.00  0.00    +0.131 C 
ATOM     12  N   UNL     1      -2.551  -5.809   1.423  0.00  0.00    -0.292 N 
ATOM     13  C   UNL     1      -3.841  -6.414   1.136  0.00  0.00    +0.127 C 
ATOM     14  C   UNL     1      -4.298  -6.104  -0.270  0.00  0.00    +0.124 C 
ATOM     15  C   UNL     1      -1.620  -6.541   2.065  0.00  0.00    +0.282 C 
ATOM     16  O   UNL     1      -0.494  -6.103   2.211  0.00  0.00    -0.267 OA
ENDROOT
BRANCH  15  17
ATOM     17  C   UNL     1      -1.964  -7.867   2.589  0.00  0.00    +0.189 A 
ATOM     18  C   UNL     1      -1.091  -8.768   3.129  0.00  0.00    +0.054 A 
ATOM     19  C   UNL     1      -1.846  -9.892   3.497  0.00  0.00    +0.042 A 
ATOM     20  C   UNL     1      -3.131  -9.632   3.170  0.00  0.00    +0.196 A 
ATOM     21  O   UNL     1      -3.199  -8.409   2.628  0.00  0.00    -0.458 OA
ENDBRANCH  15  17
BRANCH   1  23
ATOM     22  N   UNL     1      -1.454  -0.560  -0.135  0.00  0.00    -0.315 N 
ATOM     23  C   UNL     1      -1.560  -1.904  -0.133  0.00  0.00    +0.218 C 
ATOM     24  O   UNL     1      -0.584  -2.589   0.085  0.00  0.00    -0.275 OA
ATOM     25  H   UNL     1      -2.235  -0.012  -0.309  0.00  0.00    +0.149 HD
BRANCH  22  27
ATOM     26  C   UNL     1      -0.312   1.593   0.069  0.00  0.00    +0.024 C 
ATOM     27  C   UNL     1      -0.159   0.072   0.128  0.00  0.00    +0.101 C 
ENDBRANCH  22  27
ENDBRANCH   1  23
BRANCH   5  28
ATOM     28  N   UNL     1      -7.812  -2.303  -4.058  0.00  0.00    +0.056 N 
ATOM     29  O   UNL     1      -7.590  -1.223  -4.554  0.00  0.00    -0.126 OA
ATOM     30  O   UNL     1      -8.855  -2.870  -4.287  0.00  0.00    -0.126 OA
ENDBRANCH   5  28
TORSDOF 4
