REMARK  Name = ZINC20622896
REMARK  7 active torsions:
REMARK  status: ('A' for Active; 'I' for Inactive)
REMARK    1  A    between atoms: C_4  and  C_7
REMARK    2  A    between atoms: C_7  and  N_8
REMARK    3  A    between atoms: C_11  and  C_14
REMARK    4  A    between atoms: C_14  and  C_15
REMARK    5  A    between atoms: C_15  and  N_16
REMARK    6  A    between atoms: N_16  and  C_17
REMARK    7  A    between atoms: N_24  and  C_27
REMARK                            x       y       z     vdW  Elec       q    Type
REMARK                         _______ _______ _______ _____ _____    ______ ____
ROOT
ATOM      1  N   UNL     1       7.301  -3.519   6.416  0.00  0.00    -0.349 N 
ATOM      2  H   UNL     1       6.755  -3.143   7.124  0.00  0.00    +0.146 HD
ENDROOT
BRANCH   1   3
ATOM      3  C   UNL     1       8.439  -4.175   6.718  0.00  0.00    +0.085 C 
ATOM      4  C   UNL     1       8.883  -4.222   8.026  0.00  0.00    +0.113 C 
ATOM      5  C   UNL     1      10.194  -4.800   8.373  0.00  0.00    +0.258 C 
ATOM      6  O   UNL     1      10.924  -5.254   7.512  0.00  0.00    -0.270 OA
ATOM      7  N   UNL     1      10.562  -4.811   9.671  0.00  0.00    -0.235 N 
ATOM      8  C   UNL     1       9.768  -4.314  10.629  0.00  0.00    +0.320 C 
ATOM      9  O   UNL     1      10.159  -4.355  11.779  0.00  0.00    -0.251 OA
ATOM     10  N   UNL     1       8.565  -3.775  10.386  0.00  0.00    -0.190 N 
ATOM     11  C   UNL     1       8.070  -3.691   9.134  0.00  0.00    +0.265 C 
ATOM     12  O   UNL     1       6.979  -3.194   8.926  0.00  0.00    -0.269 OA
ATOM     13  H   UNL     1      11.422  -5.188   9.916  0.00  0.00    +0.159 HD
BRANCH  10  14
ATOM     14  C   UNL     1       7.807  -3.281  11.457  0.00  0.00    +0.047 A 
ATOM     15  C   UNL     1       6.616  -3.901  11.810  0.00  0.00    +0.024 A 
ATOM     16  C   UNL     1       5.871  -3.413  12.866  0.00  0.00    +0.003 A 
ATOM     17  C   UNL     1       6.310  -2.307  13.571  0.00  0.00    +0.020 A 
ATOM     18  C   UNL     1       7.497  -1.687  13.222  0.00  0.00    +0.043 A 
ATOM     19  C   UNL     1       8.249  -2.175  12.169  0.00  0.00    +0.044 A 
ATOM     20 CL   UNL     1       8.044  -0.299  14.109  0.00  0.00    -0.083 Cl
ENDBRANCH  10  14
ENDBRANCH   1   3
BRANCH   1  21
ATOM     21  C   UNL     1       6.888  -3.373   5.018  0.00  0.00    +0.101 C 
BRANCH  21  22
ATOM     22  C   UNL     1       5.573  -2.594   4.952  0.00  0.00    +0.022 C 
BRANCH  22  26
ATOM     23  N   UNL     1       4.372  -0.689   1.318  0.00  0.00    +0.382 N 
ATOM     24  C   UNL     1       3.377  -1.551   1.968  0.00  0.00    -0.078 C 
ATOM     25  C   UNL     1       3.766  -1.772   3.431  0.00  0.00    -0.015 C 
ATOM     26  C   UNL     1       5.143  -2.442   3.492  0.00  0.00    -0.013 C 
ATOM     27  C   UNL     1       6.157  -1.569   2.747  0.00  0.00    -0.015 C 
ATOM     28  C   UNL     1       5.679  -1.355   1.309  0.00  0.00    -0.078 C 
ATOM     29  H   UNL     1       4.442   0.181   1.825  0.00  0.00    -0.081 HD
BRANCH  23  30
ATOM     30  C   UNL     1       3.953  -0.416  -0.063  0.00  0.00    -0.043 C 
BRANCH  30  34
ATOM     31  C   UNL     1       0.320   1.831  -0.036  0.00  0.00    +0.000 A 
ATOM     32  C   UNL     1       1.537   2.485  -0.029  0.00  0.00    +0.000 A 
ATOM     33  C   UNL     1       2.713   1.758  -0.037  0.00  0.00    +0.002 A 
ATOM     34  C   UNL     1       2.671   0.377  -0.053  0.00  0.00    -0.064 A 
ATOM     35  C   UNL     1       1.454  -0.278  -0.059  0.00  0.00    +0.002 A 
ATOM     36  C   UNL     1       0.278   0.449  -0.051  0.00  0.00    +0.000 A 
ENDBRANCH  30  34
ENDBRANCH  23  30
ENDBRANCH  22  26
ENDBRANCH  21  22
ENDBRANCH   1  21
TORSDOF 7
