REMARK  Name = ZINC63695992
REMARK  7 active torsions:
REMARK  status: ('A' for Active; 'I' for Inactive)
REMARK    1  A    between atoms: C_1  and  C_2
REMARK    2  A    between atoms: C_2  and  O_3
REMARK    3  A    between atoms: O_3  and  C_4
REMARK    4  A    between atoms: C_9  and  C_10
REMARK    5  A    between atoms: C_10  and  N_11
REMARK    6  A    between atoms: C_12  and  C_14
REMARK    7  A    between atoms: N_19  and  C_21
REMARK                            x       y       z     vdW  Elec       q    Type
REMARK                         _______ _______ _______ _____ _____    ______ ____
ROOT
ATOM      1  C   UNL     1       0.215   0.353   6.284  0.00  0.00    +0.089 C 
ATOM      2  C   UNL     1      -0.845   1.111   5.481  0.00  0.00    +0.015 C 
ATOM      3  C   UNL     1      -1.912   1.648   6.438  0.00  0.00    +0.016 C 
ATOM      4  C   UNL     1      -1.247   2.546   7.484  0.00  0.00    +0.088 C 
ATOM      5  N   UNL     1      -0.242   1.774   8.226  0.00  0.00    -0.265 NA
ATOM      6  C   UNL     1       0.819   1.287   7.335  0.00  0.00    +0.100 C 
ENDROOT
BRANCH   5   7
ATOM      7  C   UNL     1       0.319   2.564   9.330  0.00  0.00    +0.252 C 
ATOM      8  N   UNL     1      -0.750   2.977  10.248  0.00  0.00    -0.351 N 
ATOM      9  C   UNL     1      -0.771   4.278  10.263  0.00  0.00    +0.061 A 
ATOM     10  C   UNL     1      -1.604   5.256  10.977  0.00  0.00    +0.029 A 
ATOM     11  C   UNL     1      -1.391   6.573  10.791  0.00  0.00    +0.022 A 
ATOM     12  C   UNL     1      -0.392   7.066   9.931  0.00  0.00    +0.043 A 
ATOM     13  C   UNL     1       0.427   6.255   9.229  0.00  0.00    +0.047 A 
ATOM     14  C   UNL     1       0.287   4.799   9.354  0.00  0.00    +0.063 A 
ATOM     15  N   UNL     1       0.921   3.798   8.811  0.00  0.00    -0.351 N 
ATOM     16 CL   UNL     1      -0.206   8.784   9.767  0.00  0.00    -0.083 Cl
ATOM     17  H   UNL     1      -1.334   2.388  10.751  0.00  0.00    +0.163 HD
ATOM     18  H   UNL     1       1.656   3.857   8.181  0.00  0.00    +0.163 HD
ENDBRANCH   5   7
BRANCH   1  20
ATOM     19  N   UNL     1       1.000  -0.967   4.344  0.00  0.00    -0.311 N 
ATOM     20  C   UNL     1       1.301  -0.128   5.356  0.00  0.00    +0.218 C 
ATOM     21  O   UNL     1       2.445   0.239   5.519  0.00  0.00    -0.275 OA
ATOM     22  H   UNL     1       0.085  -1.260   4.213  0.00  0.00    +0.149 HD
BRANCH  19  23
ATOM     23  C   UNL     1       2.055  -1.434   3.442  0.00  0.00    +0.143 C 
BRANCH  23  29
ATOM     24  C   UNL     1       0.802  -1.824   1.306  0.00  0.00    +0.125 A 
ATOM     25  C   UNL     1       0.260  -2.673   0.351  0.00  0.00    +0.046 A 
ATOM     26  C   UNL     1       0.372  -4.041   0.501  0.00  0.00    +0.004 A 
ATOM     27  C   UNL     1       1.024  -4.566   1.602  0.00  0.00    +0.001 A 
ATOM     28  C   UNL     1       1.565  -3.723   2.555  0.00  0.00    +0.009 A 
ATOM     29  C   UNL     1       1.460  -2.353   2.406  0.00  0.00    +0.011 A 
BRANCH  24  30
ATOM     30  O   UNL     1       0.693  -0.477   1.160  0.00  0.00    -0.492 OA
BRANCH  30  32
ATOM     31  C   UNL     1      -0.019   1.526   0.010  0.00  0.00    +0.048 C 
ATOM     32  C   UNL     1       0.002  -0.004   0.002  0.00  0.00    +0.225 C 
ENDBRANCH  30  32
ENDBRANCH  24  30
ENDBRANCH  23  29
ENDBRANCH  19  23
ENDBRANCH   1  20
TORSDOF 6
