REMARK  Name = ZINC36027173
REMARK  6 active torsions:
REMARK  status: ('A' for Active; 'I' for Inactive)
REMARK    1  A    between atoms: C_1  and  C_2
REMARK    2  A    between atoms: N_6  and  C_24
REMARK    3  A    between atoms: N_11  and  S_14
REMARK    4  A    between atoms: S_14  and  C_17
REMARK    5  A    between atoms: C_24  and  C_26
REMARK    6  A    between atoms: C_24  and  C_27
REMARK                            x       y       z     vdW  Elec       q    Type
REMARK                         _______ _______ _______ _____ _____    ______ ____
ROOT
ATOM      1  C   UNL     1      -0.867   1.009  -0.456  0.00  0.00    -0.004 C 
ATOM      2  C   UNL     1      -0.237  -0.306   0.008  0.00  0.00    +0.016 C 
ATOM      3  C   UNL     1       0.371  -1.042  -1.166  0.00  0.00    +0.201 C 
ATOM      4  O   UNL     1      -0.145  -1.193  -2.253  0.00  0.00    -0.277 OA
ATOM      5  N   UNL     1       1.586  -1.501  -0.800  0.00  0.00    -0.307 N 
ATOM      6  C   UNL     1       1.854  -1.122   0.590  0.00  0.00    +0.006 C 
ATOM      7  N   UNL     1       0.900  -0.041   0.922  0.00  0.00    +0.401 N 
ATOM      8  C   UNL     1       3.286  -0.609   0.732  0.00  0.00    +0.023 C 
ATOM      9  C   UNL     1       4.265  -1.724   0.351  0.00  0.00    +0.109 C 
ATOM     10  N   UNL     1       3.959  -2.916   1.153  0.00  0.00    -0.177 NA
ATOM     11  C   UNL     1       2.588  -3.443   1.142  0.00  0.00    +0.109 C 
ATOM     12  C   UNL     1       1.623  -2.314   1.517  0.00  0.00    +0.023 C 
ATOM     13  H   UNL     1       1.306   0.863   0.732  0.00  0.00    -0.082 HD
ATOM     14  H   UNL     1       0.606  -0.106   1.885  0.00  0.00    -0.082 HD
ENDROOT
BRANCH  10  15
ATOM     15  S   UNL     1       5.138  -3.652   2.054  0.00  0.00    +0.061 S 
ATOM     16  O   UNL     1       4.728  -5.001   2.236  0.00  0.00    -0.153 OA
ATOM     17  O   UNL     1       6.380  -3.308   1.456  0.00  0.00    -0.153 OA
BRANCH  15  18
ATOM     18  C   UNL     1       5.121  -2.902   3.648  0.00  0.00    +0.106 A 
ATOM     19  C   UNL     1       5.905  -1.790   3.896  0.00  0.00    +0.031 A 
ATOM     20  C   UNL     1       5.892  -1.200   5.146  0.00  0.00    +0.040 A 
ATOM     21  C   UNL     1       5.094  -1.723   6.149  0.00  0.00    +0.124 A 
ATOM     22  C   UNL     1       4.310  -2.836   5.900  0.00  0.00    +0.040 A 
ATOM     23  C   UNL     1       4.320  -3.421   4.648  0.00  0.00    +0.031 A 
ATOM     24  F   UNL     1       5.082  -1.147   7.372  0.00  0.00    -0.205 F 
ENDBRANCH  15  18
ENDBRANCH  10  15
BRANCH   5  25
ATOM     25  C   UNL     1       2.497  -2.261  -1.660  0.00  0.00    +0.101 C 
ATOM     26  C   UNL     1       1.685  -3.147  -2.606  0.00  0.00    +0.033 C 
BRANCH  25  27
ATOM     27  C   UNL     1       3.341  -1.307  -2.465  0.00  0.00    -0.027 A 
ATOM     28  C   UNL     1       2.822  -0.087  -2.857  0.00  0.00    +0.005 A 
ATOM     29  C   UNL     1       3.596   0.788  -3.595  0.00  0.00    +0.000 A 
ATOM     30  C   UNL     1       4.889   0.444  -3.943  0.00  0.00    +0.000 A 
ATOM     31  C   UNL     1       5.408  -0.776  -3.551  0.00  0.00    +0.000 A 
ATOM     32  C   UNL     1       4.636  -1.649  -2.808  0.00  0.00    +0.005 A 
ENDBRANCH  25  27
ENDBRANCH   5  25
TORSDOF 4
