REMARK  Name = ZINC39886748
REMARK  5 active torsions:
REMARK  status: ('A' for Active; 'I' for Inactive)
REMARK    1  A    between atoms: C_1  and  C_2
REMARK    2  A    between atoms: C_2  and  C_3
REMARK    3  A    between atoms: C_2  and  C_4
REMARK    4  A    between atoms: C_2  and  C_5
REMARK    5  A    between atoms: C_8  and  C_11
REMARK                            x       y       z     vdW  Elec       q    Type
REMARK                         _______ _______ _______ _____ _____    ______ ____
ROOT
ATOM      1  C   UNL     1       2.707  -1.868  -4.752  0.00  0.00    +0.072 C 
ATOM      2  C   UNL     1       3.906  -2.634  -4.334  0.00  0.00    +0.032 A 
ATOM      3  C   UNL     1       5.179  -2.551  -4.809  0.00  0.00    +0.110 A 
ATOM      4  N   UNL     1       6.038  -3.412  -4.257  0.00  0.00    -0.225 NA
ATOM      5  C   UNL     1       5.676  -4.245  -3.307  0.00  0.00    +0.147 A 
ATOM      6  S   UNL     1       6.660  -5.437  -2.461  0.00  0.00    -0.023 SA
ATOM      7  S   UNL     1       4.042  -3.896  -3.093  0.00  0.00    -0.063 S 
ATOM      8  S   UNL     1       5.617  -1.359  -6.046  0.00  0.00    -0.091 S 
ATOM      9  C   UNL     1       4.014  -0.844  -6.740  0.00  0.00    +0.152 C 
ATOM     10  C   UNL     1       2.973  -0.700  -5.625  0.00  0.00    +0.110 C 
ATOM     11  C   UNL     1       3.307   0.619  -5.000  0.00  0.00    +0.235 C 
ATOM     12  O   UNL     1       3.092   0.960  -3.862  0.00  0.00    -0.274 OA
ATOM     13  N   UNL     1       3.899   1.351  -5.974  0.00  0.00    -0.162 N 
ATOM     14  C   UNL     1       4.182   0.646  -7.090  0.00  0.00    +0.244 C 
ATOM     15  O   UNL     1       4.514   1.098  -8.160  0.00  0.00    -0.273 OA
ATOM     16  C   UNL     1       4.173   2.664  -5.843  0.00  0.00    +0.313 C 
ATOM     17  O   UNL     1       3.886   3.245  -4.815  0.00  0.00    -0.252 OA
ATOM     18  N   UNL     1       4.765   3.332  -6.852  0.00  0.00    -0.313 N 
ATOM     19  H   UNL     1       4.994   2.869  -7.673  0.00  0.00    +0.147 HD
ATOM     20  H   UNL     1       4.962   4.278  -6.758  0.00  0.00    +0.147 HD
ENDROOT
BRANCH   1  24
ATOM     21  C   UNL     1       0.707  -0.486  -1.240  0.00  0.00    -0.042 A 
ATOM     22  C   UNL     1       2.084  -0.607  -1.249  0.00  0.00    +0.004 A 
ATOM     23  C   UNL     1       2.731  -1.054  -2.385  0.00  0.00    +0.004 A 
ATOM     24  C   UNL     1       2.001  -1.381  -3.513  0.00  0.00    -0.039 A 
ATOM     25  C   UNL     1       0.624  -1.261  -3.504  0.00  0.00    +0.004 A 
ATOM     26  C   UNL     1      -0.023  -0.818  -2.366  0.00  0.00    +0.004 A 
BRANCH  21  28
ATOM     27  C   UNL     1      -0.968  -1.075   0.491  0.00  0.00    +0.015 C 
ATOM     28  C   UNL     1       0.001   0.002  -0.001  0.00  0.00    -0.013 C 
ATOM     29  C   UNL     1      -0.777   1.278  -0.326  0.00  0.00    +0.015 C 
ATOM     30  C   UNL     1       1.032   0.297   1.091  0.00  0.00    +0.015 C 
ENDBRANCH  21  28
ENDBRANCH   1  24
TORSDOF 2
