REMARK  Name = ZINC39596356
REMARK  7 active torsions:
REMARK  status: ('A' for Active; 'I' for Inactive)
REMARK    1  A    between atoms: C_1  and  C_2
REMARK    2  A    between atoms: C_2  and  C_4
REMARK    3  A    between atoms: C_2  and  O_32
REMARK    4  A    between atoms: C_4  and  N_5
REMARK    5  A    between atoms: C_6  and  C_8
REMARK    6  A    between atoms: C_19  and  C_21
REMARK    7  A    between atoms: O_32  and  C_33
REMARK                            x       y       z     vdW  Elec       q    Type
REMARK                         _______ _______ _______ _____ _____    ______ ____
ROOT
ATOM      1  C   UNL     1       1.472  -3.686   1.340  0.00  0.00    +0.100 C 
ATOM      2  C   UNL     1       2.304  -3.909   0.057  0.00  0.00    +0.121 C 
ATOM      3  N   UNL     1       3.678  -4.179   0.544  0.00  0.00    -0.297 N 
ATOM      4  C   UNL     1       3.483  -5.023   1.747  0.00  0.00    +0.115 C 
ATOM      5  C   UNL     1       2.247  -4.421   2.446  0.00  0.00    -0.004 C 
ATOM      6  C   UNL     1       2.682  -3.439   3.529  0.00  0.00    -0.010 C 
ATOM      7  C   UNL     1       3.400  -4.202   4.646  0.00  0.00    -0.082 C 
ATOM      8  N   UNL     1       2.498  -5.215   5.208  0.00  0.00    +0.379 N 
ATOM      9  C   UNL     1       2.159  -6.208   4.182  0.00  0.00    -0.082 C 
ATOM     10  C   UNL     1       1.388  -5.529   3.046  0.00  0.00    -0.010 C 
ATOM     11  C   UNL     1       4.841  -3.755   0.012  0.00  0.00    +0.260 C 
ATOM     12  O   UNL     1       5.893  -4.064   0.531  0.00  0.00    -0.271 OA
ATOM     13  H   UNL     1       2.952  -5.675   5.982  0.00  0.00    -0.086 HD
ATOM     14  H   UNL     1       1.654  -4.767   5.533  0.00  0.00    -0.086 HD
ENDROOT
BRANCH  11  15
ATOM     15  C   UNL     1       4.835  -2.896  -1.226  0.00  0.00    +0.296 C 
ATOM     16  C   UNL     1       4.288  -3.703  -2.412  0.00  0.00    +0.283 C 
ATOM     17  O   UNL     1       4.309  -2.864  -3.572  0.00  0.00    -0.484 OA
ATOM     18  C   UNL     1       5.450  -2.156  -3.794  0.00  0.00    +0.162 A 
ATOM     19  C   UNL     1       5.685  -1.620  -5.052  0.00  0.00    +0.049 A 
ATOM     20  C   UNL     1       6.837  -0.896  -5.292  0.00  0.00    +0.004 A 
ATOM     21  C   UNL     1       7.759  -0.704  -4.279  0.00  0.00    +0.004 A 
ATOM     22  C   UNL     1       7.532  -1.236  -3.025  0.00  0.00    +0.049 A 
ATOM     23  C   UNL     1       6.378  -1.965  -2.777  0.00  0.00    +0.163 A 
ATOM     24  O   UNL     1       6.171  -2.489  -1.538  0.00  0.00    -0.473 OA
ENDBRANCH  11  15
BRANCH   1  26
ATOM     25  N   UNL     1       0.310  -1.736   2.323  0.00  0.00    -0.312 N 
ATOM     26  C   UNL     1       1.378  -2.215   1.654  0.00  0.00    +0.218 C 
ATOM     27  O   UNL     1       2.262  -1.462   1.306  0.00  0.00    -0.275 OA
ATOM     28  H   UNL     1      -0.398  -2.338   2.602  0.00  0.00    +0.149 HD
BRANCH  25  29
ATOM     29  C   UNL     1       0.218  -0.306   2.629  0.00  0.00    +0.148 C 
BRANCH  29  31
ATOM     30  C   UNL     1      -1.178   1.463   3.707  0.00  0.00    +0.053 C 
ATOM     31  C   UNL     1      -1.082  -0.030   3.388  0.00  0.00    +0.187 C 
BRANCH  31  32
ATOM     32  O   UNL     1      -2.196  -0.417   2.581  0.00  0.00    -0.488 OA
BRANCH  32  33
ATOM     33  C   UNL     1      -3.345  -0.741   3.231  0.00  0.00    +0.121 A 
ATOM     34  C   UNL     1      -4.429  -1.234   2.520  0.00  0.00    +0.048 A 
ATOM     35  C   UNL     1      -5.597  -1.563   3.182  0.00  0.00    +0.042 A 
ATOM     36  C   UNL     1      -5.685  -1.399   4.553  0.00  0.00    +0.124 A 
ATOM     37  C   UNL     1      -4.604  -0.906   5.264  0.00  0.00    +0.042 A 
ATOM     38  C   UNL     1      -3.433  -0.583   4.606  0.00  0.00    +0.048 A 
ATOM     39  F   UNL     1      -6.828  -1.720   5.199  0.00  0.00    -0.205 F 
ENDBRANCH  32  33
ENDBRANCH  31  32
ENDBRANCH  29  31
ENDBRANCH  25  29
ENDBRANCH   1  26
TORSDOF 6
