REMARK  Name = ZINC07449529
REMARK  10 active torsions:
REMARK  status: ('A' for Active; 'I' for Inactive)
REMARK    1  A    between atoms: C_1  and  C_2
REMARK    2  A    between atoms: C_2  and  O_3
REMARK    3  A    between atoms: O_3  and  C_4
REMARK    4  A    between atoms: C_7  and  N_10
REMARK    5  A    between atoms: C_11  and  C_13
REMARK    6  A    between atoms: C_13  and  C_15
REMARK    7  A    between atoms: C_13  and  S_16
REMARK    8  A    between atoms: S_16  and  C_17
REMARK    9  A    between atoms: C_20  and  C_23
REMARK   10  A    between atoms: N_21  and  N_22
REMARK                            x       y       z     vdW  Elec       q    Type
REMARK                         _______ _______ _______ _____ _____    ______ ____
ROOT
ATOM      1  C   UNL     1       0.056  -1.974   3.577  0.00  0.00    +0.137 C 
ATOM      2  C   UNL     1      -1.251  -2.711   3.275  0.00  0.00    +0.029 C 
ENDROOT
BRANCH   1   4
ATOM      3  N   UNL     1       0.734  -2.782   5.814  0.00  0.00    -0.285 N 
ATOM      4  C   UNL     1       0.200  -1.796   5.066  0.00  0.00    +0.230 C 
ATOM      5  O   UNL     1      -0.166  -0.766   5.592  0.00  0.00    -0.274 OA
ATOM      6  H   UNL     1       0.964  -3.631   5.405  0.00  0.00    +0.155 HD
BRANCH   3  10
ATOM      7  C   UNL     1       1.398  -2.183   9.887  0.00  0.00    +0.121 A 
ATOM      8  C   UNL     1       0.294  -1.609   9.273  0.00  0.00    +0.047 A 
ATOM      9  C   UNL     1       0.074  -1.807   7.924  0.00  0.00    +0.027 A 
ATOM     10  C   UNL     1       0.957  -2.580   7.183  0.00  0.00    +0.034 A 
ATOM     11  C   UNL     1       2.058  -3.159   7.800  0.00  0.00    +0.027 A 
ATOM     12  C   UNL     1       2.280  -2.956   9.147  0.00  0.00    +0.047 A 
BRANCH   7  13
ATOM     13  O   UNL     1       1.614  -1.987  11.215  0.00  0.00    -0.492 OA
BRANCH  13  15
ATOM     14  C   UNL     1       2.846  -2.278  13.274  0.00  0.00    +0.048 C 
ATOM     15  C   UNL     1       2.770  -2.608  11.782  0.00  0.00    +0.225 C 
ENDBRANCH  13  15
ENDBRANCH   7  13
ENDBRANCH   3  10
ENDBRANCH   1   4
BRANCH   1  16
ATOM     16  S   UNL     1       0.032  -0.351   2.775  0.00  0.00    -0.072 S 
BRANCH  16  17
ATOM     17  C   UNL     1       0.011  -0.846   1.084  0.00  0.00    +0.209 A 
ATOM     18  N   UNL     1       0.015  -2.080   0.633  0.00  0.00    -0.120 NA
ATOM     19  N   UNL     1      -0.003  -2.082  -0.652  0.00  0.00    -0.123 NA
ATOM     20  C   UNL     1      -0.025  -0.847  -1.102  0.00  0.00    +0.217 A 
ATOM     21  N   UNL     1      -0.010  -0.017  -0.003  0.00  0.00    -0.221 N 
BRANCH  20  22
ATOM     22  C   UNL     1      -0.055  -0.430  -2.513  0.00  0.00    +0.173 A 
ATOM     23  C   UNL     1       0.222  -1.221  -3.587  0.00  0.00    +0.053 A 
ATOM     24  C   UNL     1       0.068  -0.417  -4.733  0.00  0.00    +0.042 A 
ATOM     25  C   UNL     1      -0.282   0.813  -4.309  0.00  0.00    +0.196 A 
ATOM     26  O   UNL     1      -0.356   0.802  -2.967  0.00  0.00    -0.460 OA
ENDBRANCH  20  22
BRANCH  21  27
ATOM     27  N   UNL     1      -0.022   1.349   0.001  0.00  0.00    -0.294 N 
ATOM     28  H   UNL     1       0.917   1.718  -0.011  0.00  0.00    +0.163 HD
ATOM     29  H   UNL     1      -0.562   1.708  -0.772  0.00  0.00    +0.163 HD
ENDBRANCH  21  27
ENDBRANCH  16  17
ENDBRANCH   1  16
TORSDOF 8
