REMARK  Name = ZINC63761237
REMARK  10 active torsions:
REMARK  status: ('A' for Active; 'I' for Inactive)
REMARK    1  A    between atoms: C_1  and  C_2
REMARK    2  A    between atoms: C_2  and  C_3
REMARK    3  A    between atoms: C_3  and  C_5
REMARK    4  A    between atoms: C_3  and  C_6
REMARK    5  A    between atoms: C_9  and  N_12
REMARK    6  A    between atoms: N_12  and  C_13
REMARK    7  A    between atoms: N_16  and  S_17
REMARK    8  A    between atoms: S_17  and  C_20
REMARK    9  A    between atoms: C_23  and  C_27
REMARK   10  A    between atoms: C_24  and  C_26
REMARK                            x       y       z     vdW  Elec       q    Type
REMARK                         _______ _______ _______ _____ _____    ______ ____
ROOT
ATOM      1  C   UNL     1       2.547  -6.773   0.869  0.00  0.00    +0.237 C 
ATOM      2  C   UNL     1       2.530  -7.686  -0.336  0.00  0.00    +0.192 C 
ATOM      3  N   UNL     1       2.245  -7.218  -1.515  0.00  0.00    -0.110 NA
ATOM      4  N   UNL     1       2.814  -8.988  -0.171  0.00  0.00    -0.226 NA
ATOM      5  C   UNL     1       3.106  -9.486   1.012  0.00  0.00    +0.089 A 
ATOM      6  C   UNL     1       3.401 -10.867   1.150  0.00  0.00    +0.030 A 
ATOM      7  C   UNL     1       3.701 -11.383   2.361  0.00  0.00    +0.002 A 
ATOM      8  C   UNL     1       3.738 -10.606   3.531  0.00  0.00    +0.002 A 
ATOM      9  C   UNL     1       3.473  -9.281   3.512  0.00  0.00    +0.027 A 
ATOM     10  C   UNL     1       3.138  -8.641   2.231  0.00  0.00    +0.063 A 
ATOM     11  N   UNL     1       2.877  -7.366   2.175  0.00  0.00    -0.359 N 
ATOM     12  H   UNL     1       2.900  -6.819   2.976  0.00  0.00    +0.162 HD
ENDROOT
BRANCH   3  13
ATOM     13  S   UNL     1       2.231  -8.229  -2.827  0.00  0.00    +0.100 S 
ATOM     14  O   UNL     1       3.570  -8.662  -3.020  0.00  0.00    -0.146 OA
ATOM     15  O   UNL     1       1.157  -9.138  -2.627  0.00  0.00    -0.146 OA
BRANCH  13  16
ATOM     16  C   UNL     1       1.809  -7.253  -4.232  0.00  0.00    +0.113 A 
ATOM     17  C   UNL     1       0.483  -7.094  -4.590  0.00  0.00    +0.029 A 
ATOM     18  C   UNL     1       0.152  -6.329  -5.693  0.00  0.00    +0.005 A 
ATOM     19  C   UNL     1       1.147  -5.722  -6.437  0.00  0.00    -0.047 A 
ATOM     20  C   UNL     1       2.472  -5.880  -6.078  0.00  0.00    -0.046 A 
ATOM     21  C   UNL     1       2.803  -6.642  -4.972  0.00  0.00    +0.032 A 
ATOM     22  C   UNL     1       3.557  -5.218  -6.889  0.00  0.00    +0.044 C 
ATOM     23  C   UNL     1       0.786  -4.888  -7.639  0.00  0.00    +0.044 C 
ENDBRANCH  13  16
ENDBRANCH   3  13
BRANCH   1  24
ATOM     24  N   UNL     1       1.223  -6.155   0.980  0.00  0.00    -0.318 N 
ATOM     25  H   UNL     1       0.427  -6.709   0.973  0.00  0.00    +0.148 HD
BRANCH  24  29
ATOM     26  C   UNL     1       0.879  -2.020   1.325  0.00  0.00    -0.044 A 
ATOM     27  C   UNL     1       2.125  -2.616   1.389  0.00  0.00    +0.006 A 
ATOM     28  C   UNL     1       2.243  -3.987   1.275  0.00  0.00    +0.023 A 
ATOM     29  C   UNL     1       1.108  -4.768   1.096  0.00  0.00    +0.029 A 
ATOM     30  C   UNL     1      -0.142  -4.166   1.032  0.00  0.00    +0.023 A 
ATOM     31  C   UNL     1      -0.254  -2.795   1.153  0.00  0.00    +0.006 A 
BRANCH  26  32
ATOM     32  C   UNL     1       0.754  -0.523   1.450  0.00  0.00    +0.016 C 
ATOM     33  C   UNL     1       1.539   0.149   0.322  0.00  0.00    +0.012 C 
BRANCH  32  35
ATOM     34  C   UNL     1       1.077   1.425   2.980  0.00  0.00    +0.004 C 
ATOM     35  C   UNL     1       1.316  -0.075   2.800  0.00  0.00    +0.004 C 
ENDBRANCH  32  35
ENDBRANCH  26  32
ENDBRANCH  24  29
ENDBRANCH   1  24
TORSDOF 6
