REMARK  Name = ZINC40839891
REMARK  7 active torsions:
REMARK  status: ('A' for Active; 'I' for Inactive)
REMARK    1  A    between atoms: C_1  and  C_2
REMARK    2  A    between atoms: C_5  and  C_34
REMARK    3  A    between atoms: N_13  and  C_21
REMARK    4  A    between atoms: C_21  and  C_22
REMARK    5  A    between atoms: C_22  and  C_23
REMARK    6  A    between atoms: N_25  and  C_26
REMARK    7  A    between atoms: C_31  and  C_32
REMARK                            x       y       z     vdW  Elec       q    Type
REMARK                         _______ _______ _______ _____ _____    ______ ____
ROOT
ATOM      1  C   UNL     1       3.720  -2.678   0.815  0.00  0.00    +0.009 C 
ATOM      2  C   UNL     1       2.965  -1.962  -0.307  0.00  0.00    +0.004 C 
ATOM      3  C   UNL     1       1.514  -2.448  -0.337  0.00  0.00    +0.009 C 
ATOM      4  C   UNL     1       0.854  -2.173   1.016  0.00  0.00    +0.004 C 
ATOM      5  C   UNL     1       0.853  -0.664   1.282  0.00  0.00    +0.110 C 
ATOM      6  N   UNL     1       2.230  -0.163   1.169  0.00  0.00    -0.310 N 
ATOM      7  C   UNL     1       2.989  -0.451  -0.056  0.00  0.00    +0.110 C 
ATOM      8  C   UNL     1       2.801   0.566   2.197  0.00  0.00    +0.188 A 
ATOM      9  C   UNL     1       1.979   0.986   3.348  0.00  0.00    +0.292 A 
ATOM     10  O   UNL     1       0.798   0.695   3.401  0.00  0.00    -0.264 OA
ATOM     11  N   UNL     1       2.555   1.697   4.342  0.00  0.00    -0.303 N 
ATOM     12  C   UNL     1       3.899   2.010   4.252  0.00  0.00    +0.070 A 
ATOM     13  C   UNL     1       4.516   2.741   5.262  0.00  0.00    +0.028 A 
ATOM     14  C   UNL     1       5.856   3.050   5.166  0.00  0.00    +0.002 A 
ATOM     15  C   UNL     1       6.596   2.636   4.067  0.00  0.00    +0.002 A 
ATOM     16  C   UNL     1       6.010   1.919   3.064  0.00  0.00    +0.030 A 
ATOM     17  C   UNL     1       4.648   1.592   3.139  0.00  0.00    +0.090 A 
ATOM     18  N   UNL     1       4.071   0.877   2.151  0.00  0.00    -0.225 NA
ATOM     19  C   UNL     1      -0.586  -2.689   0.996  0.00  0.00    +0.009 C 
ENDROOT
BRANCH  11  20
ATOM     20  C   UNL     1       1.766   2.130   5.498  0.00  0.00    +0.135 C 
BRANCH  20  21
ATOM     21  C   UNL     1       1.823   1.055   6.586  0.00  0.00    +0.118 C 
BRANCH  21  22
ATOM     22  C   UNL     1       1.012   1.500   7.775  0.00  0.00    +0.219 C 
ATOM     23  O   UNL     1       0.445   2.572   7.755  0.00  0.00    -0.275 OA
ATOM     24  N   UNL     1       0.918   0.708   8.861  0.00  0.00    -0.284 N 
ATOM     25  H   UNL     1       1.416  -0.123   8.900  0.00  0.00    +0.155 HD
BRANCH  24  26
ATOM     26  C   UNL     1       0.103   1.083   9.929  0.00  0.00    +0.051 A 
ATOM     27  C   UNL     1      -0.173   2.424  10.158  0.00  0.00    +0.024 A 
ATOM     28  C   UNL     1      -0.980   2.793  11.216  0.00  0.00    +0.002 A 
ATOM     29  C   UNL     1      -1.519   1.832  12.055  0.00  0.00    +0.001 A 
ATOM     30  C   UNL     1      -1.255   0.495  11.844  0.00  0.00    +0.021 A 
ATOM     31  C   UNL     1      -0.445   0.106  10.774  0.00  0.00    +0.073 A 
BRANCH  31  32
ATOM     32  C   UNL     1      -0.172  -1.280  10.544  0.00  0.00    +0.101 C 
ATOM     33  N   UNL     1       0.044  -2.381  10.362  0.00  0.00    -0.191 NA
ENDBRANCH  31  32
ENDBRANCH  24  26
ENDBRANCH  21  22
ENDBRANCH  20  21
ENDBRANCH  11  20
TORSDOF 5
