REMARK  Name = ZINC06865157
REMARK  7 active torsions:
REMARK  status: ('A' for Active; 'I' for Inactive)
REMARK    1  A    between atoms: C_1  and  C_2
REMARK    2  A    between atoms: C_5  and  N_11
REMARK    3  A    between atoms: C_6  and  N_8
REMARK    4  A    between atoms: C_12  and  C_14
REMARK    5  A    between atoms: C_14  and  C_16
REMARK    6  A    between atoms: C_14  and  N_22
REMARK    7  A    between atoms: N_22  and  C_23
REMARK                            x       y       z     vdW  Elec       q    Type
REMARK                         _______ _______ _______ _____ _____    ______ ____
ROOT
ATOM      1  C   UNL     1      -0.270  -6.324  -1.274  0.00  0.00    +0.048 C 
ENDROOT
BRANCH   1   2
ATOM      2  C   UNL     1       1.035  -6.591  -0.569  0.00  0.00    -0.053 A 
ATOM      3  C   UNL     1       2.232  -6.388  -1.230  0.00  0.00    +0.002 A 
ATOM      4  C   UNL     1       3.429  -6.633  -0.583  0.00  0.00    +0.000 A 
ATOM      5  C   UNL     1       3.429  -7.082   0.725  0.00  0.00    +0.000 A 
ATOM      6  C   UNL     1       2.232  -7.284   1.386  0.00  0.00    +0.000 A 
ATOM      7  C   UNL     1       1.036  -7.035   0.741  0.00  0.00    +0.002 A 
ENDBRANCH   1   2
BRANCH   1   9
ATOM      8  N   UNL     1      -0.675  -4.189  -0.091  0.00  0.00    -0.285 N 
ATOM      9  C   UNL     1      -0.552  -4.844  -1.263  0.00  0.00    +0.208 C 
ATOM     10  O   UNL     1      -0.669  -4.242  -2.309  0.00  0.00    -0.277 OA
ATOM     11  H   UNL     1      -0.517  -4.656   0.744  0.00  0.00    +0.155 HD
BRANCH   8  16
ATOM     12  C   UNL     1      -2.116   1.298  -0.045  0.00  0.00    +0.044 C 
ATOM     13  C   UNL     1      -1.733  -0.160  -0.058  0.00  0.00    -0.048 A 
ATOM     14  C   UNL     1      -0.924  -0.652  -1.065  0.00  0.00    +0.005 A 
ATOM     15  C   UNL     1      -0.571  -1.988  -1.079  0.00  0.00    +0.026 A 
ATOM     16  C   UNL     1      -1.030  -2.836  -0.080  0.00  0.00    +0.064 A 
ATOM     17  C   UNL     1      -1.842  -2.338   0.930  0.00  0.00    +0.148 A 
ATOM     18  C   UNL     1      -2.187  -1.001   0.941  0.00  0.00    +0.038 A 
BRANCH  17  19
ATOM     19  N   UNL     1      -2.333  -3.239   1.997  0.00  0.00    +0.058 N 
ATOM     20  O   UNL     1      -3.110  -2.826   2.827  0.00  0.00    -0.126 OA
ATOM     21  O   UNL     1      -1.958  -4.388   2.039  0.00  0.00    -0.126 OA
ENDBRANCH  17  19
ENDBRANCH   8  16
ENDBRANCH   1   9
BRANCH   1  22
ATOM     22  N   UNL     1      -0.182  -6.796  -2.662  0.00  0.00    +0.394 N 
ATOM     23  H   UNL     1      -0.942  -6.407  -3.198  0.00  0.00    -0.083 HD
ATOM     24  H   UNL     1       0.697  -6.503  -3.062  0.00  0.00    -0.083 HD
BRANCH  22  25
ATOM     25  C   UNL     1      -0.266  -8.263  -2.686  0.00  0.00    -0.039 C 
ATOM     26  C   UNL     1       0.969  -8.850  -2.006  0.00  0.00    -0.011 C 
ATOM     27  C   UNL     1       0.972 -10.366  -2.233  0.00  0.00    +0.003 C 
ATOM     28  C   UNL     1       1.263 -10.632  -3.708  0.00  0.00    +0.035 C 
ATOM     29  C   UNL     1       0.343  -9.821  -4.584  0.00  0.00    -0.046 A 
ATOM     30  C   UNL     1      -0.355  -8.731  -4.115  0.00  0.00    -0.058 A 
ATOM     31  C   UNL     1      -1.182  -8.023  -4.977  0.00  0.00    +0.002 A 
ATOM     32  C   UNL     1      -1.311  -8.405  -6.297  0.00  0.00    +0.000 A 
ATOM     33  C   UNL     1      -0.612  -9.501  -6.766  0.00  0.00    +0.000 A 
ATOM     34  C   UNL     1       0.209 -10.205  -5.912  0.00  0.00    +0.004 A 
ENDBRANCH  22  25
ENDBRANCH   1  22
TORSDOF 6
