REMARK  Name = ZINC24982506
REMARK  9 active torsions:
REMARK  status: ('A' for Active; 'I' for Inactive)
REMARK    1  A    between atoms: C_1  and  C_2
REMARK    2  A    between atoms: C_2  and  C_3
REMARK    3  A    between atoms: C_3  and  C_4
REMARK    4  A    between atoms: C_4  and  N_5
REMARK    5  A    between atoms: C_11  and  S_12
REMARK    6  A    between atoms: S_12  and  C_13
REMARK    7  A    between atoms: C_13  and  C_15
REMARK    8  A    between atoms: C_13  and  C_16
REMARK    9  A    between atoms: C_21  and  C_24
REMARK                            x       y       z     vdW  Elec       q    Type
REMARK                         _______ _______ _______ _____ _____    ______ ____
ROOT
ATOM      1  C   UNL     1       6.630  -3.033  -1.051  0.00  0.00    +0.232 C 
ATOM      2  O   UNL     1       6.492  -2.406  -0.022  0.00  0.00    -0.274 OA
ATOM      3  N   UNL     1       7.765  -3.726  -1.271  0.00  0.00    -0.264 N 
ATOM      4  C   UNL     1       8.777  -3.721  -0.320  0.00  0.00    +0.165 A 
ATOM      5  N   UNL     1       9.952  -4.323  -0.347  0.00  0.00    -0.225 NA
ATOM      6  C   UNL     1      10.806  -4.209   0.658  0.00  0.00    +0.080 A 
ATOM      7  C   UNL     1      10.466  -3.455   1.746  0.00  0.00    +0.076 A 
ATOM      8  S   UNL     1       8.838  -2.893   1.263  0.00  0.00    -0.060 S 
ATOM      9  H   UNL     1       7.875  -4.228  -2.094  0.00  0.00    +0.157 HD
ENDROOT
BRANCH   6  10
ATOM     10  C   UNL     1      12.121  -4.895   0.605  0.00  0.00    +0.004 A 
ATOM     11  C   UNL     1      13.014  -4.778   1.669  0.00  0.00    +0.013 A 
ATOM     12  C   UNL     1      14.236  -5.417   1.616  0.00  0.00    +0.042 A 
ATOM     13  C   UNL     1      14.576  -6.175   0.508  0.00  0.00    +0.158 A 
ATOM     14  C   UNL     1      13.691  -6.295  -0.553  0.00  0.00    +0.159 A 
ATOM     15  C   UNL     1      12.464  -5.663  -0.506  0.00  0.00    +0.051 A 
ATOM     16  F   UNL     1      14.028  -7.035  -1.633  0.00  0.00    -0.202 F 
ATOM     17  F   UNL     1      15.774  -6.798   0.461  0.00  0.00    -0.202 F 
ENDBRANCH   6  10
BRANCH   1  18
ATOM     18  C   UNL     1       5.532  -3.038  -2.083  0.00  0.00    +0.137 C 
ATOM     19  C   UNL     1       5.874  -2.048  -3.197  0.00  0.00    +0.029 C 
BRANCH  18  20
ATOM     20  S   UNL     1       3.967  -2.554  -1.303  0.00  0.00    -0.073 S 
BRANCH  20  27
ATOM     21  N   UNL     1       1.425  -2.500  -2.470  0.00  0.00    -0.271 N 
ATOM     22  C   UNL     1       0.843  -2.759  -3.659  0.00  0.00    +0.345 A 
ATOM     23  O   UNL     1      -0.341  -2.642  -3.922  0.00  0.00    -0.245 OA
ATOM     24  N   UNL     1       1.811  -3.170  -4.504  0.00  0.00    -0.226 N 
ATOM     25  H   UNL     1       1.691  -3.427  -5.432  0.00  0.00    +0.194 HD
ATOM     26  N   UNL     1       3.020  -3.158  -3.796  0.00  0.00    -0.145 NA
ATOM     27  C   UNL     1       2.774  -2.749  -2.585  0.00  0.00    +0.193 A 
BRANCH  21  28
ATOM     28  C   UNL     1       0.739  -2.027  -1.265  0.00  0.00    +0.129 C 
BRANCH  28  29
ATOM     29  C   UNL     1       0.718  -0.497  -1.257  0.00  0.00    +0.021 C 
BRANCH  29  31
ATOM     30  C   UNL     1      -0.019   1.526   0.010  0.00  0.00    +0.004 C 
ATOM     31  C   UNL     1       0.002  -0.004   0.002  0.00  0.00    -0.002 C 
ENDBRANCH  29  31
ENDBRANCH  28  29
ENDBRANCH  21  28
ENDBRANCH  20  27
ENDBRANCH  18  20
ENDBRANCH   1  18
TORSDOF 7
