REMARK  Name = ZINC21223726
REMARK  8 active torsions:
REMARK  status: ('A' for Active; 'I' for Inactive)
REMARK    1  A    between atoms: C_1  and  C_2
REMARK    2  A    between atoms: C_2  and  O_3
REMARK    3  A    between atoms: O_3  and  C_4
REMARK    4  A    between atoms: C_8  and  C_10
REMARK    5  A    between atoms: C_15  and  C_20
REMARK    6  A    between atoms: C_23  and  N_26
REMARK    7  A    between atoms: N_26  and  C_27
REMARK    8  A    between atoms: N_26  and  C_28
REMARK                            x       y       z     vdW  Elec       q    Type
REMARK                         _______ _______ _______ _____ _____    ______ ____
ROOT
ATOM      1  C   UNL     1       1.838  -2.717  -1.236  0.00  0.00    +0.136 C 
ATOM      2  C   UNL     1       3.290  -2.347  -1.420  0.00  0.00    +0.036 C 
ATOM      3  C   UNL     1       3.955  -1.398  -0.740  0.00  0.00    +0.017 C 
ATOM      4  C   UNL     1       5.423  -1.130  -1.024  0.00  0.00    +0.059 C 
ATOM      5  C   UNL     1       5.731  -1.406  -2.494  0.00  0.00    +0.032 C 
ATOM      6  C   UNL     1       5.389  -2.875  -2.774  0.00  0.00    +0.088 C 
ATOM      7  C   UNL     1       3.951  -3.104  -2.416  0.00  0.00    +0.163 C 
ATOM      8  O   UNL     1       3.332  -3.971  -3.002  0.00  0.00    -0.292 OA
ATOM      9  N   UNL     1       3.416  -0.624   0.237  0.00  0.00    -0.316 N 
ATOM     10  C   UNL     1       2.191   0.027   0.151  0.00  0.00    +0.052 A 
ATOM     11  C   UNL     1       2.081   1.406   0.186  0.00  0.00    +0.025 A 
ATOM     12  C   UNL     1       0.825   1.987   0.176  0.00  0.00    +0.002 A 
ATOM     13  C   UNL     1      -0.309   1.197   0.124  0.00  0.00    +0.002 A 
ATOM     14  C   UNL     1      -0.200  -0.182   0.062  0.00  0.00    +0.025 A 
ATOM     15  C   UNL     1       1.057  -0.766   0.068  0.00  0.00    +0.049 A 
ATOM     16  N   UNL     1       1.217  -2.145  -0.059  0.00  0.00    -0.331 N 
ATOM     17  H   UNL     1       3.958  -0.476   1.183  0.00  0.00    +0.152 HD
ATOM     18  H   UNL     1       0.865  -2.801   0.750  0.00  0.00    +0.147 HD
ENDROOT
BRANCH   1  23
ATOM     19  C   UNL     1       0.260  -0.485  -3.845  0.00  0.00    +0.121 A 
ATOM     20  C   UNL     1      -0.332  -1.419  -4.683  0.00  0.00    +0.045 A 
ATOM     21  C   UNL     1      -0.219  -2.767  -4.402  0.00  0.00    +0.004 A 
ATOM     22  C   UNL     1       0.487  -3.186  -3.290  0.00  0.00    +0.006 A 
ATOM     23  C   UNL     1       1.073  -2.257  -2.450  0.00  0.00    -0.019 A 
ATOM     24  C   UNL     1       0.963  -0.908  -2.727  0.00  0.00    +0.051 A 
BRANCH  19  25
ATOM     25  O   UNL     1       0.150   0.842  -4.119  0.00  0.00    -0.492 OA
BRANCH  25  27
ATOM     26  C   UNL     1      -0.602   2.727  -5.430  0.00  0.00    +0.048 C 
ATOM     27  C   UNL     1      -0.589   1.204  -5.287  0.00  0.00    +0.225 C 
ENDBRANCH  25  27
ENDBRANCH  19  25
ENDBRANCH   1  23
BRANCH   5  28
ATOM     28  C   UNL     1       7.193  -1.161  -2.765  0.00  0.00    -0.043 A 
ATOM     29  C   UNL     1       8.152  -1.884  -2.082  0.00  0.00    +0.006 A 
ATOM     30  C   UNL     1       9.493  -1.665  -2.332  0.00  0.00    +0.023 A 
ATOM     31  C   UNL     1       9.877  -0.709  -3.263  0.00  0.00    +0.029 A 
ATOM     32  C   UNL     1       8.910   0.020  -3.945  0.00  0.00    +0.023 A 
ATOM     33  C   UNL     1       7.572  -0.208  -3.694  0.00  0.00    +0.006 A 
BRANCH  31  34
ATOM     34  N   UNL     1      11.232  -0.481  -3.515  0.00  0.00    -0.336 N 
ATOM     35  C   UNL     1      11.635   0.527  -4.498  0.00  0.00    +0.129 C 
ATOM     36  C   UNL     1      12.250  -1.251  -2.796  0.00  0.00    +0.129 C 
ENDBRANCH  31  34
ENDBRANCH   5  28
TORSDOF 5
