REMARK  Name = ZINC10075811
REMARK  6 active torsions:
REMARK  status: ('A' for Active; 'I' for Inactive)
REMARK    1  A    between atoms: C_1  and  C_2
REMARK    2  A    between atoms: C_11  and  C_13
REMARK    3  A    between atoms: C_16  and  C_19
REMARK    4  A    between atoms: C_19  and  C_20
REMARK    5  A    between atoms: C_19  and  C_21
REMARK    6  A    between atoms: N_22  and  C_23
REMARK                            x       y       z     vdW  Elec       q    Type
REMARK                         _______ _______ _______ _____ _____    ______ ____
ROOT
ATOM      1  C   UNL     1      -6.649   1.057  -3.107  0.00  0.00    +0.066 C 
ATOM      2  C   UNL     1      -5.677   1.816  -2.242  0.00  0.00    +0.047 A 
ATOM      3  C   UNL     1      -5.753   1.715  -0.883  0.00  0.00    +0.093 A 
ATOM      4  C   UNL     1      -4.831   2.428  -0.093  0.00  0.00    +0.257 A 
ATOM      5  O   UNL     1      -4.875   2.368   1.125  0.00  0.00    -0.267 OA
ATOM      6  N   UNL     1      -3.901   3.176  -0.712  0.00  0.00    -0.255 N 
ATOM      7  C   UNL     1      -3.885   3.253  -2.076  0.00  0.00    +0.207 A 
ATOM      8  N   UNL     1      -4.745   2.585  -2.807  0.00  0.00    -0.221 NA
ATOM      9  N   UNL     1      -2.927   4.069  -2.647  0.00  0.00    -0.259 N 
ATOM     10  C   UNL     1      -2.620   5.233  -1.949  0.00  0.00    +0.166 C 
ATOM     11  C   UNL     1      -2.886   3.917   0.043  0.00  0.00    +0.220 C 
ATOM     12  N   UNL     1      -2.334   6.402  -2.617  0.00  0.00    -0.287 N 
ATOM     13  H   UNL     1      -2.494   3.843  -3.485  0.00  0.00    +0.158 HD
ATOM     14  H   UNL     1      -2.255   6.401  -3.584  0.00  0.00    +0.155 HD
ATOM     15  N   UNL     1      -2.597   5.245  -0.607  0.00  0.00    -0.336 N 
ATOM     16  H   UNL     1      -2.398   6.094  -0.065  0.00  0.00    +0.164 HD
ENDROOT
BRANCH  12  17
ATOM     17  C   UNL     1      -2.156   7.591  -1.901  0.00  0.00    +0.053 A 
ATOM     18  C   UNL     1      -2.645   7.703  -0.606  0.00  0.00    +0.025 A 
ATOM     19  C   UNL     1      -2.468   8.877   0.099  0.00  0.00    +0.003 A 
ATOM     20  C   UNL     1      -1.806   9.943  -0.483  0.00  0.00    +0.021 A 
ATOM     21  C   UNL     1      -1.317   9.835  -1.773  0.00  0.00    +0.061 A 
ATOM     22  C   UNL     1      -1.486   8.660  -2.482  0.00  0.00    +0.080 A 
ATOM     23 CL   UNL     1      -0.867   8.523  -4.098  0.00  0.00    -0.080 Cl
ATOM     24 CL   UNL     1      -0.486  11.175  -2.500  0.00  0.00    -0.082 Cl
ENDBRANCH  12  17
BRANCH  11  25
ATOM     25  C   UNL     1      -1.621   3.102   0.120  0.00  0.00    -0.005 A 
ATOM     26  C   UNL     1      -1.687   1.721   0.119  0.00  0.00    +0.008 A 
ATOM     27  C   UNL     1      -0.526   0.973   0.195  0.00  0.00    +0.004 A 
ATOM     28  C   UNL     1       0.701   1.606   0.262  0.00  0.00    -0.045 A 
ATOM     29  C   UNL     1       0.767   2.987   0.259  0.00  0.00    +0.004 A 
ATOM     30  C   UNL     1      -0.394   3.735   0.188  0.00  0.00    +0.008 A 
BRANCH  28  31
ATOM     31  C   UNL     1       1.966   0.791   0.339  0.00  0.00    +0.013 C 
ATOM     32  C   UNL     1       2.855   1.116  -0.863  0.00  0.00    +0.012 C 
ATOM     33  C   UNL     1       2.712   1.129   1.632  0.00  0.00    +0.012 C 
ENDBRANCH  28  31
ENDBRANCH  11  25
TORSDOF 3
