REMARK  Name = ZINC00544140
REMARK  5 active torsions:
REMARK  status: ('A' for Active; 'I' for Inactive)
REMARK    1  A    between atoms: C_1  and  C_2
REMARK    2  A    between atoms: C_2  and  C_3
REMARK    3  A    between atoms: C_2  and  C_4
REMARK    4  A    between atoms: C_7  and  C_10
REMARK    5  A    between atoms: N_11  and  N_12
REMARK                            x       y       z     vdW  Elec       q    Type
REMARK                         _______ _______ _______ _____ _____    ______ ____
ROOT
ATOM      1  N   UNL     1      -3.436   2.421   0.378  0.00  0.00    -0.184 N 
ATOM      2  C   UNL     1      -3.047   2.895   1.591  0.00  0.00    +0.227 A 
ATOM      3  N   UNL     1      -1.798   3.150   1.861  0.00  0.00    -0.233 NA
ATOM      4  C   UNL     1      -0.834   2.954   0.946  0.00  0.00    +0.103 A 
ATOM      5  C   UNL     1       0.624   3.142   0.950  0.00  0.00    +0.029 A 
ATOM      6  C   UNL     1       1.532   3.593   1.909  0.00  0.00    +0.050 A 
ATOM      7  C   UNL     1       2.874   3.657   1.603  0.00  0.00    +0.124 A 
ATOM      8  C   UNL     1       3.325   3.274   0.346  0.00  0.00    +0.040 A 
ATOM      9  C   UNL     1       2.440   2.827  -0.610  0.00  0.00    +0.029 A 
ATOM     10  C   UNL     1       1.079   2.754  -0.321  0.00  0.00    +0.049 A 
ATOM     11  N   UNL     1      -0.011   2.354  -1.067  0.00  0.00    -0.349 N 
ATOM     12  H   UNL     1       0.028   2.038  -1.983  0.00  0.00    +0.166 HD
ATOM     13  C   UNL     1      -1.167   2.474  -0.319  0.00  0.00    +0.133 A 
ATOM     14  C   UNL     1      -2.525   2.198  -0.594  0.00  0.00    +0.298 A 
ATOM     15  O   UNL     1      -2.867   1.773  -1.685  0.00  0.00    -0.263 OA
ATOM     16  F   UNL     1       3.755   4.094   2.530  0.00  0.00    -0.205 F 
ENDROOT
BRANCH   1  18
ATOM     17  C   UNL     1      -5.654   3.132   0.170  0.00  0.00    +0.141 C 
ATOM     18  N   UNL     1      -4.791   2.162   0.134  0.00  0.00    -0.170 NA
BRANCH  17  22
ATOM     19  C   UNL     1      -4.320   7.161   0.181  0.00  0.00    -0.045 A 
ATOM     20  C   UNL     1      -5.657   6.877   0.399  0.00  0.00    +0.004 A 
ATOM     21  C   UNL     1      -6.098   5.570   0.397  0.00  0.00    +0.010 A 
ATOM     22  C   UNL     1      -5.191   4.531   0.173  0.00  0.00    -0.005 A 
ATOM     23  C   UNL     1      -3.842   4.825  -0.042  0.00  0.00    +0.010 A 
ATOM     24  C   UNL     1      -3.416   6.137  -0.042  0.00  0.00    +0.004 A 
BRANCH  19  26
ATOM     25  C   UNL     1      -2.796   8.777   1.281  0.00  0.00    +0.012 C 
ATOM     26  C   UNL     1      -3.846   8.591   0.185  0.00  0.00    +0.013 C 
ATOM     27  C   UNL     1      -3.230   8.928  -1.175  0.00  0.00    +0.012 C 
ENDBRANCH  19  26
ENDBRANCH  17  22
ENDBRANCH   1  18
TORSDOF 3
