REMARK  Name = ZINC49453167
REMARK  3 active torsions:
REMARK  status: ('A' for Active; 'I' for Inactive)
REMARK    1  A    between atoms: C_1  and  C_2
REMARK    2  A    between atoms: N_10  and  C_11
REMARK    3  A    between atoms: C_16  and  C_19
REMARK                            x       y       z     vdW  Elec       q    Type
REMARK                         _______ _______ _______ _____ _____    ______ ____
ROOT
ATOM      1  C   UNL     1       0.076   1.503   0.007  0.00  0.00    +0.044 C 
ATOM      2  C   UNL     1       0.051  -0.004   0.001  0.00  0.00    -0.048 A 
ATOM      3  C   UNL     1      -0.022  -0.686  -1.205  0.00  0.00    +0.005 A 
ATOM      4  C   UNL     1      -0.045  -2.065  -1.228  0.00  0.00    +0.028 A 
ATOM      5  C   UNL     1       0.004  -2.776  -0.038  0.00  0.00    +0.068 A 
ATOM      6  C   UNL     1       0.078  -2.091   1.185  0.00  0.00    +0.066 A 
ATOM      7  C   UNL     1       0.106  -0.694   1.191  0.00  0.00    +0.031 A 
ATOM      8  N   UNL     1       0.113  -3.029   2.168  0.00  0.00    -0.327 N 
ATOM      9  C   UNL     1       0.066  -4.225   1.635  0.00  0.00    +0.177 A 
ATOM     10  N   UNL     1      -0.002  -4.125   0.275  0.00  0.00    -0.316 N 
ATOM     11  C   UNL     1      -0.069  -5.238  -0.675  0.00  0.00    +0.152 C 
ATOM     12  N   UNL     1       0.083  -5.408   2.343  0.00  0.00    -0.302 N 
ATOM     13  C   UNL     1      -1.168  -6.013   2.821  0.00  0.00    +0.108 C 
ATOM     14  C   UNL     1      -1.049  -6.267   4.327  0.00  0.00    +0.020 C 
ATOM     15  C   UNL     1       0.200  -7.107   4.602  0.00  0.00    +0.018 C 
ATOM     16  C   UNL     1       1.443  -6.342   4.142  0.00  0.00    +0.119 C 
ATOM     17  C   UNL     1       1.352  -6.092   2.629  0.00  0.00    +0.122 C 
ATOM     18  H   UNL     1       0.165  -2.842   3.118  0.00  0.00    +0.169 HD
ENDROOT
BRANCH  16  19
ATOM     19  C   UNL     1       2.675  -7.155   4.443  0.00  0.00    +0.361 C 
ATOM     20  O   UNL     1       2.569  -8.247   4.977  0.00  0.00    -0.246 OA
ATOM     21  O   UNL     1       3.777  -6.723   4.154  0.00  0.00    -0.246 OA
ENDBRANCH  16  19
TORSDOF 1
