REMARK  Name = ZINC49588578
REMARK  7 active torsions:
REMARK  status: ('A' for Active; 'I' for Inactive)
REMARK    1  A    between atoms: C_1  and  N_2
REMARK    2  A    between atoms: N_2  and  C_3
REMARK    3  A    between atoms: C_3  and  C_4
REMARK    4  A    between atoms: C_9  and  C_10
REMARK    5  A    between atoms: C_11  and  C_12
REMARK    6  A    between atoms: C_12  and  O_13
REMARK    7  A    between atoms: C_14  and  C_16
REMARK                            x       y       z     vdW  Elec       q    Type
REMARK                         _______ _______ _______ _____ _____    ______ ____
ROOT
ATOM      1  C   UNL     1      -1.342  -1.053   1.519  0.00  0.00    -0.015 A 
ATOM      2  C   UNL     1      -2.017  -0.340   2.488  0.00  0.00    +0.006 A 
ATOM      3  C   UNL     1      -3.344  -0.621   2.760  0.00  0.00    +0.000 A 
ATOM      4  C   UNL     1      -4.003  -1.618   2.062  0.00  0.00    +0.001 A 
ATOM      5  C   UNL     1      -3.340  -2.338   1.090  0.00  0.00    +0.017 A 
ATOM      6  C   UNL     1      -2.003  -2.055   0.808  0.00  0.00    +0.030 A 
ENDROOT
BRANCH   6   7
ATOM      7  C   UNL     1      -1.310  -2.795  -0.204  0.00  0.00    -0.064 C 
ATOM      8  C   UNL     1      -0.742  -3.401  -1.033  0.00  0.00    -0.069 C 
BRANCH   8   9
ATOM      9  C   UNL     1      -0.029  -4.162  -2.073  0.00  0.00    +0.244 C 
BRANCH   9  10
ATOM     10  O   UNL     1      -0.915  -5.123  -2.651  0.00  0.00    -0.383 OA
ATOM     11  H   UNL     1      -0.511  -5.661  -3.346  0.00  0.00    +0.211 HD
ENDBRANCH   9  10
ENDBRANCH   8   9
ENDBRANCH   6   7
BRANCH   1  12
ATOM     12  C   UNL     1       0.103  -0.745   1.224  0.00  0.00    +0.144 C 
BRANCH  12  14
ATOM     13  C   UNL     1       1.120   0.274   3.314  0.00  0.00    +0.133 C 
ATOM     14  N   UNL     1       0.517   0.435   1.988  0.00  0.00    -0.294 N 
ATOM     15  C   UNL     1       0.343   1.667   1.472  0.00  0.00    +0.285 C 
ATOM     16  O   UNL     1      -0.243   1.806   0.415  0.00  0.00    -0.267 OA
BRANCH  15  17
ATOM     17  C   UNL     1       0.862   2.847   2.188  0.00  0.00    +0.222 A 
ATOM     18  C   UNL     1       0.653   4.149   1.849  0.00  0.00    +0.077 A 
ATOM     19  C   UNL     1       1.319   4.953   2.789  0.00  0.00    +0.157 A 
ATOM     20  N   UNL     1       1.903   4.173   3.654  0.00  0.00    -0.086 NA
ATOM     21  O   UNL     1       1.625   2.831   3.298  0.00  0.00    -0.350 OA
ENDBRANCH  15  17
ENDBRANCH  12  14
ENDBRANCH   1  12
TORSDOF 6
