REMARK  Name = ZINC50439505
REMARK  6 active torsions:
REMARK  status: ('A' for Active; 'I' for Inactive)
REMARK    1  A    between atoms: C_1  and  C_2
REMARK    2  A    between atoms: C_4  and  N_16
REMARK    3  A    between atoms: C_5  and  N_9
REMARK    4  A    between atoms: C_7  and  C_8
REMARK    5  A    between atoms: N_9  and  S_10
REMARK    6  A    between atoms: S_10  and  C_13
REMARK                            x       y       z     vdW  Elec       q    Type
REMARK                         _______ _______ _______ _____ _____    ______ ____
ROOT
ATOM      1  C   UNL     1      -0.018   1.503   0.010  0.00  0.00    +0.044 C 
ATOM      2  C   UNL     1       0.002  -0.004   0.002  0.00  0.00    -0.046 A 
ATOM      3  C   UNL     1       0.006  -0.687  -1.201  0.00  0.00    +0.028 A 
ATOM      4  C   UNL     1       0.025  -2.073  -1.211  0.00  0.00    +0.050 A 
ATOM      5  C   UNL     1       0.041  -2.775  -0.005  0.00  0.00    +0.095 A 
ATOM      6  C   UNL     1       0.037  -2.083   1.196  0.00  0.00    +0.032 A 
ATOM      7  C   UNL     1       0.023  -0.700   1.196  0.00  0.00    -0.046 A 
ATOM      8  C   UNL     1       0.025   0.051   2.503  0.00  0.00    +0.044 C 
ENDROOT
BRANCH   4   9
ATOM      9  N   UNL     1       0.028  -2.767  -2.427  0.00  0.00    -0.356 N 
ATOM     10  H   UNL     1       0.017  -2.277  -3.264  0.00  0.00    +0.142 HD
ATOM     11  H   UNL     1       0.042  -3.736  -2.432  0.00  0.00    +0.142 HD
ENDBRANCH   4   9
BRANCH   5  12
ATOM     12  N   UNL     1       0.060  -4.175  -0.008  0.00  0.00    -0.096 NA
BRANCH  12  13
ATOM     13  S   UNL     1       0.078  -5.006   1.424  0.00  0.00    +0.125 S 
ATOM     14  O   UNL     1       1.311  -4.650   2.034  0.00  0.00    -0.148 OA
ATOM     15  O   UNL     1      -1.158  -4.683   2.047  0.00  0.00    -0.148 OA
BRANCH  13  16
ATOM     16  C   UNL     1       0.100  -6.756   0.948  0.00  0.00    +0.501 C 
ATOM     17  F   UNL     1       1.242  -7.017   0.183  0.00  0.00    -0.182 F 
ATOM     18  F   UNL     1       0.116  -7.553   2.098  0.00  0.00    -0.182 F 
ENDBRANCH  13  16
ENDBRANCH  12  13
ENDBRANCH   5  12
TORSDOF 4
