REMARK  Name = ZINC35450872
REMARK  8 active torsions:
REMARK  status: ('A' for Active; 'I' for Inactive)
REMARK    1  A    between atoms: C_1  and  C_2
REMARK    2  A    between atoms: C_2  and  C_3
REMARK    3  A    between atoms: C_3  and  C_4
REMARK    4  A    between atoms: C_4  and  S_5
REMARK    5  A    between atoms: S_5  and  C_6
REMARK    6  A    between atoms: C_13  and  C_25
REMARK    7  A    between atoms: C_19  and  C_23
REMARK    8  A    between atoms: C_19  and  C_24
REMARK                            x       y       z     vdW  Elec       q    Type
REMARK                         _______ _______ _______ _____ _____    ______ ____
ROOT
ATOM      1  C   UNL     1       1.529  -4.368  -2.621  0.00  0.00    +0.171 A 
ATOM      2  N   UNL     1       0.939  -4.915  -1.577  0.00  0.00    -0.208 NA
ATOM      3  C   UNL     1       0.875  -6.243  -1.438  0.00  0.00    +0.135 A 
ATOM      4  C   UNL     1       1.437  -7.065  -2.400  0.00  0.00    +0.069 A 
ATOM      5  C   UNL     1       2.061  -6.479  -3.507  0.00  0.00    +0.258 A 
ATOM      6  O   UNL     1       2.565  -7.172  -4.377  0.00  0.00    -0.267 OA
ATOM      7  N   UNL     1       2.090  -5.132  -3.599  0.00  0.00    -0.302 N 
ATOM      8  C   UNL     1       1.385  -8.557  -2.260  0.00  0.00    +0.092 C 
ATOM      9  C   UNL     1       0.333  -8.978  -1.266  0.00  0.00    +0.024 C 
ATOM     10  C   UNL     1      -0.170  -8.105  -0.367  0.00  0.00    +0.017 C 
ATOM     11  N   UNL     1       0.249  -6.803  -0.342  0.00  0.00    -0.302 N 
ATOM     12  C   UNL     1      -1.206  -8.539   0.641  0.00  0.00    +0.058 C 
ATOM     13  C   UNL     1      -2.074  -9.648   0.042  0.00  0.00    -0.023 C 
ATOM     14  C   UNL     1      -1.163 -10.815  -0.356  0.00  0.00    +0.086 C 
ATOM     15  C   UNL     1      -0.110 -10.312  -1.304  0.00  0.00    +0.162 C 
ATOM     16  O   UNL     1       0.368 -11.075  -2.121  0.00  0.00    -0.292 OA
ATOM     17  C   UNL     1      -2.803  -9.120  -1.195  0.00  0.00    +0.011 C 
ATOM     18  C   UNL     1      -3.094 -10.121   1.079  0.00  0.00    +0.011 C 
ATOM     19  H   UNL     1       0.104  -6.267   0.454  0.00  0.00    +0.153 HD
ATOM     20  H   UNL     1       2.514  -4.708  -4.362  0.00  0.00    +0.171 HD
ENDROOT
BRANCH   8  21
ATOM     21  C   UNL     1       2.729  -9.056  -1.796  0.00  0.00    -0.032 A 
ATOM     22  C   UNL     1       3.247  -8.624  -0.589  0.00  0.00    +0.005 A 
ATOM     23  C   UNL     1       4.480  -9.082  -0.162  0.00  0.00    +0.003 A 
ATOM     24  C   UNL     1       5.196  -9.970  -0.942  0.00  0.00    +0.038 A 
ATOM     25  C   UNL     1       4.678 -10.403  -2.151  0.00  0.00    +0.124 A 
ATOM     26  C   UNL     1       3.440  -9.949  -2.575  0.00  0.00    +0.043 A 
ATOM     27  F   UNL     1       5.377 -11.271  -2.914  0.00  0.00    -0.205 F 
ENDBRANCH   8  21
BRANCH   1  28
ATOM     28  S   UNL     1       1.588  -2.612  -2.758  0.00  0.00    -0.088 S 
BRANCH  28  29
ATOM     29  C   UNL     1       0.739  -2.027  -1.265  0.00  0.00    +0.077 C 
BRANCH  29  30
ATOM     30  C   UNL     1       0.718  -0.497  -1.257  0.00  0.00    +0.011 C 
BRANCH  30  32
ATOM     31  C   UNL     1      -0.019   1.526   0.010  0.00  0.00    +0.004 C 
ATOM     32  C   UNL     1       0.002  -0.004   0.002  0.00  0.00    -0.003 C 
ENDBRANCH  30  32
ENDBRANCH  29  30
ENDBRANCH  28  29
ENDBRANCH   1  28
TORSDOF 5
