REMARK  Name = ZINC03279274
REMARK  3 active torsions:
REMARK  status: ('A' for Active; 'I' for Inactive)
REMARK    1  A    between atoms: C_5  and  S_7
REMARK    2  A    between atoms: S_7  and  C_8
REMARK    3  A    between atoms: C_8  and  C_9
REMARK                            x       y       z     vdW  Elec       q    Type
REMARK                         _______ _______ _______ _____ _____    ______ ____
ROOT
ATOM      1  C   UNL     1      -0.902  -2.150  -0.194  0.00  0.00    +0.121 A 
ATOM      2  N   UNL     1       0.315  -2.737  -0.334  0.00  0.00    -0.309 N 
ATOM      3  H   UNL     1       0.390  -3.730  -0.421  0.00  0.00    +0.170 HD
ATOM      4  C   UNL     1       1.427  -1.963  -0.355  0.00  0.00    +0.266 A 
ATOM      5  O   UNL     1       2.534  -2.459  -0.480  0.00  0.00    -0.267 OA
ATOM      6  C   UNL     1       1.270  -0.582  -0.230  0.00  0.00    +0.102 A 
ATOM      7  C   UNL     1      -0.002  -0.000  -0.086  0.00  0.00    +0.085 A 
ATOM      8  N   UNL     1      -1.064  -0.871  -0.076  0.00  0.00    -0.232 NA
ATOM      9  C   UNL     1      -0.016   1.397   0.029  0.00  0.00    +0.036 A 
ATOM     10  C   UNL     1       1.140   2.093  -0.002  0.00  0.00    +0.048 A 
ATOM     11  S   UNL     1       2.367   0.811  -0.200  0.00  0.00    -0.090 S 
ENDROOT
BRANCH   1  12
ATOM     12  C   UNL     1      -2.125  -3.031  -0.173  0.00  0.00    +0.150 C 
BRANCH  12  13
ATOM     13  S   UNL     1      -3.607  -2.005   0.023  0.00  0.00    -0.097 S 
BRANCH  13  18
ATOM     14  C   UNL     1      -5.715  -5.417   0.234  0.00  0.00    +0.004 A 
ATOM     15  C   UNL     1      -7.002  -4.936   0.030  0.00  0.00    +0.021 A 
ATOM     16  C   UNL     1      -7.195  -3.583  -0.167  0.00  0.00    +0.134 A 
ATOM     17  N   UNL     1      -6.175  -2.746  -0.163  0.00  0.00    -0.134 N 
ATOM     18  C   UNL     1      -4.932  -3.166   0.028  0.00  0.00    +0.118 A 
ATOM     19  C   UNL     1      -4.665  -4.516   0.227  0.00  0.00    +0.036 A 
ATOM     20  O   UNL     1      -6.413  -1.365  -0.368  0.00  0.00    -0.163 OA
ENDBRANCH  13  18
ENDBRANCH  12  13
ENDBRANCH   1  12
TORSDOF 3
