REMARK  Name = ZINC37360918
REMARK  6 active torsions:
REMARK  status: ('A' for Active; 'I' for Inactive)
REMARK    1  A    between atoms: C_4  and  C_7
REMARK    2  A    between atoms: C_7  and  C_8
REMARK    3  A    between atoms: C_8  and  N_9
REMARK    4  A    between atoms: C_12  and  C_27
REMARK    5  A    between atoms: C_14  and  N_26
REMARK    6  A    between atoms: N_15  and  C_19
REMARK                            x       y       z     vdW  Elec       q    Type
REMARK                         _______ _______ _______ _____ _____    ______ ____
ROOT
ATOM      1  N   UNL     1       5.035  -2.385   1.482  0.00  0.00    -0.313 N 
ATOM      2  C   UNL     1       5.815  -2.451   2.622  0.00  0.00    +0.218 A 
ATOM      3  N   UNL     1       6.956  -3.130   2.565  0.00  0.00    -0.214 NA
ATOM      4  C   UNL     1       7.764  -3.243   3.611  0.00  0.00    +0.089 A 
ATOM      5  C   UNL     1       7.386  -2.615   4.819  0.00  0.00    +0.086 A 
ATOM      6  C   UNL     1       7.930  -2.498   6.093  0.00  0.00    +0.131 A 
ATOM      7  N   UNL     1       7.080  -1.756   6.830  0.00  0.00    -0.216 N 
ATOM      8  N   UNL     1       5.978  -1.382   6.053  0.00  0.00    -0.144 NA
ATOM      9  C   UNL     1       6.113  -1.871   4.839  0.00  0.00    +0.189 A 
ATOM     10  N   UNL     1       5.390  -1.831   3.704  0.00  0.00    -0.193 NA
ATOM     11  H   UNL     1       5.324  -2.832   0.670  0.00  0.00    +0.149 HD
ENDROOT
BRANCH   4  12
ATOM     12  C   UNL     1       9.028  -4.007   3.516  0.00  0.00    +0.003 A 
ATOM     13  C   UNL     1       9.370  -4.921   4.514  0.00  0.00    +0.013 A 
ATOM     14  C   UNL     1      10.549  -5.631   4.421  0.00  0.00    +0.040 A 
ATOM     15  C   UNL     1      11.394  -5.439   3.339  0.00  0.00    +0.142 A 
ATOM     16  C   UNL     1      11.058  -4.532   2.345  0.00  0.00    +0.077 A 
ATOM     17  C   UNL     1       9.878  -3.821   2.426  0.00  0.00    +0.033 A 
ATOM     18 CL   UNL     1      12.122  -4.296   0.993  0.00  0.00    -0.081 Cl
ATOM     19  F   UNL     1      12.547  -6.136   3.253  0.00  0.00    -0.204 F 
ENDBRANCH   4  12
BRANCH   7  20
ATOM     20  C   UNL     1       7.270  -1.412   8.173  0.00  0.00    +0.070 A 
ATOM     21  C   UNL     1       7.891  -2.304   9.039  0.00  0.00    +0.028 A 
ATOM     22  C   UNL     1       8.078  -1.962  10.364  0.00  0.00    +0.005 A 
ATOM     23  C   UNL     1       7.648  -0.734  10.831  0.00  0.00    +0.038 A 
ATOM     24  C   UNL     1       7.028   0.158   9.972  0.00  0.00    +0.125 A 
ATOM     25  C   UNL     1       6.843  -0.177   8.642  0.00  0.00    +0.066 A 
ATOM     26  F   UNL     1       6.608   1.357  10.431  0.00  0.00    -0.205 F 
ENDBRANCH   7  20
BRANCH   6  27
ATOM     27  N   UNL     1       9.124  -3.043   6.525  0.00  0.00    -0.342 N 
ATOM     28  H   UNL     1       9.740  -3.431   5.884  0.00  0.00    +0.144 HD
ATOM     29  H   UNL     1       9.346  -3.037   7.469  0.00  0.00    +0.144 HD
ENDBRANCH   6  27
BRANCH   1  30
ATOM     30  C   UNL     1       3.773  -1.642   1.499  0.00  0.00    +0.109 C 
BRANCH  30  31
ATOM     31  C   UNL     1       3.112  -1.727   0.122  0.00  0.00    +0.054 C 
BRANCH  31  35
ATOM     32  C   UNL     1      -0.569   0.441   0.172  0.00  0.00    +0.000 A 
ATOM     33  C   UNL     1       0.606   1.082  -0.175  0.00  0.00    +0.000 A 
ATOM     34  C   UNL     1       1.797   0.380  -0.191  0.00  0.00    +0.004 A 
ATOM     35  C   UNL     1       1.813  -0.962   0.140  0.00  0.00    -0.046 A 
ATOM     36  C   UNL     1       0.638  -1.602   0.488  0.00  0.00    +0.004 A 
ATOM     37  C   UNL     1      -0.553  -0.901   0.502  0.00  0.00    +0.000 A 
ENDBRANCH  31  35
ENDBRANCH  30  31
ENDBRANCH   1  30
TORSDOF 6
