REMARK  Name = ZINC23380903
REMARK  4 active torsions:
REMARK  status: ('A' for Active; 'I' for Inactive)
REMARK    1  A    between atoms: C_3  and  C_16
REMARK    2  A    between atoms: N_4  and  C_6
REMARK    3  A    between atoms: C_9  and  S_12
REMARK    4  A    between atoms: S_12  and  N_15
REMARK                            x       y       z     vdW  Elec       q    Type
REMARK                         _______ _______ _______ _____ _____    ______ ____
ROOT
ATOM      1  C   UNL     1      -4.750   3.419   6.199  0.00  0.00    +0.020 A 
ATOM      2  C   UNL     1      -3.551   3.808   6.829  0.00  0.00    +0.024 A 
ATOM      3  C   UNL     1      -2.542   3.562   5.968  0.00  0.00    +0.036 A 
ATOM      4  N   UNL     1      -3.077   3.043   4.823  0.00  0.00    -0.319 N 
ATOM      5  C   UNL     1      -4.431   2.955   4.974  0.00  0.00    +0.091 A 
ENDROOT
BRANCH   3   6
ATOM      6  C   UNL     1      -1.080   3.818   6.223  0.00  0.00    +0.106 C 
ATOM      7  C   UNL     1      -0.485   2.629   6.931  0.00  0.00    +0.025 C 
ATOM      8  C   UNL     1      -0.283   2.655   8.264  0.00  0.00    +0.015 C 
ATOM      9  C   UNL     1       0.297   1.465   8.987  0.00  0.00    +0.051 C 
ATOM     10  C   UNL     1       1.246   0.710   8.053  0.00  0.00    +0.014 C 
ATOM     11  C   UNL     1       0.463   0.280   6.808  0.00  0.00    +0.080 C 
ATOM     12  C   UNL     1      -0.147   1.497   6.167  0.00  0.00    +0.162 C 
ATOM     13  O   UNL     1      -0.350   1.502   4.969  0.00  0.00    -0.292 OA
ATOM     14  N   UNL     1      -0.606   3.771   8.986  0.00  0.00    -0.320 N 
ATOM     15  C   UNL     1      -0.716   4.991   8.379  0.00  0.00    +0.015 C 
ATOM     16  C   UNL     1      -0.935   5.070   7.050  0.00  0.00    +0.025 C 
ATOM     17  C   UNL     1      -1.030   6.314   6.402  0.00  0.00    +0.162 C 
ATOM     18  O   UNL     1      -1.237   6.350   5.205  0.00  0.00    -0.292 OA
ATOM     19  C   UNL     1      -0.880   7.602   7.165  0.00  0.00    +0.080 C 
ATOM     20  C   UNL     1       0.024   7.362   8.379  0.00  0.00    +0.014 C 
ATOM     21  C   UNL     1      -0.582   6.236   9.220  0.00  0.00    +0.051 C 
ATOM     22  H   UNL     1      -0.781   3.693  10.070  0.00  0.00    +0.152 HD
ENDBRANCH   3   6
BRANCH   4  23
ATOM     23  C   UNL     1      -2.354   2.659   3.685  0.00  0.00    +0.046 A 
ATOM     24  C   UNL     1      -2.559   1.407   3.120  0.00  0.00    +0.028 A 
ATOM     25  C   UNL     1      -1.846   1.032   1.999  0.00  0.00    +0.030 A 
ATOM     26  C   UNL     1      -0.927   1.900   1.439  0.00  0.00    +0.105 A 
ATOM     27  C   UNL     1      -0.716   3.145   2.003  0.00  0.00    +0.030 A 
ATOM     28  C   UNL     1      -1.431   3.529   3.121  0.00  0.00    +0.028 A 
BRANCH  26  29
ATOM     29  S   UNL     1      -0.017   1.417   0.010  0.00  0.00    +0.056 S 
ATOM     30  O   UNL     1       0.002  -0.004   0.002  0.00  0.00    -0.153 OA
ATOM     31  O   UNL     1       1.172   2.195   0.003  0.00  0.00    -0.153 OA
BRANCH  29  32
ATOM     32  N   UNL     1      -0.897   1.885  -1.312  0.00  0.00    -0.204 NA
ATOM     33  H   UNL     1      -0.361   1.601  -2.229  0.00  0.00    +0.144 HD
ATOM     34  H   UNL     1      -1.036   2.977  -1.292  0.00  0.00    +0.144 HD
ENDBRANCH  29  32
ENDBRANCH  26  29
ENDBRANCH   4  23
TORSDOF 4
