REMARK  Name = ZINC48866631
REMARK  4 active torsions:
REMARK  status: ('A' for Active; 'I' for Inactive)
REMARK    1  A    between atoms: C_3  and  C_8
REMARK    2  A    between atoms: C_8  and  N_9
REMARK    3  A    between atoms: C_10  and  C_14
REMARK    4  A    between atoms: C_19  and  N_20
REMARK                            x       y       z     vdW  Elec       q    Type
REMARK                         _______ _______ _______ _____ _____    ______ ____
ROOT
ATOM      1  N   UNL     1       4.024   2.381   1.387  0.00  0.00    -0.221 N 
ATOM      2  C   UNL     1       3.586   3.362   2.215  0.00  0.00    +0.184 A 
ATOM      3  N   UNL     1       4.108   3.127   3.401  0.00  0.00    -0.108 NA
ATOM      4  N   UNL     1       4.838   2.072   3.369  0.00  0.00    -0.023 NA
ATOM      5  N   UNL     1       4.834   1.558   2.187  0.00  0.00    -0.043 NA
ENDROOT
BRANCH   2   6
ATOM      6  C   UNL     1       2.692   4.483   1.854  0.00  0.00    +0.043 A 
ATOM      7  C   UNL     1       2.105   4.533   0.589  0.00  0.00    +0.033 A 
ATOM      8  C   UNL     1       1.271   5.582   0.258  0.00  0.00    +0.042 A 
ATOM      9  C   UNL     1       1.014   6.587   1.177  0.00  0.00    +0.022 A 
ATOM     10  C   UNL     1       1.588   6.549   2.432  0.00  0.00    +0.025 A 
ATOM     11  C   UNL     1       2.425   5.498   2.782  0.00  0.00    +0.035 A 
ATOM     12 CL   UNL     1       0.543   5.643  -1.317  0.00  0.00    -0.084 Cl
BRANCH  11  13
ATOM     13  N   UNL     1       3.000   5.455   4.051  0.00  0.00    -0.357 N 
ATOM     14  H   UNL     1       3.587   4.722   4.293  0.00  0.00    +0.142 HD
ATOM     15  H   UNL     1       2.814   6.159   4.692  0.00  0.00    +0.142 HD
ENDBRANCH  11  13
ENDBRANCH   2   6
BRANCH   1  16
ATOM     16  C   UNL     1       3.713   2.212  -0.035  0.00  0.00    +0.182 C 
BRANCH  16  19
ATOM     17  C   UNL     1       4.718  -1.305  -0.972  0.00  0.00    +0.001 A 
ATOM     18  C   UNL     1       4.000  -0.236  -0.467  0.00  0.00    +0.005 A 
ATOM     19  C   UNL     1       4.496   1.048  -0.586  0.00  0.00    -0.025 A 
ATOM     20  C   UNL     1       5.711   1.266  -1.210  0.00  0.00    +0.020 A 
ATOM     21  C   UNL     1       6.429   0.197  -1.714  0.00  0.00    +0.018 A 
ATOM     22  C   UNL     1       5.932  -1.088  -1.595  0.00  0.00    +0.015 A 
ATOM     23 BR   UNL     1       8.090   0.494  -2.569  0.00  0.00    -0.050 Br
ENDBRANCH  16  19
ENDBRANCH   1  16
TORSDOF 4
