REMARK  Name = ZINC62349734
REMARK  9 active torsions:
REMARK  status: ('A' for Active; 'I' for Inactive)
REMARK    1  A    between atoms: C_1  and  C_2
REMARK    2  A    between atoms: N_5  and  C_8
REMARK    3  A    between atoms: C_8  and  C_10
REMARK    4  A    between atoms: C_8  and  C_11
REMARK    5  A    between atoms: C_11  and  N_12
REMARK    6  A    between atoms: C_13  and  C_15
REMARK    7  A    between atoms: C_15  and  C_16
REMARK    8  A    between atoms: C_16  and  C_17
REMARK    9  A    between atoms: C_18  and  C_23
REMARK                            x       y       z     vdW  Elec       q    Type
REMARK                         _______ _______ _______ _____ _____    ______ ____
ROOT
ATOM      1  N   UNL     1       1.401  -3.769   2.567  0.00  0.00    -0.317 N 
ATOM      2  C   UNL     1       2.344  -4.097   3.472  0.00  0.00    +0.213 C 
ATOM      3  O   UNL     1       2.100  -4.917   4.332  0.00  0.00    -0.276 OA
ATOM      4  H   UNL     1       1.597  -3.113   1.879  0.00  0.00    +0.149 HD
ENDROOT
BRANCH   1   5
ATOM      5  C   UNL     1       0.082  -4.402   2.621  0.00  0.00    +0.088 C 
BRANCH   5   6
ATOM      6  C   UNL     1      -0.753  -3.945   1.423  0.00  0.00    -0.054 C 
ATOM      7  C   UNL     1      -2.159  -4.540   1.525  0.00  0.00    -0.012 C 
BRANCH   6  12
ATOM      8  C   UNL     1      -2.251   1.558   1.371  0.00  0.00    +0.007 C 
ATOM      9  C   UNL     1      -2.293   0.028   1.371  0.00  0.00    -0.018 C 
ATOM     10  C   UNL     1      -1.621  -0.503   2.641  0.00  0.00    -0.016 C 
ATOM     11  C   UNL     1      -1.596  -2.032   2.597  0.00  0.00    -0.078 C 
ATOM     12  N   UNL     1      -0.842  -2.478   1.419  0.00  0.00    +0.382 N 
ATOM     13  C   UNL     1      -1.519  -2.034   0.196  0.00  0.00    -0.078 C 
ATOM     14  C   UNL     1      -1.541  -0.504   0.147  0.00  0.00    -0.016 C 
ATOM     15  H   UNL     1       0.088  -2.088   1.449  0.00  0.00    -0.081 HD
ENDBRANCH   6  12
ENDBRANCH   5   6
ENDBRANCH   1   5
BRANCH   2  16
ATOM     16  C   UNL     1       3.702  -3.445   3.417  0.00  0.00    +0.101 C 
BRANCH  16  17
ATOM     17  C   UNL     1       4.576  -3.990   4.548  0.00  0.00    +0.054 C 
BRANCH  17  18
ATOM     18  C   UNL     1       5.934  -3.338   4.492  0.00  0.00    +0.020 A 
ATOM     19  C   UNL     1       6.378  -2.196   5.099  0.00  0.00    +0.090 A 
ATOM     20  N   UNL     1       7.636  -1.803   4.905  0.00  0.00    -0.224 NA
ATOM     21  C   UNL     1       8.457  -2.497   4.138  0.00  0.00    +0.156 A 
ATOM     22  S   UNL     1       7.409  -3.849   3.620  0.00  0.00    -0.057 S 
ATOM     23  N   UNL     1       9.783  -2.247   3.823  0.00  0.00    -0.337 N 
ATOM     24  H   UNL     1      10.228  -1.466   4.186  0.00  0.00    +0.144 HD
ATOM     25  H   UNL     1      10.265  -2.853   3.239  0.00  0.00    +0.144 HD
BRANCH  19  26
ATOM     26  C   UNL     1       5.473  -1.406   5.960  0.00  0.00    +0.038 A 
ATOM     27  C   UNL     1       5.763  -0.696   7.095  0.00  0.00    +0.018 A 
ATOM     28  C   UNL     1       4.741  -0.029   7.738  0.00  0.00    +0.008 A 
ATOM     29  C   UNL     1       3.485  -0.096   7.229  0.00  0.00    +0.046 A 
ATOM     30  S   UNL     1       3.719  -1.122   5.788  0.00  0.00    -0.095 S 
ENDBRANCH  19  26
ENDBRANCH  17  18
ENDBRANCH  16  17
ENDBRANCH   2  16
TORSDOF 7
