REMARK  Name = ZINC22973235
REMARK  10 active torsions:
REMARK  status: ('A' for Active; 'I' for Inactive)
REMARK    1  A    between atoms: C_1  and  C_2
REMARK    2  A    between atoms: C_2  and  C_3
REMARK    3  A    between atoms: C_2  and  C_4
REMARK    4  A    between atoms: C_2  and  C_5
REMARK    5  A    between atoms: N_13  and  C_17
REMARK    6  A    between atoms: C_17  and  C_18
REMARK    7  A    between atoms: N_20  and  C_21
REMARK    8  A    between atoms: C_21  and  C_22
REMARK    9  A    between atoms: C_27  and  C_28
REMARK   10  A    between atoms: C_28  and  N_29
REMARK                            x       y       z     vdW  Elec       q    Type
REMARK                         _______ _______ _______ _____ _____    ______ ____
ROOT
ATOM      1  C   UNL     1      -0.013   1.086   0.008  0.00  0.00    +0.213 C 
ENDROOT
BRANCH   1  10
ATOM      2  C   UNL     1      -0.769   5.370  -4.208  0.00  0.00    -0.005 C 
ATOM      3  C   UNL     1      -1.507   5.309  -2.869  0.00  0.00    +0.006 C 
ATOM      4  C   UNL     1      -2.339   4.026  -2.804  0.00  0.00    +0.035 C 
ATOM      5  C   UNL     1      -1.423   2.817  -2.954  0.00  0.00    +0.113 C 
ATOM      6  C   UNL     1      -0.665   2.874  -4.275  0.00  0.00    +0.035 C 
ATOM      7  C   UNL     1       0.161   4.162  -4.335  0.00  0.00    +0.006 C 
ATOM      8  C   UNL     1      -0.456   2.742  -1.794  0.00  0.00    +0.247 C 
ATOM      9  O   UNL     1       0.381   3.562  -1.483  0.00  0.00    -0.273 OA
ATOM     10  N   UNL     1      -0.721   1.571  -1.179  0.00  0.00    -0.215 N 
ATOM     11  C   UNL     1      -1.708   0.905  -1.791  0.00  0.00    +0.310 C 
ATOM     12  O   UNL     1      -2.121  -0.178  -1.424  0.00  0.00    -0.252 OA
ATOM     13  N   UNL     1      -2.194   1.571  -2.856  0.00  0.00    -0.285 N 
ATOM     14  H   UNL     1      -2.989   1.357  -3.586  0.00  0.00    +0.151 HD
BRANCH   2  16
ATOM     15  C   UNL     1       1.071   6.676  -3.134  0.00  0.00    +0.011 C 
ATOM     16  C   UNL     1       0.055   6.657  -4.278  0.00  0.00    -0.035 C 
ATOM     17  C   UNL     1       0.793   6.718  -5.617  0.00  0.00    +0.011 C 
ATOM     18  C   UNL     1      -0.875   7.865  -4.154  0.00  0.00    +0.011 C 
ENDBRANCH   2  16
ENDBRANCH   1  10
BRANCH   1  19
ATOM     19  C   UNL     1      -0.718   1.572   1.248  0.00  0.00    +0.231 C 
ATOM     20  O   UNL     1      -1.714   2.256   1.150  0.00  0.00    -0.274 OA
ATOM     21  N   UNL     1      -0.242   1.246   2.466  0.00  0.00    -0.310 N 
ATOM     22  H   UNL     1       0.662   0.625   2.555  0.00  0.00    +0.149 HD
BRANCH  21  23
ATOM     23  C   UNL     1      -0.927   1.718   3.671  0.00  0.00    +0.139 C 
BRANCH  23  24
ATOM     24  C   UNL     1      -0.198   1.219   4.892  0.00  0.00    -0.029 A 
ATOM     25  C   UNL     1      -0.674   0.117   5.578  0.00  0.00    +0.005 A 
ATOM     26  C   UNL     1      -0.003  -0.344   6.695  0.00  0.00    +0.000 A 
ATOM     27  C   UNL     1       1.138   0.304   7.132  0.00  0.00    +0.000 A 
ATOM     28  C   UNL     1       1.610   1.409   6.449  0.00  0.00    +0.002 A 
ATOM     29  C   UNL     1       0.942   1.866   5.329  0.00  0.00    -0.059 A 
BRANCH  29  30
ATOM     30  C   UNL     1       1.456   3.071   4.584  0.00  0.00    -0.043 C 
BRANCH  30  31
ATOM     31  N   UNL     1       0.679   4.256   4.973  0.00  0.00    +0.382 N 
ATOM     32  C   UNL     1       0.648   4.411   6.450  0.00  0.00    -0.078 C 
ATOM     33  C   UNL     1       0.284   5.904   6.643  0.00  0.00    -0.020 C 
ATOM     34  C   UNL     1       1.052   6.598   5.494  0.00  0.00    -0.020 C 
ATOM     35  C   UNL     1       1.301   5.492   4.451  0.00  0.00    -0.078 C 
ATOM     36  H   UNL     1      -0.327   4.104   4.557  0.00  0.00    -0.081 HD
ENDBRANCH  30  31
ENDBRANCH  29  30
ENDBRANCH  23  24
ENDBRANCH  21  23
ENDBRANCH   1  19
TORSDOF 7
