REMARK  Name = ZINC65089571
REMARK  5 active torsions:
REMARK  status: ('A' for Active; 'I' for Inactive)
REMARK    1  A    between atoms: C_1  and  C_2
REMARK    2  A    between atoms: C_16  and  C_18
REMARK    3  A    between atoms: C_20  and  C_27
REMARK    4  A    between atoms: C_21  and  S_25
REMARK    5  A    between atoms: S_25  and  C_26
REMARK                            x       y       z     vdW  Elec       q    Type
REMARK                         _______ _______ _______ _____ _____    ______ ____
ROOT
ATOM      1  C   UNL     1      -0.021   1.554   0.043  0.00  0.00    +0.035 C 
ATOM      2  C   UNL     1       0.003   0.024   0.015  0.00  0.00    +0.120 C 
ATOM      3  C   UNL     1       0.753  -0.456  -1.207  0.00  0.00    +0.041 A 
ATOM      4  C   UNL     1       1.979  -1.021  -1.155  0.00  0.00    -0.016 A 
ATOM      5  C   UNL     1       2.357  -1.337  -2.517  0.00  0.00    +0.003 A 
ATOM      6  C   UNL     1       3.499  -1.923  -3.072  0.00  0.00    +0.010 A 
ATOM      7  C   UNL     1       3.518  -2.074  -4.437  0.00  0.00    +0.001 A 
ATOM      8  C   UNL     1       2.462  -1.670  -5.237  0.00  0.00    +0.002 A 
ATOM      9  C   UNL     1       1.320  -1.087  -4.715  0.00  0.00    +0.026 A 
ATOM     10  C   UNL     1       1.273  -0.920  -3.332  0.00  0.00    +0.047 A 
ATOM     11  N   UNL     1       0.323  -0.394  -2.506  0.00  0.00    -0.356 N 
ATOM     12  H   UNL     1      -0.529  -0.030  -2.795  0.00  0.00    +0.166 HD
ATOM     13  C   UNL     1       2.761  -1.261   0.111  0.00  0.00    +0.056 C 
ATOM     14  C   UNL     1       2.180  -0.388   1.230  0.00  0.00    +0.113 C 
ATOM     15  N   UNL     1       0.713  -0.487   1.200  0.00  0.00    -0.289 N 
ATOM     16  C   UNL     1       0.036  -1.031   2.231  0.00  0.00    +0.252 C 
ATOM     17  O   UNL     1       0.641  -1.532   3.159  0.00  0.00    -0.270 OA
ENDROOT
BRANCH  16  18
ATOM     18  C   UNL     1      -1.436  -1.018   2.233  0.00  0.00    +0.104 A 
ATOM     19  C   UNL     1      -2.135   0.183   2.073  0.00  0.00    +0.040 A 
ATOM     20  C   UNL     1      -3.529   0.143   2.081  0.00  0.00    +0.084 A 
ATOM     21  C   UNL     1      -4.178  -1.097   2.250  0.00  0.00    +0.118 A 
ATOM     22  N   UNL     1      -3.480  -2.212   2.399  0.00  0.00    -0.201 NA
ATOM     23  C   UNL     1      -2.159  -2.215   2.390  0.00  0.00    +0.283 A 
ATOM     24  O   UNL     1      -1.492  -3.382   2.541  0.00  0.00    -0.265 OA
BRANCH  21  25
ATOM     25  S   UNL     1      -5.939  -1.163   2.263  0.00  0.00    -0.108 S 
ATOM     26  C   UNL     1      -6.310  -2.923   2.501  0.00  0.00    +0.091 C 
ENDBRANCH  21  25
BRANCH  20  27
ATOM     27  C   UNL     1      -4.290   1.346   1.921  0.00  0.00    +0.102 C 
ATOM     28  N   UNL     1      -4.894   2.300   1.794  0.00  0.00    -0.191 NA
ENDBRANCH  20  27
ENDBRANCH  16  18
TORSDOF 3
