REMARK  Name = ZINC20331428
REMARK  9 active torsions:
REMARK  status: ('A' for Active; 'I' for Inactive)
REMARK    1  A    between atoms: C_1  and  C_2
REMARK    2  A    between atoms: C_8  and  N_10
REMARK    3  A    between atoms: C_11  and  C_13
REMARK    4  A    between atoms: C_13  and  C_14
REMARK    5  A    between atoms: C_14  and  C_15
REMARK    6  A    between atoms: C_15  and  C_16
REMARK    7  A    between atoms: C_16  and  N_17
REMARK    8  A    between atoms: C_24  and  O_30
REMARK    9  A    between atoms: O_30  and  C_31
REMARK                            x       y       z     vdW  Elec       q    Type
REMARK                         _______ _______ _______ _____ _____    ______ ____
ROOT
ATOM      1  N   UNL     1       0.004   1.081   4.952  0.00  0.00    -0.287 N 
ATOM      2  C   UNL     1       0.989   1.828   5.488  0.00  0.00    +0.279 A 
ATOM      3  O   UNL     1       1.287   2.899   4.990  0.00  0.00    -0.265 OA
ATOM      4  C   UNL     1       1.674   1.357   6.638  0.00  0.00    +0.129 A 
ATOM      5  C   UNL     1       1.305   0.137   7.173  0.00  0.00    +0.079 A 
ATOM      6  C   UNL     1       2.165  -0.094   8.333  0.00  0.00    +0.027 A 
ATOM      7  C   UNL     1       2.270  -1.132   9.265  0.00  0.00    +0.057 A 
ATOM      8  C   UNL     1       3.208  -1.054  10.273  0.00  0.00    +0.121 A 
ATOM      9  C   UNL     1       4.050   0.053  10.364  0.00  0.00    +0.047 A 
ATOM     10  C   UNL     1       3.957   1.081   9.454  0.00  0.00    +0.030 A 
ATOM     11  C   UNL     1       3.017   1.022   8.428  0.00  0.00    +0.049 A 
ATOM     12  N   UNL     1       2.705   1.884   7.398  0.00  0.00    -0.349 N 
ATOM     13  H   UNL     1       3.142   2.858   7.133  0.00  0.00    +0.166 HD
ATOM     14  N   UNL     1       0.286  -0.586   6.579  0.00  0.00    -0.333 N 
ATOM     15  C   UNL     1      -0.343  -0.101   5.492  0.00  0.00    +0.161 A 
ATOM     16  S   UNL     1      -1.606  -1.010   4.779  0.00  0.00    -0.013 S 
ATOM     17  H   UNL     1      -0.012  -1.560   6.995  0.00  0.00    +0.168 HD
ENDROOT
BRANCH   8  18
ATOM     18  O   UNL     1       3.313  -2.061  11.180  0.00  0.00    -0.495 OA
ATOM     19  C   UNL     1       4.306  -1.916  12.198  0.00  0.00    +0.277 C 
ENDBRANCH   8  18
BRANCH   1  20
ATOM     20  C   UNL     1      -0.705   1.566   3.765  0.00  0.00    +0.127 C 
BRANCH  20  21
ATOM     21  C   UNL     1       0.011   1.072   2.506  0.00  0.00    +0.022 C 
BRANCH  21  22
ATOM     22  C   UNL     1      -0.729   1.579   1.267  0.00  0.00    +0.011 C 
BRANCH  22  23
ATOM     23  C   UNL     1      -0.013   1.086   0.008  0.00  0.00    +0.096 C 
BRANCH  23  25
ATOM     24  N   UNL     1      -0.288   1.272  -2.443  0.00  0.00    -0.312 N 
ATOM     25  C   UNL     1      -0.742   1.585  -1.213  0.00  0.00    +0.213 C 
ATOM     26  O   UNL     1      -1.736   2.268  -1.088  0.00  0.00    -0.276 OA
ATOM     27  H   UNL     1       0.614   0.653  -2.556  0.00  0.00    +0.149 HD
BRANCH  24  34
ATOM     28  C   UNL     1      -1.199  -0.587  -4.468  0.00  0.00    +0.009 C 
ATOM     29  C   UNL     1      -0.716   0.824  -4.809  0.00  0.00    +0.006 C 
ATOM     30  C   UNL     1       0.788   0.794  -5.089  0.00  0.00    +0.005 C 
ATOM     31  C   UNL     1       1.271   2.205  -5.430  0.00  0.00    +0.000 C 
ATOM     32  C   UNL     1       0.990   3.139  -4.251  0.00  0.00    +0.002 C 
ATOM     33  C   UNL     1      -0.514   3.169  -3.971  0.00  0.00    +0.022 C 
ATOM     34  C   UNL     1      -0.997   1.758  -3.630  0.00  0.00    +0.076 C 
ENDBRANCH  24  34
ENDBRANCH  23  25
ENDBRANCH  22  23
ENDBRANCH  21  22
ENDBRANCH  20  21
ENDBRANCH   1  20
TORSDOF 7
