REMARK  Name = ZINC13064402
REMARK  10 active torsions:
REMARK  status: ('A' for Active; 'I' for Inactive)
REMARK    1  A    between atoms: C_1  and  C_2
REMARK    2  A    between atoms: C_2  and  C_3
REMARK    3  A    between atoms: C_3  and  C_5
REMARK    4  A    between atoms: C_3  and  N_72
REMARK    5  A    between atoms: N_9  and  C_10
REMARK    6  A    between atoms: C_15  and  C_16
REMARK    7  A    between atoms: C_15  and  N_72
REMARK    8  A    between atoms: C_16  and  C_17
REMARK    9  A    between atoms: C_23  and  C_24
REMARK   10  A    between atoms: C_23  and  N_72
REMARK                            x       y       z     vdW  Elec       q    Type
REMARK                         _______ _______ _______ _____ _____    ______ ____
ROOT
ATOM      1  N   UNL     1      -2.212   1.788  -1.242  0.00  0.00    +0.389 N 
ATOM      2  H   UNL     1      -1.983   1.621  -2.229  0.00  0.00    -0.080 HD
ENDROOT
BRANCH   1   3
ATOM      3  C   UNL     1      -0.962   1.790  -0.454  0.00  0.00    +0.003 C 
BRANCH   3   4
ATOM      4  C   UNL     1      -0.134   0.597  -0.855  0.00  0.00    +0.138 A 
ATOM      5  N   UNL     1      -0.558  -0.634  -1.009  0.00  0.00    -0.115 NA
ATOM      6  N   UNL     1       0.447  -1.359  -1.361  0.00  0.00    -0.023 NA
ATOM      7  N   UNL     1       1.501  -0.624  -1.435  0.00  0.00    -0.044 NA
ATOM      8  N   UNL     1       1.183   0.589  -1.130  0.00  0.00    -0.228 N 
BRANCH   8   9
ATOM      9  C   UNL     1       2.087   1.741  -1.091  0.00  0.00    +0.111 C 
ATOM     10  C   UNL     1       2.754   1.936  -2.469  0.00  0.00    +0.027 C 
ATOM     11  C   UNL     1       4.197   2.389  -2.131  0.00  0.00    +0.002 C 
ATOM     12  C   UNL     1       4.541   1.536  -0.884  0.00  0.00    +0.002 C 
ATOM     13  C   UNL     1       3.223   1.487  -0.084  0.00  0.00    +0.027 C 
ENDBRANCH   8   9
ENDBRANCH   3   4
BRANCH   3  15
ATOM     14  C   UNL     1       0.025   1.851   1.841  0.00  0.00    +0.002 C 
ATOM     15  C   UNL     1      -1.273   1.716   1.043  0.00  0.00    -0.011 C 
ENDBRANCH   3  15
ENDBRANCH   1   3
BRANCH   1  16
ATOM     16  C   UNL     1      -3.107   0.712  -0.768  0.00  0.00    -0.073 C 
BRANCH  16  17
ATOM     17  C   UNL     1      -4.196   0.480  -1.818  0.00  0.00    +0.016 C 
BRANCH  17  18
ATOM     18  C   UNL     1      -5.133  -0.600  -1.340  0.00  0.00    -0.049 A 
ATOM     19  C   UNL     1      -4.880  -1.922  -1.653  0.00  0.00    +0.003 A 
ATOM     20  C   UNL     1      -5.737  -2.913  -1.210  0.00  0.00    +0.000 A 
ATOM     21  C   UNL     1      -6.851  -2.580  -0.463  0.00  0.00    +0.000 A 
ATOM     22  C   UNL     1      -7.107  -1.257  -0.155  0.00  0.00    +0.000 A 
ATOM     23  C   UNL     1      -6.247  -0.267  -0.593  0.00  0.00    +0.003 A 
ENDBRANCH  17  18
ENDBRANCH  16  17
ENDBRANCH   1  16
BRANCH   1  24
ATOM     24  C   UNL     1      -2.888   3.097  -1.122  0.00  0.00    -0.037 C 
BRANCH  24  25
ATOM     25  C   UNL     1      -2.182   4.089  -2.010  0.00  0.00    +0.001 A 
ATOM     26  C   UNL     1      -2.614   4.286  -3.281  0.00  0.00    +0.017 A 
ATOM     27  C   UNL     1      -1.908   5.255  -4.118  0.00  0.00    +0.002 A 
ATOM     28  C   UNL     1      -2.309   5.500  -5.437  0.00  0.00    +0.059 A 
ATOM     29  C   UNL     1      -1.621   6.417  -6.203  0.00  0.00    +0.163 A 
ATOM     30  C   UNL     1      -0.529   7.105  -5.666  0.00  0.00    +0.164 A 
ATOM     31  C   UNL     1      -0.127   6.871  -4.362  0.00  0.00    +0.075 A 
ATOM     32  C   UNL     1      -0.807   5.949  -3.578  0.00  0.00    +0.053 A 
ATOM     33  N   UNL     1      -0.418   5.702  -2.277  0.00  0.00    -0.322 N 
ATOM     34  H   UNL     1       0.339   6.181  -1.905  0.00  0.00    +0.169 HD
ATOM     35  C   UNL     1      -1.078   4.812  -1.515  0.00  0.00    +0.251 A 
ATOM     36  O   UNL     1      -0.710   4.623  -0.368  0.00  0.00    -0.268 OA
ATOM     37  O   UNL     1       0.152   8.015  -6.414  0.00  0.00    -0.485 OA
ATOM     38  C   UNL     1      -0.038   7.955  -7.831  0.00  0.00    +0.270 C 
ATOM     39  C   UNL     1      -1.542   7.836  -8.110  0.00  0.00    +0.270 C 
ATOM     40  O   UNL     1      -2.020   6.639  -7.486  0.00  0.00    -0.485 OA
ENDBRANCH  24  25
ENDBRANCH   1  24
TORSDOF 9
