REMARK  Name = ZINC47534399
REMARK  6 active torsions:
REMARK  status: ('A' for Active; 'I' for Inactive)
REMARK    1  A    between atoms: C_1  and  C_2
REMARK    2  A    between atoms: C_2  and  C_4
REMARK    3  A    between atoms: C_2  and  N_16
REMARK    4  A    between atoms: C_17  and  C_19
REMARK    5  A    between atoms: C_19  and  O_20
REMARK    6  A    between atoms: O_20  and  C_21
REMARK                            x       y       z     vdW  Elec       q    Type
REMARK                         _______ _______ _______ _____ _____    ______ ____
ROOT
ATOM      1  C   UNL     1      -0.019   1.526   0.010  0.00  0.00    +0.033 C 
ATOM      2  C   UNL     1       0.002  -0.004   0.002  0.00  0.00    +0.100 C 
ENDROOT
BRANCH   2   3
ATOM      3  C   UNL     1      -1.412  -0.526   0.013  0.00  0.00    -0.025 A 
ATOM      4  C   UNL     1      -2.140  -0.568  -1.164  0.00  0.00    +0.007 A 
ATOM      5  C   UNL     1      -3.436  -1.044  -1.164  0.00  0.00    +0.028 A 
ATOM      6  C   UNL     1      -4.011  -1.482   0.019  0.00  0.00    +0.067 A 
ATOM      7  C   UNL     1      -3.276  -1.440   1.206  0.00  0.00    +0.067 A 
ATOM      8  C   UNL     1      -1.974  -0.965   1.195  0.00  0.00    +0.033 A 
ATOM      9  N   UNL     1      -4.104  -1.937   2.210  0.00  0.00    -0.306 N 
ATOM     10  H   UNL     1      -3.868  -2.030   3.146  0.00  0.00    +0.170 HD
ATOM     11  C   UNL     1      -5.288  -2.267   1.659  0.00  0.00    +0.325 A 
ATOM     12  O   UNL     1      -6.237  -2.732   2.262  0.00  0.00    -0.247 OA
ATOM     13  N   UNL     1      -5.262  -2.004   0.338  0.00  0.00    -0.306 N 
ATOM     14  H   UNL     1      -5.991  -2.152  -0.284  0.00  0.00    +0.170 HD
ENDBRANCH   2   3
BRANCH   2  15
ATOM     15  N   UNL     1       0.688  -0.476  -1.203  0.00  0.00    -0.306 N 
ATOM     16  C   UNL     1       2.031  -0.587  -1.215  0.00  0.00    +0.251 C 
ATOM     17  O   UNL     1       2.672  -0.295  -0.228  0.00  0.00    -0.272 OA
ATOM     18  H   UNL     1       0.175  -0.710  -1.993  0.00  0.00    +0.149 HD
BRANCH  16  19
ATOM     19  C   UNL     1       2.736  -1.073  -2.455  0.00  0.00    +0.324 C 
BRANCH  19  20
ATOM     20  O   UNL     1       4.146  -1.103  -2.220  0.00  0.00    -0.481 OA
BRANCH  20  21
ATOM     21  C   UNL     1       4.933  -1.522  -3.246  0.00  0.00    +0.140 A 
ATOM     22  C   UNL     1       4.362  -1.890  -4.455  0.00  0.00    +0.048 A 
ATOM     23  C   UNL     1       5.164  -2.314  -5.497  0.00  0.00    +0.023 A 
ATOM     24  C   UNL     1       6.537  -2.373  -5.335  0.00  0.00    +0.043 A 
ATOM     25  C   UNL     1       7.110  -2.007  -4.130  0.00  0.00    +0.043 A 
ATOM     26  C   UNL     1       6.311  -1.576  -3.087  0.00  0.00    +0.084 A 
ATOM     27 CL   UNL     1       7.031  -1.109  -1.578  0.00  0.00    -0.080 Cl
ATOM     28 CL   UNL     1       7.542  -2.908  -6.646  0.00  0.00    -0.083 Cl
ENDBRANCH  20  21
ENDBRANCH  19  20
ENDBRANCH  16  19
ENDBRANCH   2  15
TORSDOF 5
