REMARK  Name = ZINC39960646
REMARK  5 active torsions:
REMARK  status: ('A' for Active; 'I' for Inactive)
REMARK    1  A    between atoms: C_1  and  C_2
REMARK    2  A    between atoms: N_6  and  C_7
REMARK    3  A    between atoms: C_7  and  C_8
REMARK    4  A    between atoms: C_20  and  O_26
REMARK    5  A    between atoms: N_24  and  C_25
REMARK                            x       y       z     vdW  Elec       q    Type
REMARK                         _______ _______ _______ _____ _____    ______ ____
ROOT
ATOM      1  C   UNL     1      -1.162   0.099   2.871  0.00  0.00    +0.076 C 
ATOM      2  C   UNL     1      -1.031   0.638   4.285  0.00  0.00    +0.014 C 
ATOM      3  C   UNL     1      -0.320   1.969   4.321  0.00  0.00    +0.024 C 
ATOM      4  C   UNL     1      -0.842   3.019   3.403  0.00  0.00    +0.088 C 
ATOM      5  C   UNL     1      -1.362   2.590   2.043  0.00  0.00    +0.108 C 
ATOM      6  C   UNL     1      -1.700   1.144   1.950  0.00  0.00    +0.147 C 
ATOM      7  O   UNL     1      -2.469   0.799   1.085  0.00  0.00    -0.296 OA
ATOM      8  C   UNL     1      -2.609   3.421   1.859  0.00  0.00    -0.011 A 
ATOM      9  C   UNL     1      -3.434   3.528   0.756  0.00  0.00    +0.051 A 
ATOM     10  C   UNL     1      -4.537   4.373   0.871  0.00  0.00    +0.117 A 
ATOM     11  C   UNL     1      -4.788   5.071   2.039  0.00  0.00    +0.047 A 
ATOM     12  C   UNL     1      -3.960   4.969   3.146  0.00  0.00    +0.027 A 
ATOM     13  C   UNL     1      -2.849   4.126   3.039  0.00  0.00    +0.034 A 
ATOM     14  N   UNL     1      -1.885   3.864   3.985  0.00  0.00    -0.329 N 
ATOM     15  C   UNL     1      -1.902   4.370   5.359  0.00  0.00    +0.129 C 
ENDROOT
BRANCH  10  16
ATOM     16  O   UNL     1      -5.381   4.515  -0.186  0.00  0.00    -0.507 OA
ATOM     17  H   UNL     1      -6.112   3.882  -0.193  0.00  0.00    +0.292 HD
ENDBRANCH  10  16
BRANCH   1  18
ATOM     18  C   UNL     1       0.214  -0.349   2.374  0.00  0.00    +0.134 C 
BRANCH  18  24
ATOM     19  C   UNL     1      -0.635  -3.314   2.071  0.00  0.00    +0.084 C 
ATOM     20  C   UNL     1       0.334  -2.758   3.082  0.00  0.00    +0.084 A 
ATOM     21  N   UNL     1       0.970  -3.451   3.987  0.00  0.00    -0.350 N 
ATOM     22  C   UNL     1       1.746  -2.629   4.709  0.00  0.00    +0.101 A 
ATOM     23  C   UNL     1       1.583  -1.379   4.235  0.00  0.00    +0.104 A 
ATOM     24  N   UNL     1       0.692  -1.461   3.200  0.00  0.00    -0.335 N 
ATOM     25  H   UNL     1       0.895  -4.410   4.116  0.00  0.00    +0.166 HD
ENDBRANCH  18  24
ENDBRANCH   1  18
TORSDOF 3
