REMARK  Name = ZINC63625042
REMARK  7 active torsions:
REMARK  status: ('A' for Active; 'I' for Inactive)
REMARK    1  A    between atoms: C_1  and  C_2
REMARK    2  A    between atoms: C_2  and  C_3
REMARK    3  A    between atoms: C_6  and  S_9
REMARK    4  A    between atoms: S_9  and  N_12
REMARK    5  A    between atoms: C_25  and  C_27
REMARK    6  A    between atoms: C_30  and  S_33
REMARK    7  A    between atoms: S_33  and  C_34
REMARK                            x       y       z     vdW  Elec       q    Type
REMARK                         _______ _______ _______ _____ _____    ______ ____
ROOT
ATOM      1  N   UNL     1       3.554  -0.721   5.734  0.00  0.00    -0.167 NA
ATOM      2  C   UNL     1       4.849  -0.160   5.336  0.00  0.00    +0.114 C 
ATOM      3  C   UNL     1       5.775  -0.085   6.564  0.00  0.00    +0.050 C 
ATOM      4  C   UNL     1       4.953   0.492   7.690  0.00  0.00    -0.035 C 
ATOM      5  C   UNL     1       5.180   1.511   8.509  0.00  0.00    -0.001 A 
ATOM      6  C   UNL     1       6.355   2.378   8.693  0.00  0.00    +0.010 A 
ATOM      7  C   UNL     1       6.237   3.358   9.627  0.00  0.00    +0.001 A 
ATOM      8  C   UNL     1       5.082   3.560  10.388  0.00  0.00    +0.002 A 
ATOM      9  C   UNL     1       3.958   2.806  10.291  0.00  0.00    +0.026 A 
ATOM     10  C   UNL     1       3.964   1.738   9.348  0.00  0.00    +0.043 A 
ATOM     11  N   UNL     1       3.048   0.858   9.068  0.00  0.00    -0.376 N 
ATOM     12  C   UNL     1       3.587  -0.067   8.070  0.00  0.00    +0.129 C 
ATOM     13  C   UNL     1       2.748  -0.079   6.783  0.00  0.00    +0.136 C 
ATOM     14  H   UNL     1       2.159   0.821   9.455  0.00  0.00    +0.160 HD
ENDROOT
BRANCH  13  15
ATOM     15  C   UNL     1       1.480  -0.863   7.005  0.00  0.00    -0.026 A 
ATOM     16  C   UNL     1       1.442  -1.856   7.967  0.00  0.00    +0.006 A 
ATOM     17  C   UNL     1       0.282  -2.576   8.172  0.00  0.00    +0.015 A 
ATOM     18  C   UNL     1      -0.848  -2.304   7.411  0.00  0.00    +0.008 A 
ATOM     19  C   UNL     1      -0.806  -1.305   6.445  0.00  0.00    +0.015 A 
ATOM     20  C   UNL     1       0.356  -0.585   6.249  0.00  0.00    +0.006 A 
BRANCH  18  21
ATOM     21  S   UNL     1      -2.329  -3.221   7.669  0.00  0.00    -0.129 S 
ATOM     22  C   UNL     1      -3.495  -2.519   6.469  0.00  0.00    +0.090 C 
ENDBRANCH  18  21
ENDBRANCH  13  15
BRANCH   1  23
ATOM     23  S   UNL     1       2.990  -2.089   4.989  0.00  0.00    +0.061 S 
ATOM     24  O   UNL     1       2.024  -2.658   5.862  0.00  0.00    -0.153 OA
ATOM     25  O   UNL     1       4.131  -2.809   4.543  0.00  0.00    -0.153 OA
BRANCH  23  29
ATOM     26  C   UNL     1       0.762  -0.771   1.275  0.00  0.00    -0.048 A 
ATOM     27  C   UNL     1       2.142  -0.853   1.261  0.00  0.00    +0.005 A 
ATOM     28  C   UNL     1       2.822  -1.255   2.395  0.00  0.00    +0.029 A 
ATOM     29  C   UNL     1       2.123  -1.575   3.544  0.00  0.00    +0.106 A 
ATOM     30  C   UNL     1       0.743  -1.492   3.558  0.00  0.00    +0.029 A 
ATOM     31  C   UNL     1       0.063  -1.086   2.426  0.00  0.00    +0.005 A 
BRANCH  26  33
ATOM     32  C   UNL     1      -0.138   1.189   0.052  0.00  0.00    +0.009 C 
ATOM     33  C   UNL     1       0.021  -0.333   0.039  0.00  0.00    +0.032 C 
ENDBRANCH  26  33
ENDBRANCH  23  29
ENDBRANCH   1  23
TORSDOF 5
