REMARK  Name = ZINC20286561
REMARK  10 active torsions:
REMARK  status: ('A' for Active; 'I' for Inactive)
REMARK    1  A    between atoms: C_1  and  C_2
REMARK    2  A    between atoms: C_2  and  C_3
REMARK    3  A    between atoms: C_8  and  N_9
REMARK    4  A    between atoms: C_10  and  C_12
REMARK    5  A    between atoms: C_12  and  C_14
REMARK    6  A    between atoms: C_12  and  N_20
REMARK    7  A    between atoms: N_20  and  S_21
REMARK    8  A    between atoms: S_21  and  C_24
REMARK    9  A    between atoms: N_32  and  C_37
REMARK   10  A    between atoms: N_35  and  C_36
REMARK                            x       y       z     vdW  Elec       q    Type
REMARK                         _______ _______ _______ _____ _____    ______ ____
ROOT
ATOM      1  C   UNL     1       4.858   1.485  -0.253  0.00  0.00    +0.192 C 
ENDROOT
BRANCH   1   2
ATOM      2  C   UNL     1       4.829   0.625  -1.490  0.00  0.00    -0.020 A 
ATOM      3  C   UNL     1       5.057   1.191  -2.730  0.00  0.00    +0.006 A 
ATOM      4  C   UNL     1       5.035   0.402  -3.865  0.00  0.00    +0.000 A 
ATOM      5  C   UNL     1       4.775  -0.952  -3.760  0.00  0.00    +0.000 A 
ATOM      6  C   UNL     1       4.541  -1.517  -2.520  0.00  0.00    +0.000 A 
ATOM      7  C   UNL     1       4.568  -0.728  -1.385  0.00  0.00    +0.006 A 
ENDBRANCH   1   2
BRANCH   1   9
ATOM      8  N   UNL     1       2.397   1.533  -0.013  0.00  0.00    -0.284 N 
ATOM      9  C   UNL     1       3.550   2.222  -0.122  0.00  0.00    +0.240 C 
ATOM     10  O   UNL     1       3.535   3.435  -0.115  0.00  0.00    -0.273 OA
ATOM     11  H   UNL     1       2.416   0.436   0.055  0.00  0.00    +0.155 HD
BRANCH   8  17
ATOM     12  C   UNL     1       0.050   1.650  -0.574  0.00  0.00    -0.026 A 
ATOM     13  C   UNL     1      -1.153   2.328  -0.551  0.00  0.00    +0.005 A 
ATOM     14  C   UNL     1      -1.241   3.563   0.065  0.00  0.00    +0.000 A 
ATOM     15  C   UNL     1      -0.123   4.128   0.651  0.00  0.00    +0.002 A 
ATOM     16  C   UNL     1       1.084   3.458   0.627  0.00  0.00    +0.023 A 
ATOM     17  C   UNL     1       1.175   2.215   0.013  0.00  0.00    +0.037 A 
BRANCH  12  19
ATOM     18  C   UNL     1      -0.032  -0.799  -0.192  0.00  0.00    +0.009 C 
ATOM     19  C   UNL     1       0.144   0.302  -1.240  0.00  0.00    +0.033 C 
ENDBRANCH  12  19
ENDBRANCH   8  17
ENDBRANCH   1   9
BRANCH   1  20
ATOM     20  N   UNL     1       5.955   2.451  -0.355  0.00  0.00    -0.174 NA
ATOM     21  H   UNL     1       5.859   3.323  -1.019  0.00  0.00    +0.149 HD
BRANCH  20  22
ATOM     22  S   UNL     1       7.425   2.110   0.327  0.00  0.00    +0.059 S 
ATOM     23  O   UNL     1       8.272   3.213   0.038  0.00  0.00    -0.153 OA
ATOM     24  O   UNL     1       7.165   1.676   1.655  0.00  0.00    -0.153 OA
BRANCH  22  25
ATOM     25  C   UNL     1       8.090   0.724  -0.534  0.00  0.00    +0.106 A 
ATOM     26  C   UNL     1       8.885   0.925  -1.653  0.00  0.00    +0.030 A 
ATOM     27  C   UNL     1       9.415  -0.148  -2.341  0.00  0.00    +0.028 A 
ATOM     28  C   UNL     1       9.151  -1.440  -1.912  0.00  0.00    +0.058 A 
ATOM     29  C   UNL     1       8.345  -1.644  -0.778  0.00  0.00    +0.065 A 
ATOM     30  C   UNL     1       7.821  -0.553  -0.089  0.00  0.00    +0.043 A 
ATOM     31  C   UNL     1       8.085  -3.030  -0.349  0.00  0.00    +0.264 A 
ATOM     32  O   UNL     1       7.394  -3.262   0.625  0.00  0.00    -0.267 OA
ATOM     33  N   UNL     1       8.632  -4.036  -1.065  0.00  0.00    -0.263 N 
ATOM     34  C   UNL     1       9.394  -3.789  -2.142  0.00  0.00    +0.332 A 
ATOM     35  O   UNL     1       9.862  -4.731  -2.752  0.00  0.00    -0.246 OA
ATOM     36  N   UNL     1       9.663  -2.545  -2.575  0.00  0.00    -0.296 N 
ATOM     37  C   UNL     1      10.505  -2.355  -3.759  0.00  0.00    +0.154 C 
ATOM     38  C   UNL     1       8.388  -5.422  -0.660  0.00  0.00    +0.157 C 
ENDBRANCH  22  25
ENDBRANCH  20  22
ENDBRANCH   1  20
TORSDOF 7
