REMARK  Name = ZINC64066348
REMARK  8 active torsions:
REMARK  status: ('A' for Active; 'I' for Inactive)
REMARK    1  A    between atoms: C_1  and  O_2
REMARK    2  A    between atoms: O_2  and  C_3
REMARK    3  A    between atoms: C_4  and  C_9
REMARK    4  A    between atoms: C_9  and  N_10
REMARK    5  A    between atoms: N_13  and  C_14
REMARK    6  A    between atoms: C_14  and  C_15
REMARK    7  A    between atoms: C_15  and  C_17
REMARK    8  A    between atoms: C_15  and  C_22
REMARK                            x       y       z     vdW  Elec       q    Type
REMARK                         _______ _______ _______ _____ _____    ______ ____
ROOT
ATOM      1  C   UNL     1       3.476  -4.352   3.086  0.00  0.00    +0.118 C 
ENDROOT
BRANCH   1   5
ATOM      2  N   UNL     1       0.580  -2.891   1.353  0.00  0.00    -0.295 N 
ATOM      3  C   UNL     1       1.725  -3.565   1.586  0.00  0.00    +0.300 C 
ATOM      4  O   UNL     1       2.299  -4.122   0.670  0.00  0.00    -0.253 OA
ATOM      5  N   UNL     1       2.232  -3.620   2.833  0.00  0.00    -0.299 N 
ATOM      6  H   UNL     1       0.122  -2.447   2.084  0.00  0.00    +0.151 HD
ATOM      7  H   UNL     1       1.774  -3.175   3.563  0.00  0.00    +0.150 HD
BRANCH   2   8
ATOM      8  C   UNL     1       0.029  -2.831  -0.002  0.00  0.00    +0.146 C 
BRANCH   8  10
ATOM      9  C   UNL     1      -1.198  -0.636   0.010  0.00  0.00    +0.219 A 
ATOM     10  C   UNL     1      -1.244  -2.025   0.009  0.00  0.00    +0.031 A 
ATOM     11  C   UNL     1      -2.475  -2.658   0.018  0.00  0.00    +0.012 A 
ATOM     12  C   UNL     1      -3.622  -1.875   0.027  0.00  0.00    +0.020 A 
ATOM     13  C   UNL     1      -3.501  -0.500   0.028  0.00  0.00    +0.114 A 
ATOM     14  N   UNL     1      -2.313   0.075   0.025  0.00  0.00    -0.221 NA
BRANCH   9  16
ATOM     15  C   UNL     1      -0.017   1.425   0.010  0.00  0.00    +0.279 C 
ATOM     16  O   UNL     1       0.002  -0.004   0.002  0.00  0.00    -0.479 OA
ENDBRANCH   9  16
ENDBRANCH   8  10
ENDBRANCH   2   8
ENDBRANCH   1   5
BRANCH   1  17
ATOM     17  C   UNL     1       3.829  -4.259   4.572  0.00  0.00    +0.071 C 
BRANCH  17  18
ATOM     18  C   UNL     1       5.039  -5.112   4.854  0.00  0.00    -0.032 C 
ATOM     19  C   UNL     1       5.113  -6.163   5.702  0.00  0.00    -0.000 A 
ATOM     20  C   UNL     1       4.127  -6.803   6.581  0.00  0.00    +0.010 A 
ATOM     21  C   UNL     1       4.505  -7.864   7.329  0.00  0.00    +0.001 A 
ATOM     22  C   UNL     1       5.813  -8.366   7.287  0.00  0.00    +0.002 A 
ATOM     23  C   UNL     1       6.775  -7.832   6.504  0.00  0.00    +0.026 A 
ATOM     24  C   UNL     1       6.487  -6.713   5.675  0.00  0.00    +0.043 A 
ATOM     25  N   UNL     1       7.234  -6.029   4.843  0.00  0.00    -0.380 N 
ATOM     26  C   UNL     1       6.415  -4.969   4.243  0.00  0.00    +0.145 C 
ATOM     27  H   UNL     1       8.170  -6.197   4.653  0.00  0.00    +0.160 HD
ENDBRANCH  17  18
BRANCH  17  28
ATOM     28  C   UNL     1       4.131  -2.826   4.928  0.00  0.00    -0.002 A 
ATOM     29  C   UNL     1       3.517  -2.024   5.833  0.00  0.00    +0.012 A 
ATOM     30  C   UNL     1       3.969  -0.728   5.994  0.00  0.00    +0.008 A 
ATOM     31  C   UNL     1       5.011  -0.297   5.243  0.00  0.00    +0.045 A 
ATOM     32  S   UNL     1       5.393  -1.746   4.274  0.00  0.00    -0.101 S 
ENDBRANCH  17  28
ENDBRANCH   1  17
TORSDOF 7
