REMARK  Name = ZINC20906089
REMARK  12 active torsions:
REMARK  status: ('A' for Active; 'I' for Inactive)
REMARK    1  A    between atoms: C_1  and  C_2
REMARK    2  A    between atoms: N_4  and  C_5
REMARK    3  A    between atoms: C_10  and  N_11
REMARK    4  A    between atoms: C_12  and  C_14
REMARK    5  A    between atoms: C_14  and  C_15
REMARK    6  A    between atoms: C_15  and  S_16
REMARK    7  A    between atoms: S_16  and  C_17
REMARK    8  A    between atoms: N_22  and  N_23
REMARK    9  A    between atoms: C_24  and  C_25
REMARK   10  A    between atoms: C_28  and  C_31
REMARK   11  A    between atoms: C_31  and  O_33
REMARK   12  A    between atoms: O_33  and  C_34
REMARK                            x       y       z     vdW  Elec       q    Type
REMARK                         _______ _______ _______ _____ _____    ______ ____
ROOT
ATOM      1  C   UNL     1      -6.868   9.453   0.059  0.00  0.00    +0.210 A 
ATOM      2  N   UNL     1      -7.334   8.165   0.041  0.00  0.00    -0.186 NA
ATOM      3  C   UNL     1      -6.217   7.369   0.042  0.00  0.00    +0.232 A 
ATOM      4  N   UNL     1      -5.176   8.164   0.065  0.00  0.00    -0.245 N 
ATOM      5  N   UNL     1      -5.559   9.390   0.070  0.00  0.00    -0.144 NA
ATOM      6  N   UNL     1      -6.195   5.982   0.028  0.00  0.00    -0.205 N 
ATOM      7  H   UNL     1      -7.138   5.416   0.014  0.00  0.00    +0.177 HD
ATOM      8  H   UNL     1      -4.161   7.740   0.076  0.00  0.00    +0.192 HD
ENDROOT
BRANCH   6   9
ATOM      9  N   UNL     1      -4.970   5.301   0.031  0.00  0.00    -0.188 NA
ATOM     10  C   UNL     1      -4.949   4.001   0.017  0.00  0.00    +0.138 C 
BRANCH  10  11
ATOM     11  C   UNL     1      -3.663   3.286   0.021  0.00  0.00    -0.005 A 
ATOM     12  C   UNL     1      -3.640   1.887   0.006  0.00  0.00    +0.010 A 
ATOM     13  C   UNL     1      -2.446   1.224   0.009  0.00  0.00    +0.015 A 
ATOM     14  C   UNL     1      -1.246   1.943   0.025  0.00  0.00    +0.059 A 
ATOM     15  C   UNL     1      -1.269   3.342   0.045  0.00  0.00    +0.015 A 
ATOM     16  C   UNL     1      -2.462   4.005   0.038  0.00  0.00    +0.010 A 
BRANCH  14  17
ATOM     17  C   UNL     1       0.042   1.227   0.028  0.00  0.00    +0.339 C 
ATOM     18  O   UNL     1       0.062   0.012   0.016  0.00  0.00    -0.245 OA
BRANCH  17  19
ATOM     19  O   UNL     1       1.198   1.919   0.039  0.00  0.00    -0.464 OA
ATOM     20  C   UNL     1       2.429   1.149   0.035  0.00  0.00    +0.280 C 
ENDBRANCH  17  19
ENDBRANCH  14  17
ENDBRANCH  10  11
ENDBRANCH   6   9
BRANCH   1  21
ATOM     21  S   UNL     1      -7.845  10.919   0.067  0.00  0.00    -0.084 S 
BRANCH  21  22
ATOM     22  C   UNL     1      -6.537  12.169   0.092  0.00  0.00    +0.086 C 
BRANCH  22  23
ATOM     23  C   UNL     1      -7.164  13.565   0.102  0.00  0.00    +0.107 C 
BRANCH  23  25
ATOM     24  N   UNL     1      -6.394  15.915   0.135  0.00  0.00    -0.284 N 
ATOM     25  C   UNL     1      -6.075  14.605   0.123  0.00  0.00    +0.218 C 
ATOM     26  O   UNL     1      -4.911  14.265   0.130  0.00  0.00    -0.275 OA
ATOM     27  H   UNL     1      -7.446  16.225   0.055  0.00  0.00    +0.155 HD
BRANCH  24  33
ATOM     28  C   UNL     1      -5.622  18.058   0.957  0.00  0.00    +0.055 A 
ATOM     29  C   UNL     1      -4.619  19.010   1.066  0.00  0.00    +0.025 A 
ATOM     30  C   UNL     1      -3.390  18.790   0.474  0.00  0.00    +0.002 A 
ATOM     31  C   UNL     1      -3.155  17.621  -0.228  0.00  0.00    +0.002 A 
ATOM     32  C   UNL     1      -4.147  16.665  -0.338  0.00  0.00    +0.025 A 
ATOM     33  C   UNL     1      -5.386  16.881   0.248  0.00  0.00    +0.055 A 
BRANCH  28  37
ATOM     34  C   UNL     1      -8.760  19.751   2.168  0.00  0.00    +0.109 C 
ATOM     35  C   UNL     1      -7.376  19.526   1.615  0.00  0.00    +0.214 C 
ATOM     36  O   UNL     1      -6.720  20.467   1.222  0.00  0.00    -0.276 OA
ATOM     37  N   UNL     1      -6.868  18.279   1.556  0.00  0.00    -0.284 N 
ATOM     38  H   UNL     1      -7.432  17.435   1.980  0.00  0.00    +0.155 HD
ENDBRANCH  28  37
ENDBRANCH  24  33
ENDBRANCH  23  25
ENDBRANCH  22  23
ENDBRANCH  21  22
ENDBRANCH   1  21
TORSDOF 10
