REMARK  Name = ZINC59729848
REMARK  11 active torsions:
REMARK  status: ('A' for Active; 'I' for Inactive)
REMARK    1  A    between atoms: C_1  and  C_2
REMARK    2  A    between atoms: C_2  and  O_3
REMARK    3  A    between atoms: O_3  and  C_4
REMARK    4  A    between atoms: C_4  and  C_6
REMARK    5  A    between atoms: C_9  and  N_12
REMARK    6  A    between atoms: C_13  and  C_15
REMARK    7  A    between atoms: C_15  and  N_26
REMARK    8  A    between atoms: C_16  and  C_17
REMARK    9  A    between atoms: C_21  and  N_23
REMARK   10  A    between atoms: C_27  and  C_29
REMARK   11  A    between atoms: C_30  and  C_31
REMARK                            x       y       z     vdW  Elec       q    Type
REMARK                         _______ _______ _______ _____ _____    ______ ____
ROOT
ATOM      1  C   UNL     1      -8.155  -5.760   0.024  0.00  0.00    +0.097 C 
ATOM      2  C   UNL     1      -9.234  -4.945  -0.028  0.00  0.00    +0.036 C 
ENDROOT
BRANCH   2   3
ATOM      3  C   UNL     1      -9.057  -3.485   0.017  0.00  0.00    -0.021 A 
ATOM      4  C   UNL     1      -8.001  -2.884  -0.677  0.00  0.00    +0.008 A 
ATOM      5  C   UNL     1      -7.842  -1.515  -0.630  0.00  0.00    +0.003 A 
ATOM      6  C   UNL     1      -8.722  -0.736   0.102  0.00  0.00    +0.033 A 
ATOM      7  C   UNL     1      -9.769  -1.324   0.791  0.00  0.00    +0.127 A 
ATOM      8  C   UNL     1      -9.945  -2.691   0.749  0.00  0.00    +0.040 A 
BRANCH   7   9
ATOM      9  N   UNL     1     -10.704  -0.482   1.570  0.00  0.00    +0.056 N 
ATOM     10  O   UNL     1     -10.554   0.717   1.603  0.00  0.00    -0.126 OA
ATOM     11  O   UNL     1     -11.619  -0.994   2.172  0.00  0.00    -0.126 OA
ENDBRANCH   7   9
ENDBRANCH   2   3
BRANCH   1  13
ATOM     12  N   UNL     1      -6.519  -4.895   1.615  0.00  0.00    -0.280 N 
ATOM     13  C   UNL     1      -6.831  -5.207   0.342  0.00  0.00    +0.262 C 
ATOM     14  O   UNL     1      -6.016  -5.030  -0.544  0.00  0.00    -0.268 OA
ATOM     15  H   UNL     1      -7.132  -5.117   2.333  0.00  0.00    +0.155 HD
BRANCH  12  19
ATOM     16  C   UNL     1      -2.924  -2.974   2.468  0.00  0.00    +0.059 A 
ATOM     17  C   UNL     1      -4.021  -2.819   3.321  0.00  0.00    +0.017 A 
ATOM     18  C   UNL     1      -5.208  -3.455   3.036  0.00  0.00    +0.024 A 
ATOM     19  C   UNL     1      -5.317  -4.252   1.901  0.00  0.00    +0.034 A 
ATOM     20  C   UNL     1      -4.227  -4.410   1.050  0.00  0.00    +0.024 A 
ATOM     21  C   UNL     1      -3.039  -3.771   1.325  0.00  0.00    +0.017 A 
BRANCH  16  22
ATOM     22  C   UNL     1      -1.651  -2.294   2.771  0.00  0.00    +0.339 C 
ATOM     23  O   UNL     1      -0.700  -2.426   2.026  0.00  0.00    -0.245 OA
BRANCH  22  24
ATOM     24  O   UNL     1      -1.543  -1.527   3.873  0.00  0.00    -0.461 OA
BRANCH  24  26
ATOM     25  C   UNL     1      -0.348  -0.074   5.391  0.00  0.00    +0.048 C 
ATOM     26  C   UNL     1      -0.280  -0.898   4.103  0.00  0.00    +0.229 C 
ENDBRANCH  24  26
ENDBRANCH  22  24
ENDBRANCH  16  22
ENDBRANCH  12  19
ENDBRANCH   1  13
BRANCH   1  27
ATOM     27  N   UNL     1      -8.300  -7.127  -0.226  0.00  0.00    -0.278 N 
ATOM     28  C   UNL     1      -7.273  -7.967   0.011  0.00  0.00    +0.241 C 
ATOM     29  O   UNL     1      -6.263  -7.557   0.553  0.00  0.00    -0.270 OA
ATOM     30  H   UNL     1      -9.139  -7.471  -0.570  0.00  0.00    +0.155 HD
BRANCH  28  31
ATOM     31  C   UNL     1      -7.373  -9.374  -0.383  0.00  0.00    +0.068 C 
ATOM     32  C   UNL     1      -6.346 -10.214  -0.146  0.00  0.00    +0.013 C 
BRANCH  32  33
ATOM     33  C   UNL     1      -6.446 -11.629  -0.542  0.00  0.00    -0.025 A 
ATOM     34  C   UNL     1      -7.602 -12.102  -1.170  0.00  0.00    +0.008 A 
ATOM     35  C   UNL     1      -7.688 -13.428  -1.538  0.00  0.00    +0.001 A 
ATOM     36  C   UNL     1      -6.634 -14.290  -1.288  0.00  0.00    +0.000 A 
ATOM     37  C   UNL     1      -5.486 -13.828  -0.667  0.00  0.00    +0.001 A 
ATOM     38  C   UNL     1      -5.383 -12.504  -0.298  0.00  0.00    +0.008 A 
ENDBRANCH  32  33
ENDBRANCH  28  31
ENDBRANCH   1  27
TORSDOF 10
