REMARK  Name = ZINC39583546
REMARK  14 active torsions:
REMARK  status: ('A' for Active; 'I' for Inactive)
REMARK    1  A    between atoms: C_1  and  C_2
REMARK    2  A    between atoms: C_5  and  C_8
REMARK    3  A    between atoms: C_10  and  C_14
REMARK    4  A    between atoms: N_16  and  N_17
REMARK    5  A    between atoms: C_18  and  C_19
REMARK    6  A    between atoms: C_21  and  C_30
REMARK    7  A    between atoms: C_22  and  O_29
REMARK    8  A    between atoms: C_23  and  C_25
REMARK    9  A    between atoms: C_25  and  C_26
REMARK   10  A    between atoms: C_25  and  C_27
REMARK   11  A    between atoms: C_25  and  C_28
REMARK   12  A    between atoms: C_30  and  C_31
REMARK   13  A    between atoms: C_30  and  C_32
REMARK   14  A    between atoms: C_30  and  C_33
REMARK                            x       y       z     vdW  Elec       q    Type
REMARK                         _______ _______ _______ _____ _____    ______ ____
ROOT
ATOM      1  N   UNL     1       2.573  -8.373   2.608  0.00  0.00    -0.188 NA
ATOM      2  C   UNL     1       2.644  -8.885   3.798  0.00  0.00    +0.138 C 
ENDROOT
BRANCH   2   3
ATOM      3  C   UNL     1       3.865  -9.593   4.225  0.00  0.00    -0.005 A 
ATOM      4  C   UNL     1       4.949  -9.709   3.351  0.00  0.00    +0.017 A 
ATOM      5  C   UNL     1       6.088 -10.371   3.754  0.00  0.00    +0.000 A 
ATOM      6  C   UNL     1       6.160 -10.922   5.027  0.00  0.00    +0.124 A 
ATOM      7  C   UNL     1       5.085 -10.810   5.899  0.00  0.00    +0.000 A 
ATOM      8  C   UNL     1       3.943 -10.145   5.506  0.00  0.00    +0.017 A 
BRANCH   7   9
ATOM      9  C   UNL     1       5.168 -11.411   7.278  0.00  0.00    -0.009 C 
ATOM     10  C   UNL     1       3.862 -11.148   8.029  0.00  0.00    +0.015 C 
ATOM     11  C   UNL     1       5.396 -12.920   7.163  0.00  0.00    +0.015 C 
ATOM     12  C   UNL     1       6.332 -10.776   8.041  0.00  0.00    +0.015 C 
ENDBRANCH   7   9
BRANCH   5  13
ATOM     13  C   UNL     1       7.258 -10.497   2.812  0.00  0.00    -0.009 C 
ATOM     14  C   UNL     1       6.922  -9.810   1.487  0.00  0.00    +0.015 C 
ATOM     15  C   UNL     1       8.488  -9.833   3.434  0.00  0.00    +0.015 C 
ATOM     16  C   UNL     1       7.551 -11.977   2.559  0.00  0.00    +0.015 C 
ENDBRANCH   5  13
BRANCH   6  17
ATOM     17  O   UNL     1       7.285 -11.574   5.420  0.00  0.00    -0.506 OA
ATOM     18  H   UNL     1       7.942 -11.005   5.843  0.00  0.00    +0.292 HD
ENDBRANCH   6  17
ENDBRANCH   2   3
BRANCH   1  21
ATOM     19  C   UNL     1       1.339  -7.169   0.966  0.00  0.00    +0.263 C 
ATOM     20  O   UNL     1       2.277  -7.273   0.204  0.00  0.00    -0.271 OA
ATOM     21  N   UNL     1       1.412  -7.700   2.203  0.00  0.00    -0.205 N 
ATOM     22  H   UNL     1       0.662  -7.617   2.812  0.00  0.00    +0.177 HD
BRANCH  19  25
ATOM     23  C   UNL     1       0.061  -4.256  -0.021  0.00  0.00    +0.092 C 
ATOM     24  C   UNL     1       0.071  -5.030   1.081  0.00  0.00    +0.041 C 
ATOM     25  C   UNL     1       0.090  -6.445   0.530  0.00  0.00    +0.240 C 
ATOM     26  N   UNL     1       0.087  -6.239  -0.927  0.00  0.00    -0.170 NA
ATOM     27  N   UNL     1       0.065  -5.025  -1.142  0.00  0.00    -0.153 NA
BRANCH  23  32
ATOM     28  C   UNL     1      -0.018   1.503   0.010  0.00  0.00    +0.044 C 
ATOM     29  C   UNL     1       0.002  -0.004   0.002  0.00  0.00    -0.050 A 
ATOM     30  C   UNL     1       0.006  -0.686  -1.201  0.00  0.00    +0.004 A 
ATOM     31  C   UNL     1       0.025  -2.066  -1.215  0.00  0.00    +0.010 A 
ATOM     32  C   UNL     1       0.041  -2.772  -0.013  0.00  0.00    +0.002 A 
ATOM     33  C   UNL     1       0.037  -2.080   1.196  0.00  0.00    +0.010 A 
ATOM     34  C   UNL     1       0.023  -0.700   1.198  0.00  0.00    +0.004 A 
ENDBRANCH  23  32
ENDBRANCH  19  25
ENDBRANCH   1  21
TORSDOF 7
