REMARK  Name = ZINC09331766
REMARK  6 active torsions:
REMARK  status: ('A' for Active; 'I' for Inactive)
REMARK    1  A    between atoms: C_1  and  C_2
REMARK    2  A    between atoms: C_2  and  C_3
REMARK    3  A    between atoms: C_2  and  C_4
REMARK    4  A    between atoms: C_6  and  C_10
REMARK    5  A    between atoms: N_12  and  N_13
REMARK    6  A    between atoms: C_14  and  C_15
REMARK                            x       y       z     vdW  Elec       q    Type
REMARK                         _______ _______ _______ _____ _____    ______ ____
ROOT
ATOM      1  C   UNL     1      -4.184  -2.761  -0.746  0.00  0.00    +0.283 C 
ATOM      2  O   UNL     1      -3.792  -3.679  -1.440  0.00  0.00    -0.267 OA
ATOM      3  N   UNL     1      -5.481  -2.695  -0.386  0.00  0.00    -0.202 N 
ATOM      4  H   UNL     1      -5.794  -1.963   0.168  0.00  0.00    +0.178 HD
ENDROOT
BRANCH   1   7
ATOM      5  C   UNL     1      -1.408  -0.537   0.029  0.00  0.00    +0.039 A 
ATOM      6  C   UNL     1      -1.856  -1.653  -0.590  0.00  0.00    +0.057 A 
ATOM      7  C   UNL     1      -3.239  -1.720  -0.296  0.00  0.00    +0.149 A 
ATOM      8  N   UNL     1      -3.523  -0.674   0.456  0.00  0.00    -0.169 NA
ATOM      9  N   UNL     1      -2.463   0.023   0.659  0.00  0.00    -0.281 N 
ATOM     10  H   UNL     1      -2.427   0.836   1.187  0.00  0.00    +0.189 HD
BRANCH   5  12
ATOM     11  C   UNL     1      -0.010   1.512   0.025  0.00  0.00    +0.014 C 
ATOM     12  C   UNL     1       0.007  -0.018   0.023  0.00  0.00    +0.031 C 
ATOM     13  C   UNL     1       0.740  -0.521   1.269  0.00  0.00    +0.014 C 
ENDBRANCH   5  12
ENDBRANCH   1   7
BRANCH   3  14
ATOM     14  N   UNL     1      -6.378  -3.683  -0.812  0.00  0.00    -0.187 NA
ATOM     15  C   UNL     1      -7.628  -3.619  -0.465  0.00  0.00    +0.139 C 
BRANCH  15  16
ATOM     16  C   UNL     1      -8.570  -4.657  -0.913  0.00  0.00    +0.002 A 
ATOM     17  C   UNL     1      -9.884  -4.666  -0.461  0.00  0.00    +0.010 A 
ATOM     18  C   UNL     1     -10.770  -5.646  -0.885  0.00  0.00    +0.001 A 
ATOM     19  C   UNL     1     -10.395  -6.628  -1.751  0.00  0.00    +0.008 A 
ATOM     20  C   UNL     1      -9.082  -6.681  -2.249  0.00  0.00    -0.017 A 
ATOM     21  C   UNL     1      -8.145  -5.698  -1.847  0.00  0.00    -0.009 A 
ATOM     22  C   UNL     1      -6.837  -5.744  -2.345  0.00  0.00    +0.009 A 
ATOM     23  C   UNL     1      -6.482  -6.732  -3.215  0.00  0.00    +0.001 A 
ATOM     24  C   UNL     1      -7.403  -7.697  -3.616  0.00  0.00    +0.001 A 
ATOM     25  C   UNL     1      -8.679  -7.688  -3.143  0.00  0.00    +0.008 A 
ENDBRANCH  15  16
ENDBRANCH   3  14
TORSDOF 4
