REMARK  Name = ZINC01035489
REMARK  6 active torsions:
REMARK  status: ('A' for Active; 'I' for Inactive)
REMARK    1  A    between atoms: C_1  and  C_2
REMARK    2  A    between atoms: C_2  and  N_3
REMARK    3  A    between atoms: C_4  and  C_10
REMARK    4  A    between atoms: C_11  and  N_30
REMARK    5  A    between atoms: C_13  and  C_25
REMARK    6  A    between atoms: C_15  and  C_19
REMARK                            x       y       z     vdW  Elec       q    Type
REMARK                         _______ _______ _______ _____ _____    ______ ____
ROOT
ATOM      1  C   UNL     1      -0.016   1.361   0.009  0.00  0.00    +0.196 A 
ATOM      2  C   UNL     1       0.002  -0.004   0.002  0.00  0.00    +0.084 A 
ATOM      3  C   UNL     1       1.414  -0.386  -0.013  0.00  0.00    +0.072 A 
ATOM      4  C   UNL     1       2.101  -1.618  -0.027  0.00  0.00    +0.033 A 
ATOM      5  C   UNL     1       3.497  -1.585  -0.041  0.00  0.00    +0.040 A 
ATOM      6  C   UNL     1       4.144  -0.351  -0.040  0.00  0.00    +0.076 A 
ATOM      7  N   UNL     1       3.466   0.788  -0.027  0.00  0.00    -0.212 NA
ATOM      8  C   UNL     1       2.141   0.818  -0.014  0.00  0.00    +0.231 A 
ATOM      9  O   UNL     1       1.251   1.830  -0.000  0.00  0.00    -0.432 OA
ENDROOT
BRANCH   1  11
ATOM     10  N   UNL     1      -1.260   3.574   0.028  0.00  0.00    -0.301 N 
ATOM     11  C   UNL     1      -1.227   2.191   0.020  0.00  0.00    +0.200 A 
ATOM     12  N   UNL     1      -2.458   1.749   0.018  0.00  0.00    -0.150 NA
ATOM     13  N   UNL     1      -3.316   2.857   0.033  0.00  0.00    -0.254 N 
ATOM     14  H   UNL     1      -4.286   2.831   0.038  0.00  0.00    +0.191 HD
ATOM     15  C   UNL     1      -2.549   3.966   0.036  0.00  0.00    +0.176 A 
ATOM     16  S   UNL     1      -3.112   5.583   0.046  0.00  0.00    -0.011 S 
BRANCH  10  18
ATOM     17  C   UNL     1       0.306   4.777  -1.416  0.00  0.00    +0.027 C 
ATOM     18  C   UNL     1      -0.093   4.460   0.026  0.00  0.00    +0.122 C 
ENDBRANCH  10  18
ENDBRANCH   1  11
BRANCH   6  19
ATOM     19  C   UNL     1       5.626  -0.311  -0.054  0.00  0.00    +0.000 A 
ATOM     20  C   UNL     1       6.358  -1.498  -0.061  0.00  0.00    +0.010 A 
ATOM     21  C   UNL     1       7.737  -1.454  -0.079  0.00  0.00    +0.001 A 
ATOM     22  C   UNL     1       8.394  -0.236  -0.079  0.00  0.00    +0.000 A 
ATOM     23  C   UNL     1       7.673   0.944  -0.066  0.00  0.00    +0.001 A 
ATOM     24  C   UNL     1       6.293   0.913  -0.054  0.00  0.00    +0.010 A 
ENDBRANCH   6  19
BRANCH   4  25
ATOM     25  C   UNL     1       1.370  -2.897  -0.028  0.00  0.00    +0.136 A 
ATOM     26  C   UNL     1       1.577  -3.936  -0.883  0.00  0.00    +0.050 A 
ATOM     27  C   UNL     1       0.664  -4.946  -0.523  0.00  0.00    +0.042 A 
ATOM     28  C   UNL     1      -0.052  -4.478   0.519  0.00  0.00    +0.196 A 
ATOM     29  O   UNL     1       0.376  -3.241   0.815  0.00  0.00    -0.463 OA
ENDBRANCH   4  25
BRANCH   2  30
ATOM     30  N   UNL     1      -1.102  -0.861   0.008  0.00  0.00    -0.354 N 
ATOM     31  H   UNL     1      -2.000  -0.495   0.018  0.00  0.00    +0.142 HD
ATOM     32  H   UNL     1      -0.970  -1.822   0.001  0.00  0.00    +0.142 HD
ENDBRANCH   2  30
TORSDOF 5
