REMARK  Name = ZINC08670822
REMARK  9 active torsions:
REMARK  status: ('A' for Active; 'I' for Inactive)
REMARK    1  A    between atoms: C_1  and  C_2
REMARK    2  A    between atoms: C_2  and  C_3
REMARK    3  A    between atoms: C_3  and  C_4
REMARK    4  A    between atoms: C_11  and  N_34
REMARK    5  A    between atoms: C_12  and  C_30
REMARK    6  A    between atoms: N_20  and  C_23
REMARK    7  A    between atoms: C_23  and  C_24
REMARK    8  A    between atoms: C_30  and  O_32
REMARK    9  A    between atoms: O_32  and  C_33
REMARK                            x       y       z     vdW  Elec       q    Type
REMARK                         _______ _______ _______ _____ _____    ______ ____
ROOT
ATOM      1  C   UNL     1      -1.251  -2.119   0.306  0.00  0.00    +0.071 A 
ATOM      2  C   UNL     1      -1.265  -2.982  -0.781  0.00  0.00    +0.061 A 
ATOM      3  C   UNL     1      -1.325  -4.263  -0.304  0.00  0.00    +0.223 A 
ATOM      4  N   UNL     1      -1.348  -4.195   1.037  0.00  0.00    -0.246 N 
ATOM      5  H   UNL     1      -1.389  -4.949   1.646  0.00  0.00    +0.192 HD
ATOM      6  N   UNL     1      -1.294  -2.840   1.400  0.00  0.00    -0.176 NA
ATOM      7  O   UNL     1      -1.352  -5.346  -1.119  0.00  0.00    -0.424 OA
ATOM      8  C   UNL     1      -1.052  -5.165  -2.420  0.00  0.00    +0.198 C 
ATOM      9  C   UNL     1      -0.975  -3.947  -3.012  0.00  0.00    +0.117 C 
ATOM     10  C   UNL     1      -1.227  -2.674  -2.252  0.00  0.00    +0.142 C 
ATOM     11  C   UNL     1      -2.490  -2.012  -2.701  0.00  0.00    -0.002 A 
ATOM     12  C   UNL     1      -3.801  -2.437  -2.690  0.00  0.00    +0.007 A 
ATOM     13  C   UNL     1      -4.754  -1.558  -3.192  0.00  0.00    +0.000 A 
ATOM     14  C   UNL     1      -4.401  -0.316  -3.678  0.00  0.00    +0.002 A 
ATOM     15  C   UNL     1      -3.085   0.119  -3.694  0.00  0.00    +0.024 A 
ATOM     16  C   UNL     1      -2.118  -0.754  -3.193  0.00  0.00    +0.041 A 
ATOM     17  N   UNL     1      -0.748  -0.583  -3.090  0.00  0.00    -0.265 N 
ATOM     18  C   UNL     1      -0.143  -1.662  -2.549  0.00  0.00    +0.240 C 
ATOM     19  O   UNL     1       1.044  -1.794  -2.341  0.00  0.00    -0.274 OA
ENDROOT
BRANCH   8  20
ATOM     20  N   UNL     1      -0.809  -6.273  -3.187  0.00  0.00    -0.329 N 
ATOM     21  H   UNL     1      -0.781  -7.151  -2.776  0.00  0.00    +0.145 HD
ATOM     22  H   UNL     1      -0.666  -6.180  -4.142  0.00  0.00    +0.145 HD
ENDBRANCH   8  20
BRANCH   9  23
ATOM     23  C   UNL     1      -0.652  -3.872  -4.375  0.00  0.00    +0.341 C 
ATOM     24  O   UNL     1      -1.513  -3.596  -5.191  0.00  0.00    -0.245 OA
BRANCH  23  25
ATOM     25  O   UNL     1       0.615  -4.105  -4.782  0.00  0.00    -0.465 OA
ATOM     26  C   UNL     1       0.873  -4.012  -6.184  0.00  0.00    +0.280 C 
ENDBRANCH  23  25
ENDBRANCH   9  23
BRANCH   1  27
ATOM     27  C   UNL     1      -1.190  -0.614   0.240  0.00  0.00    +0.057 C 
BRANCH  27  29
ATOM     28  C   UNL     1       0.307   1.373   0.477  0.00  0.00    +0.004 C 
ATOM     29  C   UNL     1       0.260  -0.155   0.409  0.00  0.00    +0.003 C 
ENDBRANCH  27  29
ENDBRANCH   1  27
BRANCH  17  30
ATOM     30  C   UNL     1      -0.039   0.625  -3.518  0.00  0.00    +0.148 C 
BRANCH  30  31
ATOM     31  C   UNL     1       0.278   0.528  -4.988  0.00  0.00    -0.030 A 
ATOM     32  C   UNL     1       1.414  -0.139  -5.407  0.00  0.00    +0.005 A 
ATOM     33  C   UNL     1       1.705  -0.229  -6.755  0.00  0.00    +0.000 A 
ATOM     34  C   UNL     1       0.860   0.349  -7.684  0.00  0.00    +0.000 A 
ATOM     35  C   UNL     1      -0.276   1.015  -7.265  0.00  0.00    +0.000 A 
ATOM     36  C   UNL     1      -0.570   1.101  -5.917  0.00  0.00    +0.005 A 
ENDBRANCH  30  31
ENDBRANCH  17  30
TORSDOF 7
