REMARK  Name = ZINC58069305
REMARK  19 active torsions:
REMARK  status: ('A' for Active; 'I' for Inactive)
REMARK    1  A    between atoms: C_1  and  C_2
REMARK    2  A    between atoms: C_2  and  C_3
REMARK    3  A    between atoms: C_3  and  C_4
REMARK    4  A    between atoms: C_4  and  N_5
REMARK    5  A    between atoms: C_6  and  N_36
REMARK    6  A    between atoms: C_7  and  N_14
REMARK    7  A    between atoms: N_14  and  C_15
REMARK    8  A    between atoms: C_15  and  C_16
REMARK    9  A    between atoms: C_17  and  C_19
REMARK   10  A    between atoms: C_19  and  N_20
REMARK   11  A    between atoms: N_20  and  C_21
REMARK   12  A    between atoms: C_21  and  C_23
REMARK   13  A    between atoms: C_21  and  C_33
REMARK   14  A    between atoms: C_26  and  C_29
REMARK   15  A    between atoms: C_29  and  C_30
REMARK   16  A    between atoms: C_30  and  C_31
REMARK   17  A    between atoms: C_30  and  C_32
REMARK   18  A    between atoms: C_33  and  C_34
REMARK   19  A    between atoms: C_33  and  C_35
REMARK                            x       y       z     vdW  Elec       q    Type
REMARK                         _______ _______ _______ _____ _____    ______ ____
ROOT
ATOM      1  N   UNL     1       4.887  -3.309   4.088  0.00  0.00    -0.263 N 
ATOM      2  C   UNL     1       5.572  -2.755   3.065  0.00  0.00    +0.234 C 
ATOM      3  O   UNL     1       4.981  -2.134   2.206  0.00  0.00    -0.274 OA
ENDROOT
BRANCH   1   6
ATOM      4  N   UNL     1       1.635  -2.170   5.363  0.00  0.00    -0.280 N 
ATOM      5  C   UNL     1       2.993  -2.369   5.273  0.00  0.00    +0.127 A 
ATOM      6  C   UNL     1       3.499  -3.088   4.209  0.00  0.00    +0.140 A 
ATOM      7  C   UNL     1       2.606  -3.597   3.247  0.00  0.00    +0.277 A 
ATOM      8  O   UNL     1       3.026  -4.236   2.297  0.00  0.00    -0.266 OA
ATOM      9  N   UNL     1       1.284  -3.373   3.383  0.00  0.00    -0.273 N 
ATOM     10  H   UNL     1       0.668  -3.724   2.721  0.00  0.00    +0.173 HD
ATOM     11  C   UNL     1       0.809  -2.675   4.429  0.00  0.00    +0.331 A 
ATOM     12  O   UNL     1      -0.389  -2.492   4.530  0.00  0.00    -0.246 OA
BRANCH   5  13
ATOM     13  N   UNL     1       3.836  -1.857   6.230  0.00  0.00    -0.343 N 
ATOM     14  H   UNL     1       3.479  -1.316   6.951  0.00  0.00    +0.144 HD
ATOM     15  H   UNL     1       4.788  -2.038   6.184  0.00  0.00    +0.144 HD
ENDBRANCH   5  13
BRANCH   4  16
ATOM     16  C   UNL     1       1.084  -1.408   6.487  0.00  0.00    +0.128 C 
BRANCH  16  17
ATOM     17  C   UNL     1       0.771  -2.360   7.644  0.00  0.00    +0.021 C 
BRANCH  17  19
ATOM     18  C   UNL     1      -0.117  -2.517   9.973  0.00  0.00    +0.004 C 
ATOM     19  C   UNL     1       0.196  -1.565   8.817  0.00  0.00    -0.002 C 
ENDBRANCH  17  19
ENDBRANCH  16  17
ENDBRANCH   4  16
ENDBRANCH   1   6
BRANCH   1  20
ATOM     20  C   UNL     1       5.586  -4.139   5.072  0.00  0.00    +0.110 C 
ATOM     21  C   UNL     1       5.651  -5.582   4.568  0.00  0.00    +0.025 C 
ENDBRANCH   1  20
BRANCH   2  22
ATOM     22  C   UNL     1       7.069  -2.909   2.990  0.00  0.00    +0.178 C 
BRANCH  22  23
ATOM     23  N   UNL     1       7.572  -2.221   1.793  0.00  0.00    -0.301 NA
ATOM     24  H   UNL     1       7.085  -2.532   0.966  0.00  0.00    +0.123 HD
BRANCH  23  25
ATOM     25  C   UNL     1       9.022  -2.406   1.650  0.00  0.00    +0.087 C 
BRANCH  25  26
ATOM     26  C   UNL     1       9.297  -3.734   0.991  0.00  0.00    -0.030 A 
ATOM     27  C   UNL     1       8.500  -4.165  -0.053  0.00  0.00    +0.005 A 
ATOM     28  C   UNL     1       8.752  -5.382  -0.658  0.00  0.00    +0.004 A 
ATOM     29  C   UNL     1       9.801  -6.168  -0.219  0.00  0.00    -0.047 A 
ATOM     30  C   UNL     1      10.598  -5.737   0.825  0.00  0.00    +0.004 A 
ATOM     31  C   UNL     1      10.349  -4.517   1.427  0.00  0.00    +0.005 A 
BRANCH  29  32
ATOM     32  C   UNL     1      10.075  -7.495  -0.877  0.00  0.00    +0.038 C 
BRANCH  32  33
ATOM     33  C   UNL     1      11.047  -7.296  -2.042  0.00  0.00    -0.013 C 
ATOM     34  C   UNL     1      11.423  -8.657  -2.631  0.00  0.00    +0.007 C 
ATOM     35  C   UNL     1      10.383  -6.439  -3.120  0.00  0.00    +0.007 C 
ENDBRANCH  32  33
ENDBRANCH  29  32
ENDBRANCH  25  26
BRANCH  25  36
ATOM     36  C   UNL     1       9.598  -1.280   0.789  0.00  0.00    +0.004 C 
ATOM     37  C   UNL     1       9.280   0.069   1.435  0.00  0.00    +0.009 C 
ATOM     38  C   UNL     1      11.114  -1.448   0.677  0.00  0.00    +0.009 C 
ENDBRANCH  25  36
ENDBRANCH  23  25
ENDBRANCH  22  23
ENDBRANCH   2  22
TORSDOF 13
