REMARK  Name = ZINC47518438
REMARK  12 active torsions:
REMARK  status: ('A' for Active; 'I' for Inactive)
REMARK    1  A    between atoms: C_1  and  C_2
REMARK    2  A    between atoms: C_2  and  C_4
REMARK    3  A    between atoms: C_2  and  N_16
REMARK    4  A    between atoms: C_4  and  C_5
REMARK    5  A    between atoms: C_5  and  C_6
REMARK    6  A    between atoms: C_9  and  O_12
REMARK    7  A    between atoms: O_12  and  C_13
REMARK    8  A    between atoms: C_13  and  C_14
REMARK    9  A    between atoms: C_13  and  C_15
REMARK   10  A    between atoms: N_19  and  C_20
REMARK   11  A    between atoms: C_25  and  C_26
REMARK   12  A    between atoms: C_26  and  C_27
REMARK                            x       y       z     vdW  Elec       q    Type
REMARK                         _______ _______ _______ _____ _____    ______ ____
ROOT
ATOM      1  N   UNL     1       1.191  -0.550   0.765  0.00  0.00    -0.297 N 
ATOM      2  C   UNL     1       0.377  -0.675   1.832  0.00  0.00    +0.304 C 
ATOM      3  O   UNL     1      -0.805  -0.411   1.729  0.00  0.00    -0.253 OA
ATOM      4  N   UNL     1       0.874  -1.091   3.013  0.00  0.00    -0.269 N 
ATOM      5  H   UNL     1       2.134  -0.760   0.847  0.00  0.00    +0.151 HD
ATOM      6  H   UNL     1       1.827  -1.241   3.113  0.00  0.00    +0.156 HD
ENDROOT
BRANCH   4   7
ATOM      7  C   UNL     1       0.015  -1.309   4.096  0.00  0.00    +0.038 A 
ATOM      8  C   UNL     1      -1.103  -0.503   4.271  0.00  0.00    +0.023 A 
ATOM      9  C   UNL     1      -1.949  -0.720   5.340  0.00  0.00    +0.002 A 
ATOM     10  C   UNL     1      -1.684  -1.739   6.237  0.00  0.00    +0.000 A 
ATOM     11  C   UNL     1      -0.572  -2.543   6.067  0.00  0.00    +0.006 A 
ATOM     12  C   UNL     1       0.275  -2.334   4.995  0.00  0.00    -0.017 A 
BRANCH  12  13
ATOM     13  C   UNL     1       1.483  -3.215   4.807  0.00  0.00    +0.132 C 
BRANCH  13  14
ATOM     14  C   UNL     1       2.686  -2.558   5.432  0.00  0.00    +0.215 C 
ATOM     15  O   UNL     1       2.574  -1.480   5.977  0.00  0.00    -0.276 OA
ATOM     16  N   UNL     1       3.887  -3.168   5.385  0.00  0.00    -0.329 N 
ATOM     17  H   UNL     1       3.977  -4.029   4.949  0.00  0.00    +0.145 HD
ATOM     18  H   UNL     1       4.662  -2.744   5.787  0.00  0.00    +0.145 HD
ENDBRANCH  13  14
ENDBRANCH  12  13
ENDBRANCH   4   7
BRANCH   1  20
ATOM     19  C   UNL     1       0.620   1.433  -0.549  0.00  0.00    +0.028 C 
ATOM     20  C   UNL     1       0.650  -0.097  -0.519  0.00  0.00    +0.072 C 
BRANCH  20  21
ATOM     21  C   UNL     1       1.537  -0.611  -1.655  0.00  0.00    +0.026 C 
BRANCH  21  22
ATOM     22  C   UNL     1       1.468  -2.139  -1.704  0.00  0.00    +0.037 C 
BRANCH  22  23
ATOM     23  C   UNL     1       2.341  -2.646  -2.823  0.00  0.00    -0.047 A 
ATOM     24  C   UNL     1       1.814  -2.807  -4.091  0.00  0.00    +0.007 A 
ATOM     25  C   UNL     1       2.612  -3.271  -5.119  0.00  0.00    +0.046 A 
ATOM     26  C   UNL     1       3.944  -3.576  -4.878  0.00  0.00    +0.121 A 
ATOM     27  C   UNL     1       4.471  -3.413  -3.604  0.00  0.00    +0.046 A 
ATOM     28  C   UNL     1       3.670  -2.943  -2.582  0.00  0.00    +0.007 A 
BRANCH  26  29
ATOM     29  O   UNL     1       4.731  -4.034  -5.886  0.00  0.00    -0.489 OA
BRANCH  29  30
ATOM     30  C   UNL     1       4.092  -4.304  -7.136  0.00  0.00    +0.167 C 
ATOM     31  C   UNL     1       4.198  -3.075  -8.040  0.00  0.00    +0.051 C 
ATOM     32  C   UNL     1       4.776  -5.495  -7.811  0.00  0.00    +0.051 C 
ENDBRANCH  29  30
ENDBRANCH  26  29
ENDBRANCH  22  23
ENDBRANCH  21  22
ENDBRANCH  20  21
ENDBRANCH   1  20
TORSDOF 9
