REMARK  Name = ZINC66661068
REMARK  5 active torsions:
REMARK  status: ('A' for Active; 'I' for Inactive)
REMARK    1  A    between atoms: C_1  and  C_2
REMARK    2  A    between atoms: C_2  and  C_4
REMARK    3  A    between atoms: C_2  and  N_7
REMARK    4  A    between atoms: C_8  and  N_12
REMARK    5  A    between atoms: C_13  and  C_15
REMARK                            x       y       z     vdW  Elec       q    Type
REMARK                         _______ _______ _______ _____ _____    ______ ____
ROOT
ATOM      1  N   UNL     1      -1.290  -1.782   2.111  0.00  0.00    -0.265 N 
ATOM      2  C   UNL     1      -1.963  -2.564   2.978  0.00  0.00    +0.266 C 
ATOM      3  O   UNL     1      -3.125  -2.852   2.762  0.00  0.00    -0.268 OA
ATOM      4  H   UNL     1      -0.364  -1.552   2.283  0.00  0.00    +0.157 HD
ENDROOT
BRANCH   2   5
ATOM      5  C   UNL     1      -1.293  -3.068   4.186  0.00  0.00    +0.103 A 
ATOM      6  C   UNL     1      -1.862  -3.866   5.127  0.00  0.00    +0.041 A 
ATOM      7  C   UNL     1      -0.886  -4.125   6.120  0.00  0.00    +0.002 A 
ATOM      8  C   UNL     1      -0.895  -4.868   7.308  0.00  0.00    +0.030 A 
ATOM      9  C   UNL     1       0.231  -4.932   8.077  0.00  0.00    +0.042 A 
ATOM     10  C   UNL     1       1.389  -4.265   7.694  0.00  0.00    +0.022 A 
ATOM     11  C   UNL     1       1.421  -3.528   6.532  0.00  0.00    +0.027 A 
ATOM     12  C   UNL     1       0.286  -3.448   5.730  0.00  0.00    +0.047 A 
ATOM     13  N   UNL     1       0.017  -2.812   4.541  0.00  0.00    -0.351 N 
ATOM     14  H   UNL     1       0.644  -2.271   4.035  0.00  0.00    +0.166 HD
ATOM     15 CL   UNL     1       0.216  -5.854   9.548  0.00  0.00    -0.084 Cl
ENDBRANCH   2   5
BRANCH   1  17
ATOM     16  N   UNL     1      -1.372  -0.511   0.012  0.00  0.00    -0.247 N 
ATOM     17  C   UNL     1      -1.926  -1.304   0.967  0.00  0.00    +0.124 A 
ATOM     18  C   UNL     1      -3.214  -1.546   0.600  0.00  0.00    +0.065 A 
ATOM     19  C   UNL     1      -3.448  -0.883  -0.607  0.00  0.00    +0.136 A 
ATOM     20  N   UNL     1      -2.352  -0.260  -0.957  0.00  0.00    -0.178 NA
BRANCH  16  22
ATOM     21  C   UNL     1      -0.019   1.526   0.010  0.00  0.00    +0.033 C 
ATOM     22  C   UNL     1       0.002  -0.004   0.002  0.00  0.00    +0.109 C 
BRANCH  22  23
ATOM     23  C   UNL     1       0.718  -0.497  -1.257  0.00  0.00    +0.013 C 
ATOM     24  C   UNL     1       1.844  -1.518  -1.075  0.00  0.00    +0.006 C 
ATOM     25  C   UNL     1       2.175  -0.072  -1.454  0.00  0.00    +0.006 C 
ENDBRANCH  22  23
ENDBRANCH  16  22
ENDBRANCH   1  17
TORSDOF 4
