REMARK  Name = ZINC39658219
REMARK  9 active torsions:
REMARK  status: ('A' for Active; 'I' for Inactive)
REMARK    1  A    between atoms: C_1  and  C_2
REMARK    2  A    between atoms: C_2  and  C_3
REMARK    3  A    between atoms: C_2  and  C_4
REMARK    4  A    between atoms: C_4  and  C_6
REMARK    5  A    between atoms: C_4  and  O_31
REMARK    6  A    between atoms: C_10  and  C_19
REMARK    7  A    between atoms: N_21  and  C_22
REMARK    8  A    between atoms: C_25  and  C_28
REMARK    9  A    between atoms: O_31  and  C_32
REMARK                            x       y       z     vdW  Elec       q    Type
REMARK                         _______ _______ _______ _____ _____    ______ ____
ROOT
ATOM      1  C   UNL     1      -1.542  -1.946  -0.070  0.00  0.00    +0.257 C 
ATOM      2  O   UNL     1      -2.022  -2.574   0.850  0.00  0.00    -0.272 OA
ATOM      3  N   UNL     1      -1.035  -2.594  -1.137  0.00  0.00    -0.297 N 
ATOM      4  C   UNL     1      -0.488  -2.005  -2.382  0.00  0.00    +0.121 C 
ATOM      5  C   UNL     1       0.738  -2.883  -2.723  0.00  0.00    +0.100 C 
ATOM      6  C   UNL     1       0.461  -4.229  -2.032  0.00  0.00    -0.004 C 
ATOM      7  C   UNL     1      -0.893  -4.057  -1.328  0.00  0.00    +0.115 C 
ATOM      8  C   UNL     1       1.548  -4.529  -1.004  0.00  0.00    -0.010 C 
ATOM      9  C   UNL     1       1.282  -5.897  -0.372  0.00  0.00    -0.082 C 
ATOM     10  N   UNL     1       1.271  -6.928  -1.417  0.00  0.00    +0.379 N 
ATOM     11  C   UNL     1       0.164  -6.683  -2.349  0.00  0.00    -0.082 C 
ATOM     12  C   UNL     1       0.382  -5.348  -3.066  0.00  0.00    -0.010 C 
ATOM     13  H   UNL     1       2.145  -6.903  -1.921  0.00  0.00    -0.086 HD
ATOM     14  H   UNL     1       1.156  -7.836  -0.992  0.00  0.00    -0.086 HD
ENDROOT
BRANCH   5  15
ATOM     15  C   UNL     1       0.851  -3.070  -4.214  0.00  0.00    +0.218 C 
ATOM     16  O   UNL     1      -0.137  -2.984  -4.912  0.00  0.00    -0.275 OA
ATOM     17  N   UNL     1       2.050  -3.332  -4.771  0.00  0.00    -0.312 N 
ATOM     18  H   UNL     1       2.840  -3.400  -4.212  0.00  0.00    +0.149 HD
BRANCH  17  19
ATOM     19  C   UNL     1       2.160  -3.513  -6.220  0.00  0.00    +0.073 C 
ATOM     20  C   UNL     1       1.840  -4.966  -6.578  0.00  0.00    +0.023 C 
ATOM     21  C   UNL     1       1.955  -5.155  -8.092  0.00  0.00    +0.016 C 
ATOM     22  C   UNL     1       3.379  -4.821  -8.541  0.00  0.00    +0.102 C 
ATOM     23  C   UNL     1       3.699  -3.368  -8.184  0.00  0.00    +0.016 C 
ATOM     24  C   UNL     1       3.584  -3.179  -6.670  0.00  0.00    +0.023 C 
BRANCH  22  25
ATOM     25  C   UNL     1       3.492  -5.008 -10.032  0.00  0.00    +0.359 C 
ATOM     26  O   UNL     1       4.275  -4.328 -10.674  0.00  0.00    -0.246 OA
ATOM     27  O   UNL     1       2.801  -5.838 -10.597  0.00  0.00    -0.246 OA
ENDBRANCH  22  25
ENDBRANCH  17  19
ENDBRANCH   5  15
BRANCH   1  28
ATOM     28  C   UNL     1      -1.514  -0.440  -0.020  0.00  0.00    +0.261 C 
BRANCH  28  30
ATOM     29  C   UNL     1      -0.027   1.567   0.011  0.00  0.00    +0.011 C 
ATOM     30  C   UNL     1      -0.066   0.040   0.092  0.00  0.00    +0.033 C 
ATOM     31  C   UNL     1       0.520  -0.415   1.430  0.00  0.00    +0.011 C 
ENDBRANCH  28  30
BRANCH  28  32
ATOM     32  O   UNL     1      -2.255   0.013   1.115  0.00  0.00    -0.479 OA
BRANCH  32  33
ATOM     33  C   UNL     1      -2.931   1.185   0.983  0.00  0.00    +0.122 A 
ATOM     34  C   UNL     1      -2.959   1.837  -0.241  0.00  0.00    +0.045 A 
ATOM     35  C   UNL     1      -3.647   3.027  -0.373  0.00  0.00    +0.004 A 
ATOM     36  C   UNL     1      -4.307   3.570   0.714  0.00  0.00    +0.000 A 
ATOM     37  C   UNL     1      -4.280   2.922   1.936  0.00  0.00    +0.004 A 
ATOM     38  C   UNL     1      -3.599   1.728   2.071  0.00  0.00    +0.045 A 
ENDBRANCH  32  33
ENDBRANCH  28  32
ENDBRANCH   1  28
TORSDOF 7
