REMARK  Name = ZINC22747048
REMARK  5 active torsions:
REMARK  status: ('A' for Active; 'I' for Inactive)
REMARK    1  A    between atoms: C_9  and  O_35
REMARK    2  A    between atoms: C_10  and  C_11
REMARK    3  A    between atoms: C_24  and  S_26
REMARK    4  A    between atoms: S_26  and  C_27
REMARK    5  A    between atoms: C_27  and  C_28
REMARK                            x       y       z     vdW  Elec       q    Type
REMARK                         _______ _______ _______ _____ _____    ______ ____
ROOT
ATOM      1  C   UNL     1       4.960   0.163  -0.046  0.00  0.00    +0.179 C 
ATOM      2  C   UNL     1       5.797  -0.271  -1.229  0.00  0.00    +0.041 C 
ATOM      3  C   UNL     1       6.896  -1.043  -1.086  0.00  0.00    +0.020 C 
ATOM      4  C   UNL     1       7.714  -1.460  -2.285  0.00  0.00    +0.052 C 
ATOM      5  C   UNL     1       6.806  -1.583  -3.510  0.00  0.00    +0.014 C 
ATOM      6  C   UNL     1       6.127  -0.229  -3.745  0.00  0.00    +0.080 C 
ATOM      7  C   UNL     1       5.383   0.165  -2.500  0.00  0.00    +0.163 C 
ATOM      8  O   UNL     1       4.402   0.877  -2.594  0.00  0.00    -0.292 OA
ATOM      9  N   UNL     1       7.321  -1.476   0.148  0.00  0.00    -0.287 N 
ATOM     10  C   UNL     1       6.789  -0.864   1.271  0.00  0.00    +0.219 A 
ATOM     11  N   UNL     1       5.683  -0.088   1.194  0.00  0.00    -0.220 N 
ATOM     12  N   UNL     1       5.431   0.369   2.487  0.00  0.00    -0.141 NA
ATOM     13  C   UNL     1       6.365  -0.143   3.259  0.00  0.00    +0.211 A 
ATOM     14  N   UNL     1       7.183  -0.890   2.515  0.00  0.00    -0.187 NA
ATOM     15  H   UNL     1       7.973  -2.190   0.229  0.00  0.00    +0.155 HD
ENDROOT
BRANCH   1  25
ATOM     16  C   UNL     1      -0.010   1.341  -0.373  0.00  0.00    +0.001 A 
ATOM     17  C   UNL     1       1.175   2.075  -0.383  0.00  0.00    +0.001 A 
ATOM     18  C   UNL     1       2.383   1.457  -0.275  0.00  0.00    +0.009 A 
ATOM     19  C   UNL     1       2.440   0.058  -0.151  0.00  0.00    -0.009 A 
ATOM     20  C   UNL     1       1.235  -0.688  -0.141  0.00  0.00    -0.017 A 
ATOM     21  C   UNL     1       0.007  -0.015  -0.255  0.00  0.00    +0.008 A 
ATOM     22  C   UNL     1       1.290  -2.087  -0.017  0.00  0.00    +0.012 A 
ATOM     23  C   UNL     1       2.495  -2.708   0.092  0.00  0.00    +0.046 A 
ATOM     24  C   UNL     1       3.685  -1.974   0.083  0.00  0.00    +0.123 A 
ATOM     25  C   UNL     1       3.668  -0.613  -0.037  0.00  0.00    +0.031 A 
BRANCH  24  26
ATOM     26  O   UNL     1       4.874  -2.623   0.194  0.00  0.00    -0.506 OA
ATOM     27  H   UNL     1       5.258  -2.887  -0.653  0.00  0.00    +0.292 HD
ENDBRANCH  24  26
ENDBRANCH   1  25
BRANCH  13  28
ATOM     28  S   UNL     1       6.513   0.116   4.995  0.00  0.00    -0.080 S 
BRANCH  28  29
ATOM     29  C   UNL     1       7.979  -0.846   5.459  0.00  0.00    +0.114 C 
BRANCH  29  30
ATOM     30  C   UNL     1       8.221  -0.710   6.940  0.00  0.00    -0.019 A 
ATOM     31  C   UNL     1       9.019   0.313   7.419  0.00  0.00    +0.006 A 
ATOM     32  C   UNL     1       9.242   0.438   8.777  0.00  0.00    +0.000 A 
ATOM     33  C   UNL     1       8.666  -0.459   9.658  0.00  0.00    +0.001 A 
ATOM     34  C   UNL     1       7.869  -1.482   9.181  0.00  0.00    +0.020 A 
ATOM     35  C   UNL     1       7.641  -1.604   7.822  0.00  0.00    +0.045 A 
ATOM     36 CL   UNL     1       6.634  -2.885   7.222  0.00  0.00    -0.083 Cl
ENDBRANCH  29  30
ENDBRANCH  28  29
ENDBRANCH  13  28
TORSDOF 5
