REMARK  Name = ZINC01882213
REMARK  8 active torsions:
REMARK  status: ('A' for Active; 'I' for Inactive)
REMARK    1  A    between atoms: C_1  and  O_2
REMARK    2  A    between atoms: O_2  and  C_3
REMARK    3  A    between atoms: C_12  and  C_13
REMARK    4  A    between atoms: N_14  and  N_15
REMARK    5  A    between atoms: C_16  and  C_18
REMARK    6  A    between atoms: C_18  and  S_19
REMARK    7  A    between atoms: S_19  and  C_20
REMARK    8  A    between atoms: N_33  and  C_34
REMARK                            x       y       z     vdW  Elec       q    Type
REMARK                         _______ _______ _______ _____ _____    ______ ____
ROOT
ATOM      1  S   UNL     1       6.684  -2.124  -1.613  0.00  0.00    -0.078 S 
ENDROOT
BRANCH   1   2
ATOM      2  C   UNL     1       7.810  -3.185  -0.768  0.00  0.00    +0.178 A 
ATOM      3  N   UNL     1       7.621  -4.489  -0.797  0.00  0.00    -0.215 NA
ATOM      4  C   UNL     1       8.453  -5.311  -0.170  0.00  0.00    +0.117 A 
ATOM      5  C   UNL     1       9.566  -4.843   0.549  0.00  0.00    +0.076 A 
ATOM      6  C   UNL     1      10.392  -5.870   1.188  0.00  0.00    -0.023 A 
ATOM      7  C   UNL     1      10.008  -7.152   1.026  0.00  0.00    -0.004 A 
ATOM      8  S   UNL     1       8.546  -7.073   0.027  0.00  0.00    -0.073 S 
ATOM      9  C   UNL     1      10.678  -8.376   1.574  0.00  0.00    +0.043 C 
ATOM     10  C   UNL     1      12.086  -7.987   2.047  0.00  0.00    +0.005 C 
ATOM     11  C   UNL     1      11.986  -6.716   2.896  0.00  0.00    +0.005 C 
ATOM     12  C   UNL     1      11.633  -5.524   2.006  0.00  0.00    +0.037 C 
ATOM     13  C   UNL     1       9.748  -3.424   0.564  0.00  0.00    +0.268 A 
ATOM     14  O   UNL     1      10.686  -2.927   1.162  0.00  0.00    -0.267 OA
ATOM     15  N   UNL     1       8.871  -2.646  -0.096  0.00  0.00    -0.255 N 
BRANCH  15  16
ATOM     16  C   UNL     1       9.045  -1.255  -0.090  0.00  0.00    +0.052 A 
ATOM     17  C   UNL     1       9.802  -0.645  -1.082  0.00  0.00    +0.026 A 
ATOM     18  C   UNL     1       9.972   0.726  -1.073  0.00  0.00    +0.002 A 
ATOM     19  C   UNL     1       9.390   1.490  -0.078  0.00  0.00    +0.000 A 
ATOM     20  C   UNL     1       8.636   0.885   0.911  0.00  0.00    +0.002 A 
ATOM     21  C   UNL     1       8.458  -0.485   0.904  0.00  0.00    +0.026 A 
ENDBRANCH  15  16
ENDBRANCH   1   2
BRANCH   1  22
ATOM     22  C   UNL     1       5.471  -3.260  -2.339  0.00  0.00    +0.174 C 
BRANCH  22  24
ATOM     23  N   UNL     1       3.430  -3.110  -3.728  0.00  0.00    -0.206 N 
ATOM     24  C   UNL     1       4.437  -2.472  -3.100  0.00  0.00    +0.242 C 
ATOM     25  O   UNL     1       4.511  -1.262  -3.148  0.00  0.00    -0.273 OA
ATOM     26  H   UNL     1       3.371  -4.078  -3.690  0.00  0.00    +0.177 HD
BRANCH  23  28
ATOM     27  C   UNL     1       1.497  -2.993  -5.041  0.00  0.00    +0.142 C 
ATOM     28  N   UNL     1       2.468  -2.377  -4.435  0.00  0.00    -0.188 NA
BRANCH  27  38
ATOM     29  C   UNL     1       0.559  -0.832  -5.847  0.00  0.00    +0.129 A 
ATOM     30  C   UNL     1      -0.398  -0.109  -6.558  0.00  0.00    +0.047 A 
ATOM     31  C   UNL     1      -1.426  -0.722  -7.202  0.00  0.00    +0.012 A 
ATOM     32  C   UNL     1      -1.560  -2.121  -7.174  0.00  0.00    -0.017 A 
ATOM     33  C   UNL     1      -2.619  -2.765  -7.838  0.00  0.00    +0.008 A 
ATOM     34  C   UNL     1      -2.717  -4.122  -7.789  0.00  0.00    +0.001 A 
ATOM     35  C   UNL     1      -1.784  -4.885  -7.091  0.00  0.00    +0.001 A 
ATOM     36  C   UNL     1      -0.746  -4.293  -6.436  0.00  0.00    +0.009 A 
ATOM     37  C   UNL     1      -0.613  -2.899  -6.466  0.00  0.00    -0.006 A 
ATOM     38  C   UNL     1       0.488  -2.223  -5.783  0.00  0.00    +0.044 A 
BRANCH  29  40
ATOM     39  C   UNL     1       1.584   1.247  -5.324  0.00  0.00    +0.277 C 
ATOM     40  O   UNL     1       1.569  -0.178  -5.219  0.00  0.00    -0.494 OA
ENDBRANCH  29  40
ENDBRANCH  27  38
ENDBRANCH  23  28
ENDBRANCH  22  24
ENDBRANCH   1  22
TORSDOF 7
