REMARK  Name = ZINC59930562
REMARK  9 active torsions:
REMARK  status: ('A' for Active; 'I' for Inactive)
REMARK    1  A    between atoms: C_1  and  C_2
REMARK    2  A    between atoms: C_2  and  O_3
REMARK    3  A    between atoms: O_3  and  C_4
REMARK    4  A    between atoms: N_6  and  C_7
REMARK    5  A    between atoms: C_11  and  N_14
REMARK    6  A    between atoms: C_12  and  C_13
REMARK    7  A    between atoms: N_14  and  C_15
REMARK    8  A    between atoms: C_15  and  C_16
REMARK    9  A    between atoms: C_29  and  C_31
REMARK                            x       y       z     vdW  Elec       q    Type
REMARK                         _______ _______ _______ _____ _____    ______ ____
ROOT
ATOM      1  C   UNL     1      -5.583  -7.782  -0.479  0.00  0.00    +0.198 C 
ENDROOT
BRANCH   1   2
ATOM      2  C   UNL     1      -7.037  -8.167  -0.572  0.00  0.00    +0.237 C 
ATOM      3  O   UNL     1      -7.894  -7.309  -0.553  0.00  0.00    -0.274 OA
ATOM      4  N   UNL     1      -7.386  -9.465  -0.675  0.00  0.00    -0.265 N 
ATOM      5  C   UNL     1      -6.406 -10.467  -0.693  0.00  0.00    +0.058 A 
ATOM      6  C   UNL     1      -5.706 -10.791   0.458  0.00  0.00    +0.025 A 
ATOM      7  C   UNL     1      -4.760 -11.799   0.427  0.00  0.00    +0.002 A 
ATOM      8  C   UNL     1      -4.510 -12.485  -0.747  0.00  0.00    +0.002 A 
ATOM      9  C   UNL     1      -5.198 -12.162  -1.903  0.00  0.00    +0.025 A 
ATOM     10  C   UNL     1      -6.140 -11.147  -1.882  0.00  0.00    +0.055 A 
ATOM     11  N   UNL     1      -6.809 -10.764  -3.051  0.00  0.00    -0.284 N 
ATOM     12  C   UNL     1      -8.151 -10.610  -3.053  0.00  0.00    +0.219 C 
ATOM     13  O   UNL     1      -8.708 -10.199  -4.049  0.00  0.00    -0.275 OA
ATOM     14  C   UNL     1      -8.959 -10.947  -1.828  0.00  0.00    +0.118 C 
ATOM     15  C   UNL     1      -8.794  -9.854  -0.766  0.00  0.00    +0.087 C 
ATOM     16  C   UNL     1      -9.264 -10.381   0.591  0.00  0.00    +0.029 C 
ATOM     17  H   UNL     1      -6.305 -10.608  -3.865  0.00  0.00    +0.155 HD
ENDBRANCH   1   2
BRANCH   1  18
ATOM     18  N   UNL     1      -5.469  -6.325  -0.376  0.00  0.00    -0.335 N 
ATOM     19  H   UNL     1      -6.268  -5.775  -0.375  0.00  0.00    +0.147 HD
BRANCH  18  24
ATOM     20  C   UNL     1      -2.849  -3.759  -0.083  0.00  0.00    +0.041 A 
ATOM     21  C   UNL     1      -1.708  -4.552  -0.085  0.00  0.00    +0.024 A 
ATOM     22  C   UNL     1      -1.820  -5.926  -0.182  0.00  0.00    +0.004 A 
ATOM     23  C   UNL     1      -3.065  -6.516  -0.279  0.00  0.00    +0.023 A 
ATOM     24  C   UNL     1      -4.210  -5.728  -0.278  0.00  0.00    +0.032 A 
ATOM     25  C   UNL     1      -4.102  -4.348  -0.174  0.00  0.00    -0.008 A 
ATOM     26  C   UNL     1      -5.341  -3.492  -0.166  0.00  0.00    +0.047 C 
BRANCH  20  29
ATOM     27  C   UNL     1      -1.648  -1.820   0.593  0.00  0.00    +0.405 C 
ATOM     28  O   UNL     1      -0.816  -2.532   1.119  0.00  0.00    -0.226 OA
ATOM     29  N   UNL     1      -2.735  -2.368   0.015  0.00  0.00    -0.251 N 
ATOM     30  H   UNL     1      -3.439  -1.798  -0.332  0.00  0.00    +0.158 HD
BRANCH  27  31
ATOM     31  O   UNL     1      -1.483  -0.484   0.588  0.00  0.00    -0.450 OA
BRANCH  31  33
ATOM     32  C   UNL     1      -0.295   1.554   1.113  0.00  0.00    +0.048 C 
ATOM     33  C   UNL     1      -0.308   0.028   1.219  0.00  0.00    +0.230 C 
ENDBRANCH  31  33
ENDBRANCH  27  31
ENDBRANCH  20  29
ENDBRANCH  18  24
ENDBRANCH   1  18
TORSDOF 6
