REMARK  Name = ZINC24534906
REMARK  11 active torsions:
REMARK  status: ('A' for Active; 'I' for Inactive)
REMARK    1  A    between atoms: C_1  and  C_2
REMARK    2  A    between atoms: C_2  and  C_4
REMARK    3  A    between atoms: C_2  and  N_33
REMARK    4  A    between atoms: C_7  and  S_16
REMARK    5  A    between atoms: N_8  and  C_9
REMARK    6  A    between atoms: S_16  and  C_17
REMARK    7  A    between atoms: C_17  and  C_18
REMARK    8  A    between atoms: N_20  and  C_21
REMARK    9  A    between atoms: C_28  and  C_32
REMARK   10  A    between atoms: C_29  and  C_30
REMARK   11  A    between atoms: C_29  and  C_31
REMARK                            x       y       z     vdW  Elec       q    Type
REMARK                         _______ _______ _______ _____ _____    ______ ____
ROOT
ATOM      1  C   UNL     1      -0.631   1.607   3.695  0.00  0.00    +0.125 A 
ATOM      2  N   UNL     1      -1.016   2.844   3.835  0.00  0.00    -0.135 NA
ATOM      3  N   UNL     1      -1.555   3.012   4.990  0.00  0.00    -0.122 NA
ATOM      4  C   UNL     1      -1.535   1.883   5.660  0.00  0.00    +0.197 A 
ATOM      5  N   UNL     1      -0.944   0.950   4.855  0.00  0.00    -0.275 N 
ENDROOT
BRANCH   5   6
ATOM      6  C   UNL     1      -0.708  -0.401   5.154  0.00  0.00    +0.050 A 
ATOM      7  C   UNL     1      -1.360  -1.395   4.437  0.00  0.00    +0.029 A 
ATOM      8  C   UNL     1      -1.122  -2.724   4.729  0.00  0.00    +0.040 A 
ATOM      9  C   UNL     1      -0.244  -3.065   5.743  0.00  0.00    +0.124 A 
ATOM     10  C   UNL     1       0.403  -2.074   6.463  0.00  0.00    +0.040 A 
ATOM     11  C   UNL     1       0.172  -0.745   6.170  0.00  0.00    +0.029 A 
ATOM     12  F   UNL     1      -0.017  -4.365   6.031  0.00  0.00    -0.205 F 
ENDBRANCH   5   6
BRANCH   1  14
ATOM     13  C   UNL     1       1.493   1.491   2.421  0.00  0.00    -0.005 C 
ATOM     14  C   UNL     1       0.041   1.013   2.484  0.00  0.00    -0.002 C 
BRANCH  14  15
ATOM     15  N   UNL     1      -0.668   1.440   1.271  0.00  0.00    +0.386 N 
ATOM     16  C   UNL     1      -2.058   0.966   1.280  0.00  0.00    -0.078 C 
ATOM     17  C   UNL     1      -2.805   1.549   0.078  0.00  0.00    -0.019 C 
ATOM     18  C   UNL     1      -2.106   1.112  -1.212  0.00  0.00    -0.004 C 
ATOM     19  C   UNL     1      -0.647   1.576  -1.174  0.00  0.00    -0.019 C 
ATOM     20  C   UNL     1       0.037   0.992   0.064  0.00  0.00    -0.078 C 
ATOM     21  H   UNL     1      -0.690   2.539   1.259  0.00  0.00    -0.081 HD
ENDBRANCH  14  15
ENDBRANCH   1  14
BRANCH   4  22
ATOM     22  S   UNL     1      -2.154   1.621   7.290  0.00  0.00    -0.076 S 
BRANCH  22  23
ATOM     23  C   UNL     1      -2.759   3.285   7.667  0.00  0.00    +0.173 C 
BRANCH  23  24
ATOM     24  C   UNL     1      -3.350   3.302   9.053  0.00  0.00    +0.224 C 
ATOM     25  O   UNL     1      -3.360   2.289   9.720  0.00  0.00    -0.275 OA
ATOM     26  N   UNL     1      -3.867   4.442   9.552  0.00  0.00    -0.311 N 
ATOM     27  H   UNL     1      -3.857   5.361   8.947  0.00  0.00    +0.149 HD
BRANCH  26  28
ATOM     28  C   UNL     1      -4.441   4.459  10.899  0.00  0.00    +0.080 C 
ATOM     29  C   UNL     1      -5.527   5.554  11.009  0.00  0.00    +0.027 C 
ATOM     30  C   UNL     1      -5.000   6.522  12.112  0.00  0.00    -0.003 C 
ATOM     31  C   UNL     1      -3.782   7.239  11.452  0.00  0.00    +0.005 C 
ATOM     32  C   UNL     1      -2.696   6.144  11.342  0.00  0.00    +0.009 C 
ATOM     33  C   UNL     1      -3.359   4.866  11.946  0.00  0.00    -0.008 C 
ATOM     34  C   UNL     1      -4.262   5.511  13.058  0.00  0.00    -0.025 C 
ATOM     35  C   UNL     1      -3.433   6.225  14.128  0.00  0.00    +0.012 C 
ATOM     36  C   UNL     1      -5.226   4.494  13.673  0.00  0.00    +0.012 C 
ATOM     37  C   UNL     1      -2.403   3.756  12.386  0.00  0.00    +0.013 C 
ENDBRANCH  26  28
ENDBRANCH  23  24
ENDBRANCH  22  23
ENDBRANCH   4  22
TORSDOF 7
