REMARK  Name = ZINC29331130
REMARK  13 active torsions:
REMARK  status: ('A' for Active; 'I' for Inactive)
REMARK    1  A    between atoms: C_1  and  C_2
REMARK    2  A    between atoms: C_2  and  C_3
REMARK    3  A    between atoms: C_3  and  O_4
REMARK    4  A    between atoms: O_4  and  C_5
REMARK    5  A    between atoms: C_8  and  C_15
REMARK    6  A    between atoms: C_10  and  O_11
REMARK    7  A    between atoms: O_11  and  C_12
REMARK    8  A    between atoms: C_12  and  C_13
REMARK    9  A    between atoms: C_13  and  C_14
REMARK   10  A    between atoms: C_15  and  C_17
REMARK   11  A    between atoms: C_15  and  N_18
REMARK   12  A    between atoms: N_21  and  C_22
REMARK   13  A    between atoms: C_22  and  C_23
REMARK                            x       y       z     vdW  Elec       q    Type
REMARK                         _______ _______ _______ _____ _____    ______ ____
ROOT
ATOM      1  N   UNL     1       1.122  -4.747  -0.922  0.00  0.00    -0.293 N 
ATOM      2  C   UNL     1       1.036  -5.967  -1.487  0.00  0.00    +0.300 C 
ATOM      3  O   UNL     1       0.081  -6.681  -1.250  0.00  0.00    -0.253 OA
ATOM      4  N   UNL     1       2.009  -6.396  -2.316  0.00  0.00    -0.295 N 
ATOM      5  H   UNL     1       1.986  -4.101  -1.136  0.00  0.00    +0.151 HD
ATOM      6  H   UNL     1       2.873  -5.750  -2.530  0.00  0.00    +0.151 HD
ENDROOT
BRANCH   1   7
ATOM      7  C   UNL     1       0.065  -4.280  -0.021  0.00  0.00    +0.102 C 
ATOM      8  C   UNL     1       0.337  -4.794   1.394  0.00  0.00    +0.033 C 
BRANCH   7  12
ATOM      9  C   UNL     1       0.002  -0.004   0.002  0.00  0.00    +0.162 A 
ATOM     10  C   UNL     1       1.210  -0.682  -0.019  0.00  0.00    +0.050 A 
ATOM     11  C   UNL     1       1.227  -2.064  -0.021  0.00  0.00    +0.009 A 
ATOM     12  C   UNL     1       0.041  -2.773  -0.013  0.00  0.00    -0.024 A 
ATOM     13  C   UNL     1      -1.168  -2.103   0.002  0.00  0.00    +0.055 A 
ATOM     14  C   UNL     1      -1.192  -0.718   0.010  0.00  0.00    +0.162 A 
BRANCH   9  15
ATOM     15  O   UNL     1      -0.016   1.356   0.009  0.00  0.00    -0.488 OA
BRANCH  15  16
ATOM     16  C   UNL     1       1.248   2.022   0.001  0.00  0.00    +0.229 C 
BRANCH  16  18
ATOM     17  C   UNL     1       2.381   4.249   0.002  0.00  0.00    +0.007 C 
ATOM     18  C   UNL     1       1.027   3.536   0.011  0.00  0.00    +0.038 C 
ENDBRANCH  16  18
ENDBRANCH  15  16
ENDBRANCH   9  15
BRANCH  14  19
ATOM     19  O   UNL     1      -2.381  -0.057   0.025  0.00  0.00    -0.488 OA
BRANCH  19  20
ATOM     20  C   UNL     1      -3.567  -0.854   0.032  0.00  0.00    +0.229 C 
BRANCH  20  21
ATOM     21  C   UNL     1      -4.795   0.058   0.049  0.00  0.00    +0.038 C 
ATOM     22  C   UNL     1      -6.064  -0.796   0.057  0.00  0.00    +0.007 C 
ENDBRANCH  20  21
ENDBRANCH  19  20
ENDBRANCH  14  19
ENDBRANCH   7  12
ENDBRANCH   1   7
BRANCH   4  23
ATOM     23  C   UNL     1       1.915  -7.723  -2.930  0.00  0.00    +0.141 C 
BRANCH  23  24
ATOM     24  C   UNL     1       3.119  -7.957  -3.805  0.00  0.00    -0.026 A 
ATOM     25  C   UNL     1       4.270  -8.539  -3.289  0.00  0.00    +0.023 A 
ATOM     26  C   UNL     1       5.356  -8.740  -4.116  0.00  0.00    +0.084 A 
ATOM     27  N   UNL     1       5.313  -8.388  -5.387  0.00  0.00    -0.350 N 
ATOM     28  C   UNL     1       4.235  -7.831  -5.917  0.00  0.00    +0.099 A 
ATOM     29  C   UNL     1       3.102  -7.603  -5.142  0.00  0.00    +0.047 A 
ATOM     30  N   UNL     1       4.233  -7.475  -7.261  0.00  0.00    -0.317 N 
ATOM     31  C   UNL     1       4.066  -6.008  -7.423  0.00  0.00    +0.106 C 
ATOM     32  C   UNL     1       4.604  -5.746  -8.852  0.00  0.00    +0.020 C 
ATOM     33  C   UNL     1       5.799  -6.722  -8.956  0.00  0.00    +0.020 C 
ATOM     34  C   UNL     1       5.525  -7.807  -7.899  0.00  0.00    +0.106 C 
ATOM     35  H   UNL     1       6.186  -8.555  -6.035  0.00  0.00    +0.166 HD
ENDBRANCH  23  24
ENDBRANCH   4  23
TORSDOF 10
