REMARK  Name = ZINC33087934
REMARK  9 active torsions:
REMARK  status: ('A' for Active; 'I' for Inactive)
REMARK    1  A    between atoms: C_1  and  C_2
REMARK    2  A    between atoms: C_2  and  C_3
REMARK    3  A    between atoms: C_2  and  C_4
REMARK    4  A    between atoms: C_7  and  N_10
REMARK    5  A    between atoms: C_11  and  C_13
REMARK    6  A    between atoms: C_13  and  N_14
REMARK    7  A    between atoms: C_22  and  C_25
REMARK    8  A    between atoms: C_30  and  N_31
REMARK    9  A    between atoms: C_32  and  C_34
REMARK                            x       y       z     vdW  Elec       q    Type
REMARK                         _______ _______ _______ _____ _____    ______ ____
ROOT
ATOM      1  N   UNL     1       0.022  -0.032   0.388  0.00  0.00    -0.296 N 
ATOM      2  C   UNL     1       1.115  -0.768   0.803  0.00  0.00    +0.071 A 
ATOM      3  C   UNL     1       2.194  -0.135   1.414  0.00  0.00    +0.028 A 
ATOM      4  C   UNL     1       3.280  -0.876   1.825  0.00  0.00    +0.002 A 
ATOM      5  C   UNL     1       3.308  -2.252   1.637  0.00  0.00    +0.002 A 
ATOM      6  C   UNL     1       2.258  -2.894   1.049  0.00  0.00    +0.030 A 
ATOM      7  C   UNL     1       1.141  -2.163   0.616  0.00  0.00    +0.088 A 
ATOM      8  N   UNL     1       0.112  -2.795   0.023  0.00  0.00    -0.240 NA
ATOM      9  C   UNL     1      -0.942  -2.131  -0.390  0.00  0.00    +0.138 A 
ATOM     10  C   UNL     1      -1.010  -0.668  -0.207  0.00  0.00    +0.278 A 
ATOM     11  O   UNL     1      -1.984  -0.044  -0.588  0.00  0.00    -0.265 OA
ENDROOT
BRANCH   9  12
ATOM     12  C   UNL     1      -2.060  -2.848  -1.038  0.00  0.00    +0.027 A 
ATOM     13  C   UNL     1      -2.825  -3.760  -0.310  0.00  0.00    +0.012 A 
ATOM     14  C   UNL     1      -3.870  -4.422  -0.919  0.00  0.00    +0.001 A 
ATOM     15  C   UNL     1      -4.159  -4.194  -2.254  0.00  0.00    +0.002 A 
ATOM     16  C   UNL     1      -3.407  -3.298  -2.988  0.00  0.00    +0.024 A 
ATOM     17  C   UNL     1      -2.355  -2.619  -2.389  0.00  0.00    +0.043 A 
BRANCH  17  18
ATOM     18  N   UNL     1      -1.594  -1.713  -3.130  0.00  0.00    -0.285 N 
ATOM     19  C   UNL     1      -2.173  -0.986  -4.106  0.00  0.00    +0.214 C 
ATOM     20  O   UNL     1      -3.372  -1.050  -4.280  0.00  0.00    -0.276 OA
ATOM     21  C   UNL     1      -1.331  -0.095  -4.981  0.00  0.00    +0.109 C 
ATOM     22  H   UNL     1      -0.522  -1.592  -2.916  0.00  0.00    +0.155 HD
ENDBRANCH  17  18
ENDBRANCH   9  12
BRANCH   1  23
ATOM     23  C   UNL     1      -0.015   1.420   0.584  0.00  0.00    +0.221 C 
BRANCH  23  25
ATOM     24  N   UNL     1      -0.781   3.011   2.315  0.00  0.00    -0.284 N 
ATOM     25  C   UNL     1      -0.642   1.731   1.918  0.00  0.00    +0.237 C 
ATOM     26  O   UNL     1      -1.021   0.829   2.635  0.00  0.00    -0.274 OA
ATOM     27  H   UNL     1      -0.374   3.826   1.698  0.00  0.00    +0.155 HD
BRANCH  24  31
ATOM     28  C   UNL     1      -2.757   3.884   5.877  0.00  0.00    -0.045 A 
ATOM     29  C   UNL     1      -1.982   2.743   5.780  0.00  0.00    +0.006 A 
ATOM     30  C   UNL     1      -1.326   2.451   4.601  0.00  0.00    +0.023 A 
ATOM     31  C   UNL     1      -1.445   3.304   3.511  0.00  0.00    +0.033 A 
ATOM     32  C   UNL     1      -2.220   4.452   3.614  0.00  0.00    +0.023 A 
ATOM     33  C   UNL     1      -2.878   4.736   4.795  0.00  0.00    +0.006 A 
BRANCH  28  35
ATOM     34  C   UNL     1      -2.988   5.549   7.701  0.00  0.00    +0.012 C 
ATOM     35  C   UNL     1      -3.472   4.200   7.166  0.00  0.00    +0.013 C 
ATOM     36  C   UNL     1      -4.980   4.263   6.910  0.00  0.00    +0.012 C 
ENDBRANCH  28  35
ENDBRANCH  24  31
ENDBRANCH  23  25
ENDBRANCH   1  23
TORSDOF 6
