REMARK  Name = ZINC59782553
REMARK  13 active torsions:
REMARK  status: ('A' for Active; 'I' for Inactive)
REMARK    1  A    between atoms: C_1  and  C_2
REMARK    2  A    between atoms: C_5  and  C_8
REMARK    3  A    between atoms: N_10  and  C_11
REMARK    4  A    between atoms: C_11  and  C_13
REMARK    5  A    between atoms: C_11  and  C_16
REMARK    6  A    between atoms: C_13  and  C_14
REMARK    7  A    between atoms: C_13  and  C_15
REMARK    8  A    between atoms: N_18  and  C_19
REMARK    9  A    between atoms: C_19  and  C_20
REMARK   10  A    between atoms: C_20  and  C_22
REMARK   11  A    between atoms: C_20  and  N_30
REMARK   12  A    between atoms: C_27  and  O_28
REMARK   13  A    between atoms: O_28  and  C_29
REMARK                            x       y       z     vdW  Elec       q    Type
REMARK                         _______ _______ _______ _____ _____    ______ ____
ROOT
ATOM      1  C   UNL     1      -0.203  -6.776   3.109  0.00  0.00    +0.234 C 
ATOM      2  O   UNL     1      -0.711  -6.119   3.993  0.00  0.00    -0.274 OA
ATOM      3  N   UNL     1      -0.353  -8.115   3.094  0.00  0.00    -0.315 N 
ATOM      4  H   UNL     1       0.053  -8.641   2.387  0.00  0.00    +0.149 HD
ENDROOT
BRANCH   1   5
ATOM      5  C   UNL     1       0.595  -6.095   2.027  0.00  0.00    +0.162 C 
BRANCH   5   8
ATOM      6  C   UNL     1       0.796  -3.798   1.239  0.00  0.00    +0.245 C 
ATOM      7  O   UNL     1       0.954  -4.229   0.114  0.00  0.00    -0.270 OA
ATOM      8  N   UNL     1       0.608  -4.649   2.267  0.00  0.00    -0.300 N 
ATOM      9  H   UNL     1       0.482  -4.306   3.165  0.00  0.00    +0.150 HD
BRANCH   6  14
ATOM     10  C   UNL     1       0.847   1.879   2.179  0.00  0.00    +0.044 C 
ATOM     11  C   UNL     1       0.834   0.393   1.933  0.00  0.00    -0.050 A 
ATOM     12  C   UNL     1       1.014  -0.095   0.651  0.00  0.00    +0.004 A 
ATOM     13  C   UNL     1       1.003  -1.455   0.419  0.00  0.00    +0.013 A 
ATOM     14  C   UNL     1       0.809  -2.339   1.481  0.00  0.00    +0.037 A 
ATOM     15  C   UNL     1       0.628  -1.841   2.772  0.00  0.00    +0.013 A 
ATOM     16  C   UNL     1       0.646  -0.479   2.991  0.00  0.00    +0.004 A 
ENDBRANCH   6  14
ENDBRANCH   5   8
BRANCH   5  17
ATOM     17  C   UNL     1       2.029  -6.627   2.040  0.00  0.00    +0.012 C 
ATOM     18  C   UNL     1       2.839  -5.936   0.941  0.00  0.00    +0.009 C 
ATOM     19  C   UNL     1       2.667  -6.341   3.401  0.00  0.00    +0.009 C 
ENDBRANCH   5  17
ENDBRANCH   1   5
BRANCH   3  20
ATOM     20  C   UNL     1      -1.129  -8.777   4.146  0.00  0.00    +0.093 C 
BRANCH  20  21
ATOM     21  C   UNL     1      -1.245 -10.270   3.831  0.00  0.00    -0.017 C 
BRANCH  21  22
ATOM     22  N   UNL     1       0.097 -10.837   3.642  0.00  0.00    +0.385 N 
ATOM     23  C   UNL     1      -0.009 -12.289   3.457  0.00  0.00    -0.078 C 
ATOM     24  C   UNL     1       1.378 -12.874   3.179  0.00  0.00    -0.019 C 
ATOM     25  C   UNL     1       2.299 -12.575   4.366  0.00  0.00    -0.004 C 
ATOM     26  C   UNL     1       2.343 -11.061   4.596  0.00  0.00    -0.019 C 
ATOM     27  C   UNL     1       0.920 -10.544   4.821  0.00  0.00    -0.078 C 
ATOM     28  H   UNL     1       0.523 -10.426   2.825  0.00  0.00    -0.081 HD
ENDBRANCH  21  22
BRANCH  21  29
ATOM     29  C   UNL     1      -2.051 -10.456   2.571  0.00  0.00    -0.018 A 
ATOM     30  C   UNL     1      -1.411 -10.694   1.370  0.00  0.00    +0.005 A 
ATOM     31  C   UNL     1      -2.149 -10.864   0.214  0.00  0.00    +0.000 A 
ATOM     32  C   UNL     1      -3.530 -10.796   0.256  0.00  0.00    +0.004 A 
ATOM     33  C   UNL     1      -4.174 -10.559   1.454  0.00  0.00    +0.046 A 
ATOM     34  C   UNL     1      -3.436 -10.393   2.617  0.00  0.00    +0.122 A 
BRANCH  34  35
ATOM     35  O   UNL     1      -4.068 -10.164   3.798  0.00  0.00    -0.495 OA
ATOM     36  C   UNL     1      -5.496 -10.112   3.770  0.00  0.00    +0.277 C 
ENDBRANCH  34  35
ENDBRANCH  21  29
ENDBRANCH  20  21
ENDBRANCH   3  20
TORSDOF 9
