REMARK  Name = ZINC41585033
REMARK  7 active torsions:
REMARK  status: ('A' for Active; 'I' for Inactive)
REMARK    1  A    between atoms: C_3  and  N_36
REMARK    2  A    between atoms: C_6  and  C_7
REMARK    3  A    between atoms: C_14  and  O_35
REMARK    4  A    between atoms: C_15  and  C_18
REMARK    5  A    between atoms: C_18  and  N_19
REMARK    6  A    between atoms: N_22  and  C_25
REMARK    7  A    between atoms: C_25  and  C_26
REMARK                            x       y       z     vdW  Elec       q    Type
REMARK                         _______ _______ _______ _____ _____    ______ ____
ROOT
ATOM      1  C   UNL     1      -1.258  -0.760   0.010  0.00  0.00    +0.058 C 
ATOM      2  C   UNL     1      -1.239  -2.112  -0.100  0.00  0.00    +0.176 C 
ATOM      3  C   UNL     1      -2.413  -2.992  -0.216  0.00  0.00    +0.231 C 
ATOM      4  O   UNL     1      -3.588  -2.670  -0.235  0.00  0.00    -0.283 OA
ATOM      5  C   UNL     1      -1.848  -4.351  -0.307  0.00  0.00    +0.068 A 
ATOM      6  C   UNL     1      -2.422  -5.616  -0.432  0.00  0.00    +0.019 A 
ATOM      7  C   UNL     1      -1.624  -6.723  -0.493  0.00  0.00    +0.046 A 
ATOM      8  C   UNL     1      -0.239  -6.591  -0.429  0.00  0.00    +0.125 A 
ATOM      9  C   UNL     1       0.344  -5.340  -0.304  0.00  0.00    +0.051 A 
ATOM     10  C   UNL     1      -0.453  -4.205  -0.242  0.00  0.00    +0.147 A 
ATOM     11  O   UNL     1      -0.136  -2.896  -0.128  0.00  0.00    -0.451 OA
ENDROOT
BRANCH   1  17
ATOM     12  C   UNL     1       1.228  -0.679  -0.001  0.00  0.00    +0.010 A 
ATOM     13  C   UNL     1       2.405   0.038  -0.013  0.00  0.00    +0.033 A 
ATOM     14  C   UNL     1       2.377   1.422  -0.028  0.00  0.00    +0.126 A 
ATOM     15  C   UNL     1       1.169   2.098  -0.030  0.00  0.00    +0.033 A 
ATOM     16  C   UNL     1      -0.018   1.396  -0.018  0.00  0.00    +0.010 A 
ATOM     17  C   UNL     1       0.002  -0.004  -0.003  0.00  0.00    -0.021 A 
BRANCH  14  18
ATOM     18  N   UNL     1       3.646   2.184  -0.040  0.00  0.00    +0.056 N 
ATOM     19  O   UNL     1       4.703   1.598  -0.038  0.00  0.00    -0.126 OA
ATOM     20  O   UNL     1       3.625   3.393  -0.053  0.00  0.00    -0.126 OA
ENDBRANCH  14  18
ENDBRANCH   1  17
BRANCH   8  21
ATOM     21  O   UNL     1       0.546  -7.697  -0.490  0.00  0.00    -0.506 OA
ATOM     22  H   UNL     1       0.807  -7.945  -1.387  0.00  0.00    +0.292 HD
ENDBRANCH   8  21
BRANCH   9  23
ATOM     23  C   UNL     1       1.844  -5.213  -0.236  0.00  0.00    +0.126 C 
BRANCH  23  24
ATOM     24  N   UNL     1       2.385  -5.058  -1.593  0.00  0.00    -0.301 NA
ATOM     25  C   UNL     1       2.179  -6.279  -2.385  0.00  0.00    +0.066 C 
ATOM     26  C   UNL     1       2.701  -6.056  -3.806  0.00  0.00    -0.063 C 
ATOM     27  N   UNL     1       4.130  -5.719  -3.756  0.00  0.00    +0.384 N 
ATOM     28  C   UNL     1       4.317  -4.484  -2.983  0.00  0.00    -0.063 C 
ATOM     29  C   UNL     1       3.808  -4.694  -1.555  0.00  0.00    +0.066 C 
ATOM     30  H   UNL     1       4.637  -6.472  -3.315  0.00  0.00    -0.081 HD
BRANCH  27  31
ATOM     31  C   UNL     1       4.634  -5.523  -5.121  0.00  0.00    -0.043 C 
BRANCH  31  32
ATOM     32  C   UNL     1       6.124  -5.299  -5.079  0.00  0.00    -0.060 A 
ATOM     33  C   UNL     1       6.625  -4.017  -4.951  0.00  0.00    +0.005 A 
ATOM     34  C   UNL     1       7.991  -3.807  -4.911  0.00  0.00    +0.050 A 
ATOM     35  C   UNL     1       8.861  -4.881  -5.000  0.00  0.00    +0.166 A 
ATOM     36  C   UNL     1       8.356  -6.173  -5.129  0.00  0.00    +0.166 A 
ATOM     37  C   UNL     1       6.986  -6.377  -5.162  0.00  0.00    +0.051 A 
ATOM     38  O   UNL     1       9.403  -7.046  -5.196  0.00  0.00    -0.453 OA
ATOM     39  C   UNL     1      10.554  -6.242  -5.518  0.00  0.00    +0.466 C 
ATOM     40  O   UNL     1      10.225  -4.945  -4.987  0.00  0.00    -0.453 OA
ENDBRANCH  31  32
ENDBRANCH  27  31
ENDBRANCH  23  24
ENDBRANCH   9  23
TORSDOF 7
