REMARK  Name = ZINC04089445
REMARK  11 active torsions:
REMARK  status: ('A' for Active; 'I' for Inactive)
REMARK    1  A    between atoms: C_1  and  C_2
REMARK    2  A    between atoms: C_3  and  C_25
REMARK    3  A    between atoms: C_4  and  C_24
REMARK    4  A    between atoms: C_5  and  S_10
REMARK    5  A    between atoms: C_6  and  C_9
REMARK    6  A    between atoms: C_7  and  C_8
REMARK    7  A    between atoms: S_10  and  N_13
REMARK    8  A    between atoms: C_14  and  C_23
REMARK    9  A    between atoms: C_15  and  C_20
REMARK   10  A    between atoms: C_20  and  C_21
REMARK   11  A    between atoms: C_21  and  O_22
REMARK                            x       y       z     vdW  Elec       q    Type
REMARK                         _______ _______ _______ _____ _____    ______ ____
ROOT
ATOM      1  S   UNL     1       0.961  -4.503  -0.299  0.00  0.00    +0.098 S 
ATOM      2  O   UNL     1       0.931  -4.997   1.033  0.00  0.00    -0.146 OA
ATOM      3  O   UNL     1       0.241  -5.120  -1.357  0.00  0.00    -0.146 OA
ENDROOT
BRANCH   1   8
ATOM      4  C   UNL     1      -0.915   1.226  -0.054  0.00  0.00    +0.044 C 
ATOM      5  C   UNL     1      -0.447  -0.204  -0.116  0.00  0.00    -0.044 A 
ATOM      6  C   UNL     1      -0.104  -0.768  -1.330  0.00  0.00    -0.042 A 
ATOM      7  C   UNL     1       0.326  -2.081  -1.386  0.00  0.00    -0.020 A 
ATOM      8  C   UNL     1       0.414  -2.829  -0.228  0.00  0.00    +0.119 A 
ATOM      9  C   UNL     1       0.072  -2.265   0.987  0.00  0.00    -0.020 A 
ATOM     10  C   UNL     1      -0.354  -0.952   1.044  0.00  0.00    -0.042 A 
ATOM     11  C   UNL     1      -0.722  -0.335   2.369  0.00  0.00    +0.044 C 
ATOM     12  C   UNL     1       0.167  -3.082   2.251  0.00  0.00    +0.046 C 
ATOM     13  C   UNL     1       0.699  -2.696  -2.711  0.00  0.00    +0.046 C 
ATOM     14  C   UNL     1      -0.199   0.048  -2.594  0.00  0.00    +0.044 C 
ENDBRANCH   1   8
BRANCH   1  15
ATOM     15  N   UNL     1       2.551  -4.479  -0.759  0.00  0.00    -0.153 N 
ATOM     16  C   UNL     1       3.629  -4.475   0.081  0.00  0.00    +0.067 A 
ATOM     17  C   UNL     1       4.752  -4.453  -0.665  0.00  0.00    +0.043 A 
ATOM     18  C   UNL     1       4.373  -4.443  -2.028  0.00  0.00    +0.270 A 
ATOM     19  O   UNL     1       5.128  -4.425  -2.984  0.00  0.00    -0.266 OA
ATOM     20  N   UNL     1       3.025  -4.465  -2.078  0.00  0.00    -0.243 N 
ATOM     21  H   UNL     1       2.482  -4.468  -2.881  0.00  0.00    +0.192 HD
ATOM     22  C   UNL     1       3.571  -4.491   1.587  0.00  0.00    +0.067 C 
BRANCH  17  23
ATOM     23  C   UNL     1       6.164  -4.441  -0.139  0.00  0.00    +0.070 C 
BRANCH  23  24
ATOM     24  C   UNL     1       6.703  -5.873  -0.093  0.00  0.00    +0.160 C 
BRANCH  24  25
ATOM     25  O   UNL     1       8.042  -5.861   0.406  0.00  0.00    -0.395 OA
ATOM     26  H   UNL     1       8.448  -6.737   0.462  0.00  0.00    +0.209 HD
ENDBRANCH  24  25
ENDBRANCH  23  24
ENDBRANCH  17  23
ENDBRANCH   1  15
TORSDOF 5
