REMARK  Name = ZINC62275025
REMARK  3 active torsions:
REMARK  status: ('A' for Active; 'I' for Inactive)
REMARK    1  A    between atoms: C_6  and  C_7
REMARK    2  A    between atoms: C_15  and  C_17
REMARK    3  A    between atoms: N_22  and  C_24
REMARK                            x       y       z     vdW  Elec       q    Type
REMARK                         _______ _______ _______ _____ _____    ______ ____
ROOT
ATOM      1  C   UNL     1      -1.293  -0.775   0.010  0.00  0.00    +0.192 C 
ATOM      2  C   UNL     1      -1.522  -1.360   1.377  0.00  0.00    +0.238 C 
ATOM      3  O   UNL     1      -1.841  -0.615   2.279  0.00  0.00    -0.273 OA
ATOM      4  N   UNL     1      -1.391  -2.660   1.643  0.00  0.00    -0.312 N 
ATOM      5  C   UNL     1      -1.103  -3.683   0.646  0.00  0.00    +0.123 C 
ATOM      6  C   UNL     1      -0.450  -3.065  -0.592  0.00  0.00    +0.127 C 
ATOM      7  N   UNL     1      -1.222  -1.867  -0.972  0.00  0.00    -0.284 N 
ATOM      8  C   UNL     1      -1.839  -1.776  -2.167  0.00  0.00    +0.222 C 
ATOM      9  O   UNL     1      -2.469  -0.779  -2.450  0.00  0.00    -0.275 OA
ATOM     10  H   UNL     1      -1.494  -2.945   2.564  0.00  0.00    +0.149 HD
ENDROOT
BRANCH   1  16
ATOM     11  C   UNL     1       0.013   1.324  -0.381  0.00  0.00    +0.009 A 
ATOM     12  C   UNL     1       1.200   2.032  -0.389  0.00  0.00    +0.038 A 
ATOM     13  C   UNL     1       2.379   1.410  -0.013  0.00  0.00    +0.123 A 
ATOM     14  C   UNL     1       2.366   0.080   0.370  0.00  0.00    +0.038 A 
ATOM     15  C   UNL     1       1.178  -0.626   0.377  0.00  0.00    +0.009 A 
ATOM     16  C   UNL     1       0.002  -0.004   0.002  0.00  0.00    -0.018 A 
ATOM     17  F   UNL     1       3.540   2.101  -0.021  0.00  0.00    -0.205 F 
ENDBRANCH   1  16
BRANCH   8  18
ATOM     18  C   UNL     1      -1.747  -2.914  -3.151  0.00  0.00    +0.101 C 
ATOM     19  C   UNL     1      -2.436  -4.182  -2.596  0.00  0.00    +0.110 C 
ATOM     20  C   UNL     1      -3.845  -4.107  -3.140  0.00  0.00    +0.217 C 
ATOM     21  O   UNL     1      -4.786  -4.750  -2.724  0.00  0.00    -0.276 OA
ATOM     22  N   UNL     1      -3.904  -3.223  -4.152  0.00  0.00    -0.298 N 
ATOM     23  C   UNL     1      -2.589  -2.623  -4.413  0.00  0.00    +0.121 C 
BRANCH  22  24
ATOM     24  C   UNL     1      -5.123  -2.901  -4.898  0.00  0.00    +0.076 C 
ATOM     25  C   UNL     1      -6.175  -2.340  -3.939  0.00  0.00    +0.022 C 
ATOM     26  C   UNL     1      -7.447  -2.003  -4.718  0.00  0.00    +0.002 C 
ATOM     27  C   UNL     1      -7.988  -3.270  -5.384  0.00  0.00    +0.000 C 
ATOM     28  C   UNL     1      -6.936  -3.831  -6.343  0.00  0.00    +0.002 C 
ATOM     29  C   UNL     1      -5.663  -4.168  -5.564  0.00  0.00    +0.022 C 
ENDBRANCH  22  24
ENDBRANCH   8  18
TORSDOF 3
