REMARK  Name = ZINC63060507
REMARK  12 active torsions:
REMARK  status: ('A' for Active; 'I' for Inactive)
REMARK    1  A    between atoms: C_1  and  C_2
REMARK    2  A    between atoms: C_2  and  O_3
REMARK    3  A    between atoms: O_3  and  C_4
REMARK    4  A    between atoms: C_4  and  C_6
REMARK    5  A    between atoms: C_8  and  C_38
REMARK    6  A    between atoms: C_10  and  C_35
REMARK    7  A    between atoms: C_13  and  N_15
REMARK    8  A    between atoms: C_16  and  C_18
REMARK    9  A    between atoms: C_18  and  S_19
REMARK   10  A    between atoms: S_19  and  C_20
REMARK   11  A    between atoms: C_21  and  C_26
REMARK   12  A    between atoms: C_35  and  C_37
REMARK                            x       y       z     vdW  Elec       q    Type
REMARK                         _______ _______ _______ _____ _____    ______ ____
ROOT
ATOM      1  C   UNL     1       2.170  -0.647  -7.134  0.00  0.00    +0.171 C 
ENDROOT
BRANCH   1   3
ATOM      2  N   UNL     1       1.206  -0.865  -4.866  0.00  0.00    -0.302 N 
ATOM      3  C   UNL     1       1.197  -1.254  -6.156  0.00  0.00    +0.224 C 
ATOM      4  O   UNL     1       0.406  -2.093  -6.531  0.00  0.00    -0.275 OA
ATOM      5  H   UNL     1       1.839  -0.193  -4.566  0.00  0.00    +0.150 HD
BRANCH   2  10
ATOM      6  C   UNL     1       0.972  -1.830  -2.601  0.00  0.00    +0.132 C 
ATOM      7  C   UNL     1       1.018  -3.335  -2.345  0.00  0.00    +0.022 C 
ATOM      8  C   UNL     1      -0.228  -4.026  -2.966  0.00  0.00    +0.118 C 
ATOM      9  S   UNL     1      -0.359  -3.069  -4.540  0.00  0.00    -0.126 S 
ATOM     10  C   UNL     1       0.260  -1.455  -3.916  0.00  0.00    +0.146 C 
ATOM     11  C   UNL     1       1.039  -3.592  -0.837  0.00  0.00    +0.010 C 
BRANCH   8  12
ATOM     12  C   UNL     1       0.029  -5.487  -3.231  0.00  0.00    +0.143 C 
ATOM     13  O   UNL     1      -0.299  -6.315  -2.415  0.00  0.00    -0.297 OA
ATOM     14  C   UNL     1       0.694  -5.916  -4.513  0.00  0.00    +0.087 C 
ENDBRANCH   8  12
BRANCH   6  15
ATOM     15  C   UNL     1       0.250  -1.167  -1.456  0.00  0.00    +0.313 C 
ATOM     16  O   UNL     1      -0.955  -1.086  -1.467  0.00  0.00    -0.250 OA
BRANCH  15  17
ATOM     17  O   UNL     1       0.947  -0.667  -0.423  0.00  0.00    -0.465 OA
BRANCH  17  19
ATOM     18  C   UNL     1       1.157   0.453   1.708  0.00  0.00    +0.048 C 
ATOM     19  C   UNL     1       0.198  -0.053   0.628  0.00  0.00    +0.229 C 
ENDBRANCH  17  19
ENDBRANCH  15  17
ENDBRANCH   6  15
ENDBRANCH   2  10
ENDBRANCH   1   3
BRANCH   1  20
ATOM     20  S   UNL     1       1.910  -1.372  -8.776  0.00  0.00    -0.096 S 
BRANCH  20  21
ATOM     21  C   UNL     1       3.107  -0.570  -9.790  0.00  0.00    +0.104 A 
ATOM     22  C   UNL     1       3.188  -0.887 -11.143  0.00  0.00    +0.027 A 
ATOM     23  C   UNL     1       4.132  -0.250 -11.928  0.00  0.00    +0.011 A 
ATOM     24  C   UNL     1       4.966   0.687 -11.332  0.00  0.00    +0.020 A 
ATOM     25  C   UNL     1       4.831   0.953  -9.984  0.00  0.00    +0.112 A 
ATOM     26  N   UNL     1       3.918   0.334  -9.260  0.00  0.00    -0.248 NA
BRANCH  22  27
ATOM     27  C   UNL     1       2.260  -1.911 -11.745  0.00  0.00    +0.208 C 
ATOM     28  N   UNL     1       2.842  -2.455 -12.979  0.00  0.00    -0.360 N 
ATOM     29  C   UNL     1       2.023  -2.177 -13.952  0.00  0.00    +0.060 A 
ATOM     30  C   UNL     1       2.056  -2.455 -15.394  0.00  0.00    +0.027 A 
ATOM     31  C   UNL     1       1.041  -2.034 -16.176  0.00  0.00    +0.002 A 
ATOM     32  C   UNL     1      -0.065  -1.329 -15.668  0.00  0.00    +0.002 A 
ATOM     33  C   UNL     1      -0.193  -1.022 -14.362  0.00  0.00    +0.027 A 
ATOM     34  C   UNL     1       0.853  -1.432 -13.414  0.00  0.00    +0.060 A 
ATOM     35  N   UNL     1       0.992  -1.278 -12.129  0.00  0.00    -0.360 N 
ATOM     36  H   UNL     1       3.682  -2.933 -13.054  0.00  0.00    +0.162 HD
ATOM     37  H   UNL     1       0.372  -0.828 -11.534  0.00  0.00    +0.162 HD
ENDBRANCH  22  27
ENDBRANCH  20  21
ENDBRANCH   1  20
TORSDOF 9
