REMARK  Name = ZINC04124658
REMARK  8 active torsions:
REMARK  status: ('A' for Active; 'I' for Inactive)
REMARK    1  A    between atoms: C_1  and  C_2
REMARK    2  A    between atoms: C_2  and  N_3
REMARK    3  A    between atoms: C_6  and  O_33
REMARK    4  A    between atoms: N_15  and  C_26
REMARK    5  A    between atoms: N_17  and  C_18
REMARK    6  A    between atoms: C_21  and  O_24
REMARK    7  A    between atoms: C_29  and  O_32
REMARK    8  A    between atoms: O_33  and  C_34
REMARK                            x       y       z     vdW  Elec       q    Type
REMARK                         _______ _______ _______ _____ _____    ______ ____
ROOT
ATOM      1  N   UNL     1      -2.683   3.848   0.952  0.00  0.00    -0.293 N 
ATOM      2  C   UNL     1      -1.468   3.399   1.437  0.00  0.00    +0.052 A 
ATOM      3  C   UNL     1      -0.255   4.107   1.490  0.00  0.00    +0.070 A 
ATOM      4  C   UNL     1       0.883   3.524   2.005  0.00  0.00    +0.122 A 
ATOM      5  C   UNL     1       0.867   2.221   2.487  0.00  0.00    +0.047 A 
ATOM      6  C   UNL     1      -0.315   1.504   2.446  0.00  0.00    +0.020 A 
ATOM      7  C   UNL     1      -1.448   2.085   1.927  0.00  0.00    +0.036 A 
ATOM      8  S   UNL     1      -3.118   1.529   1.689  0.00  0.00    -0.071 S 
ATOM      9  C   UNL     1      -3.774   3.019   0.957  0.00  0.00    +0.092 C 
ATOM     10  C   UNL     1      -5.064   3.278   0.517  0.00  0.00    +0.106 C 
ATOM     11  C   UNL     1      -6.191   2.437   0.525  0.00  0.00    +0.266 C 
ATOM     12  O   UNL     1      -6.114   1.300   0.963  0.00  0.00    -0.269 OA
ATOM     13  N   UNL     1      -7.337   2.899   0.054  0.00  0.00    -0.214 N 
ATOM     14  C   UNL     1      -7.407   4.185  -0.445  0.00  0.00    +0.173 C 
ATOM     15  N   UNL     1      -8.440   4.820  -0.958  0.00  0.00    -0.225 NA
ATOM     16  S   UNL     1      -5.732   4.764  -0.216  0.00  0.00    -0.046 S 
ENDROOT
BRANCH  15  17
ATOM     17  C   UNL     1      -8.301   6.108  -1.403  0.00  0.00    +0.067 A 
ATOM     18  C   UNL     1      -7.617   7.046  -0.627  0.00  0.00    +0.031 A 
ATOM     19  C   UNL     1      -7.476   8.341  -1.081  0.00  0.00    +0.047 A 
ATOM     20  C   UNL     1      -8.020   8.714  -2.302  0.00  0.00    +0.117 A 
ATOM     21  C   UNL     1      -8.705   7.786  -3.074  0.00  0.00    +0.047 A 
ATOM     22  C   UNL     1      -8.848   6.488  -2.630  0.00  0.00    +0.031 A 
BRANCH  20  23
ATOM     23  O   UNL     1      -7.883   9.993  -2.744  0.00  0.00    -0.507 OA
ATOM     24  H   UNL     1      -8.597  10.584  -2.467  0.00  0.00    +0.292 HD
ENDBRANCH  20  23
ENDBRANCH  15  17
BRANCH  13  25
ATOM     25  C   UNL     1      -8.477   2.082   0.056  0.00  0.00    +0.044 A 
ATOM     26  C   UNL     1      -9.329   2.081   1.153  0.00  0.00    +0.027 A 
ATOM     27  C   UNL     1     -10.454   1.281   1.151  0.00  0.00    +0.047 A 
ATOM     28  C   UNL     1     -10.728   0.470   0.060  0.00  0.00    +0.117 A 
ATOM     29  C   UNL     1      -9.875   0.467  -1.034  0.00  0.00    +0.047 A 
ATOM     30  C   UNL     1      -8.752   1.270  -1.036  0.00  0.00    +0.027 A 
BRANCH  28  31
ATOM     31  O   UNL     1     -11.834  -0.322   0.062  0.00  0.00    -0.507 OA
ATOM     32  H   UNL     1     -11.685  -1.204   0.430  0.00  0.00    +0.292 HD
ENDBRANCH  28  31
ENDBRANCH  13  25
BRANCH   1  34
ATOM     33  C   UNL     1      -2.495   5.189  -1.085  0.00  0.00    +0.025 C 
ATOM     34  C   UNL     1      -2.799   5.206   0.415  0.00  0.00    +0.108 C 
ENDBRANCH   1  34
BRANCH   4  35
ATOM     35  O   UNL     1       2.041   4.236   2.041  0.00  0.00    -0.495 OA
ATOM     36  C   UNL     1       3.188   3.581   2.586  0.00  0.00    +0.277 C 
ENDBRANCH   4  35
TORSDOF 6
