REMARK  Name = ZINC35673739
REMARK  13 active torsions:
REMARK  status: ('A' for Active; 'I' for Inactive)
REMARK    1  A    between atoms: C_1  and  C_2
REMARK    2  A    between atoms: C_2  and  C_3
REMARK    3  A    between atoms: C_2  and  C_4
REMARK    4  A    between atoms: C_7  and  N_10
REMARK    5  A    between atoms: C_12  and  C_33
REMARK    6  A    between atoms: C_16  and  C_18
REMARK    7  A    between atoms: C_18  and  N_19
REMARK    8  A    between atoms: N_19  and  C_20
REMARK    9  A    between atoms: C_20  and  C_21
REMARK   10  A    between atoms: N_28  and  C_29
REMARK   11  A    between atoms: C_29  and  C_30
REMARK   12  A    between atoms: C_29  and  C_31
REMARK   13  A    between atoms: C_29  and  C_32
REMARK                            x       y       z     vdW  Elec       q    Type
REMARK                         _______ _______ _______ _____ _____    ______ ____
ROOT
ATOM      1  N   UNL     1      -5.322  -1.969   0.043  0.00  0.00    -0.287 N 
ATOM      2  C   UNL     1      -5.950  -2.602   1.088  0.00  0.00    +0.122 A 
ATOM      3  C   UNL     1      -7.205  -2.901   0.670  0.00  0.00    +0.091 A 
ATOM      4  N   UNL     1      -7.339  -2.460  -0.600  0.00  0.00    -0.214 NA
ATOM      5  C   UNL     1      -6.220  -1.896  -0.982  0.00  0.00    +0.207 A 
ATOM      6  N   UNL     1      -5.985  -1.323  -2.224  0.00  0.00    -0.254 N 
ATOM      7  C   UNL     1      -6.958  -1.313  -3.157  0.00  0.00    +0.237 C 
ATOM      8  O   UNL     1      -8.039  -1.806  -2.910  0.00  0.00    -0.274 OA
ATOM      9  H   UNL     1      -5.121  -0.929  -2.421  0.00  0.00    +0.158 HD
ENDROOT
BRANCH   1  13
ATOM     10  C   UNL     1      -1.412  -0.526   0.013  0.00  0.00    -0.045 A 
ATOM     11  C   UNL     1      -2.258  -0.203   1.058  0.00  0.00    +0.006 A 
ATOM     12  C   UNL     1      -3.555  -0.680   1.070  0.00  0.00    +0.026 A 
ATOM     13  C   UNL     1      -4.007  -1.483   0.032  0.00  0.00    +0.049 A 
ATOM     14  C   UNL     1      -3.155  -1.805  -1.015  0.00  0.00    +0.026 A 
ATOM     15  C   UNL     1      -1.862  -1.321  -1.025  0.00  0.00    +0.006 A 
BRANCH  10  17
ATOM     16  C   UNL     1      -0.019   1.526   0.010  0.00  0.00    +0.012 C 
ATOM     17  C   UNL     1       0.002  -0.004   0.002  0.00  0.00    +0.013 C 
ATOM     18  C   UNL     1       0.742  -0.511   1.242  0.00  0.00    +0.012 C 
ENDBRANCH  10  17
ENDBRANCH   1  13
BRANCH   3  19
ATOM     19  C   UNL     1      -8.249  -3.591   1.467  0.00  0.00    +0.002 A 
ATOM     20  C   UNL     1      -7.979  -3.990   2.775  0.00  0.00    +0.010 A 
ATOM     21  C   UNL     1      -8.954  -4.632   3.512  0.00  0.00    +0.001 A 
ATOM     22  C   UNL     1     -10.196  -4.879   2.955  0.00  0.00    +0.000 A 
ATOM     23  C   UNL     1     -10.469  -4.485   1.657  0.00  0.00    +0.001 A 
ATOM     24  C   UNL     1      -9.504  -3.837   0.913  0.00  0.00    +0.010 A 
ENDBRANCH   3  19
BRANCH   7  25
ATOM     25  C   UNL     1      -6.703  -0.691  -4.505  0.00  0.00    +0.205 C 
BRANCH  25  26
ATOM     26  N   UNL     1      -7.907  -0.808  -5.332  0.00  0.00    -0.270 N 
ATOM     27  C   UNL     1      -8.084  -1.890  -6.116  0.00  0.00    +0.303 C 
ATOM     28  O   UNL     1      -9.083  -1.987  -6.802  0.00  0.00    -0.253 OA
ATOM     29  N   UNL     1      -7.154  -2.865  -6.139  0.00  0.00    -0.294 N 
ATOM     30  H   UNL     1      -6.357  -2.788  -5.591  0.00  0.00    +0.151 HD
BRANCH  29  31
ATOM     31  C   UNL     1      -7.346  -4.041  -6.991  0.00  0.00    +0.028 C 
ATOM     32  C   UNL     1      -7.456  -3.600  -8.452  0.00  0.00    +0.031 C 
ATOM     33  C   UNL     1      -6.154  -4.987  -6.831  0.00  0.00    +0.031 C 
ATOM     34  C   UNL     1      -8.630  -4.765  -6.579  0.00  0.00    +0.031 C 
ENDBRANCH  29  31
BRANCH  26  35
ATOM     35  C   UNL     1      -8.918   0.252  -5.307  0.00  0.00    +0.184 C 
BRANCH  35  36
ATOM     36  C   UNL     1      -8.598   1.277  -6.364  0.00  0.00    +0.122 A 
ATOM     37  C   UNL     1      -9.035   1.260  -7.636  0.00  0.00    +0.046 A 
ATOM     38  C   UNL     1      -8.496   2.402  -8.270  0.00  0.00    +0.041 A 
ATOM     39  C   UNL     1      -7.761   3.050  -7.348  0.00  0.00    +0.195 A 
ATOM     40  O   UNL     1      -7.831   2.367  -6.194  0.00  0.00    -0.466 OA
ENDBRANCH  35  36
ENDBRANCH  26  35
ENDBRANCH  25  26
ENDBRANCH   7  25
TORSDOF 8
