REMARK  Name = ZINC63160782
REMARK  6 active torsions:
REMARK  status: ('A' for Active; 'I' for Inactive)
REMARK    1  A    between atoms: C_1  and  C_2
REMARK    2  A    between atoms: C_5  and  S_22
REMARK    3  A    between atoms: C_6  and  N_8
REMARK    4  A    between atoms: N_11  and  C_12
REMARK    5  A    between atoms: C_12  and  C_16
REMARK    6  A    between atoms: S_22  and  C_25
REMARK                            x       y       z     vdW  Elec       q    Type
REMARK                         _______ _______ _______ _____ _____    ______ ____
ROOT
ATOM      1  N   UNL     1       0.058  -2.806   2.394  0.00  0.00    -0.268 N 
ATOM      2  C   UNL     1       0.159  -2.140   3.562  0.00  0.00    +0.305 C 
ATOM      3  O   UNL     1       0.153  -0.925   3.571  0.00  0.00    -0.252 OA
ATOM      4  N   UNL     1       0.267  -2.823   4.719  0.00  0.00    -0.290 N 
ATOM      5  H   UNL     1      -0.002  -3.774   2.391  0.00  0.00    +0.156 HD
ATOM      6  H   UNL     1       0.348  -3.789   4.707  0.00  0.00    +0.151 HD
ENDROOT
BRANCH   1  12
ATOM      7  C   UNL     1      -1.267   1.182  -0.158  0.00  0.00    +0.044 C 
ATOM      8  C   UNL     1      -0.596  -0.165  -0.080  0.00  0.00    -0.049 A 
ATOM      9  C   UNL     1       0.004  -0.705  -1.203  0.00  0.00    +0.005 A 
ATOM     10  C   UNL     1       0.620  -1.940  -1.135  0.00  0.00    +0.029 A 
ATOM     11  C   UNL     1       0.640  -2.639   0.056  0.00  0.00    +0.109 A 
ATOM     12  C   UNL     1       0.040  -2.100   1.186  0.00  0.00    +0.060 A 
ATOM     13  C   UNL     1      -0.574  -0.856   1.116  0.00  0.00    +0.028 A 
BRANCH  11  14
ATOM     14  S   UNL     1       1.426  -4.214   0.141  0.00  0.00    -0.004 S 
ATOM     15  O   UNL     1       0.459  -5.070   0.733  0.00  0.00    -0.170 OA
ATOM     16  O   UNL     1       1.898  -4.455  -1.177  0.00  0.00    -0.170 OA
ATOM     17  C   UNL     1       2.825  -3.976   1.272  0.00  0.00    +0.200 C 
ENDBRANCH  11  14
ENDBRANCH   1  12
BRANCH   4  18
ATOM     18  C   UNL     1       0.262  -2.104   5.996  0.00  0.00    +0.061 C 
ATOM     19  C   UNL     1      -0.262  -2.944   7.173  0.00  0.00    +0.031 C 
ATOM     20  C   UNL     1      -1.665  -2.425   6.815  0.00  0.00    +0.005 C 
ATOM     21  C   UNL     1      -0.969  -1.204   6.192  0.00  0.00    +0.031 C 
BRANCH  18  22
ATOM     22  C   UNL     1       1.569  -1.411   6.282  0.00  0.00    -0.024 A 
ATOM     23  C   UNL     1       1.639  -0.449   7.273  0.00  0.00    +0.006 A 
ATOM     24  C   UNL     1       2.838   0.187   7.535  0.00  0.00    +0.000 A 
ATOM     25  C   UNL     1       3.967  -0.139   6.808  0.00  0.00    +0.000 A 
ATOM     26  C   UNL     1       3.897  -1.101   5.818  0.00  0.00    +0.000 A 
ATOM     27  C   UNL     1       2.700  -1.740   5.558  0.00  0.00    +0.006 A 
ENDBRANCH  18  22
ENDBRANCH   4  18
TORSDOF 4
