REMARK  Name = ZINC12100039
REMARK  10 active torsions:
REMARK  status: ('A' for Active; 'I' for Inactive)
REMARK    1  A    between atoms: C_1  and  O_2
REMARK    2  A    between atoms: O_2  and  C_3
REMARK    3  A    between atoms: C_5  and  C_11
REMARK    4  A    between atoms: C_7  and  O_9
REMARK    5  A    between atoms: O_9  and  C_10
REMARK    6  A    between atoms: C_11  and  N_63
REMARK    7  A    between atoms: C_14  and  C_17
REMARK    8  A    between atoms: C_17  and  C_24
REMARK    9  A    between atoms: C_24  and  C_25
REMARK   10  A    between atoms: C_25  and  C_26
REMARK                            x       y       z     vdW  Elec       q    Type
REMARK                         _______ _______ _______ _____ _____    ______ ____
ROOT
ATOM      1  C   UNL     1       1.344   2.014   0.000  0.00  0.00    -0.078 C 
ATOM      2  C   UNL     1       2.086   1.565   1.261  0.00  0.00    -0.013 C 
ATOM      3  C   UNL     1       2.133   0.035   1.302  0.00  0.00    +0.018 C 
ATOM      4  C   UNL     1       0.704  -0.513   1.263  0.00  0.00    -0.013 C 
ATOM      5  C   UNL     1       0.002  -0.004   0.002  0.00  0.00    -0.078 C 
ATOM      6  N   UNL     1      -0.032   1.474   0.035  0.00  0.00    +0.382 N 
ATOM      7  H   UNL     1      -0.487   1.777   0.904  0.00  0.00    -0.081 HD
ENDROOT
BRANCH   3   8
ATOM      8  C   UNL     1       2.821  -0.422   2.591  0.00  0.00    +0.115 C 
ATOM      9  C   UNL     1       2.812  -1.934   2.692  0.00  0.00    +0.244 C 
ATOM     10  O   UNL     1       3.330  -2.722   1.930  0.00  0.00    -0.273 OA
ATOM     11  N   UNL     1       2.110  -2.221   3.806  0.00  0.00    -0.238 N 
ATOM     12  C   UNL     1       1.679  -1.111   4.417  0.00  0.00    +0.307 C 
ATOM     13  O   UNL     1       1.024  -1.114   5.441  0.00  0.00    -0.252 OA
ATOM     14  N   UNL     1       2.053   0.012   3.770  0.00  0.00    -0.285 N 
ATOM     15  H   UNL     1       1.940  -3.120   4.127  0.00  0.00    +0.159 HD
ATOM     16  H   UNL     1       1.855   0.926   4.029  0.00  0.00    +0.151 HD
BRANCH   8  17
ATOM     17  C   UNL     1       4.253   0.114   2.654  0.00  0.00    +0.040 C 
BRANCH  17  18
ATOM     18  C   UNL     1       4.916  -0.357   3.949  0.00  0.00    +0.038 C 
BRANCH  18  19
ATOM     19  C   UNL     1       6.327   0.171   4.012  0.00  0.00    -0.047 A 
ATOM     20  C   UNL     1       7.367  -0.573   3.487  0.00  0.00    +0.003 A 
ATOM     21  C   UNL     1       8.660  -0.087   3.539  0.00  0.00    +0.000 A 
ATOM     22  C   UNL     1       8.914   1.139   4.127  0.00  0.00    +0.000 A 
ATOM     23  C   UNL     1       7.875   1.880   4.656  0.00  0.00    +0.000 A 
ATOM     24  C   UNL     1       6.581   1.396   4.599  0.00  0.00    +0.003 A 
ENDBRANCH  18  19
ENDBRANCH  17  18
ENDBRANCH   8  17
ENDBRANCH   3   8
BRANCH   6  25
ATOM     25  C   UNL     1      -0.804   1.986  -1.115  0.00  0.00    -0.043 C 
BRANCH  25  28
ATOM     26  C   UNL     1      -0.279   5.725  -1.308  0.00  0.00    +0.124 A 
ATOM     27  C   UNL     1      -0.093   4.359  -1.468  0.00  0.00    +0.047 A 
ATOM     28  C   UNL     1      -1.009   3.469  -0.940  0.00  0.00    -0.057 A 
ATOM     29  C   UNL     1      -2.115   3.937  -0.257  0.00  0.00    +0.047 A 
ATOM     30  C   UNL     1      -2.304   5.301  -0.090  0.00  0.00    +0.124 A 
ATOM     31  C   UNL     1      -1.386   6.196  -0.619  0.00  0.00    +0.091 A 
BRANCH  26  33
ATOM     32  C   UNL     1       0.367   7.991  -1.624  0.00  0.00    +0.277 C 
ATOM     33  O   UNL     1       0.622   6.599  -1.827  0.00  0.00    -0.495 OA
ENDBRANCH  26  33
BRANCH  30  34
ATOM     34  O   UNL     1      -3.389   5.761   0.586  0.00  0.00    -0.495 OA
ATOM     35  C   UNL     1      -3.521   7.178   0.716  0.00  0.00    +0.277 C 
ENDBRANCH  30  34
ENDBRANCH  25  28
ENDBRANCH   6  25
TORSDOF 8
