REMARK  Name = ZINC14359640
REMARK  8 active torsions:
REMARK  status: ('A' for Active; 'I' for Inactive)
REMARK    1  A    between atoms: C_1  and  C_2
REMARK    2  A    between atoms: C_5  and  C_8
REMARK    3  A    between atoms: C_8  and  N_9
REMARK    4  A    between atoms: N_9  and  C_10
REMARK    5  A    between atoms: C_10  and  C_11
REMARK    6  A    between atoms: N_13  and  C_14
REMARK    7  A    between atoms: C_18  and  S_20
REMARK    8  A    between atoms: S_20  and  N_23
REMARK                            x       y       z     vdW  Elec       q    Type
REMARK                         _______ _______ _______ _____ _____    ______ ____
ROOT
ATOM      1  C   UNL     1       4.500  -8.418   0.022  0.00  0.00    +0.035 A 
ATOM      2  C   UNL     1       5.503  -7.463   0.123  0.00  0.00    +0.023 A 
ATOM      3  C   UNL     1       6.824  -7.858   0.202  0.00  0.00    +0.004 A 
ATOM      4  C   UNL     1       7.148  -9.202   0.181  0.00  0.00    +0.029 A 
ATOM      5  C   UNL     1       6.151 -10.155   0.080  0.00  0.00    +0.114 A 
ATOM      6  C   UNL     1       4.828  -9.767   0.007  0.00  0.00    +0.052 A 
ENDROOT
BRANCH   1   9
ATOM      7  C   UNL     1       2.201  -8.765   0.527  0.00  0.00    +0.200 C 
ATOM      8  O   UNL     1       2.487  -9.820   1.053  0.00  0.00    -0.278 OA
ATOM      9  N   UNL     1       3.160  -8.022  -0.059  0.00  0.00    -0.287 N 
ATOM     10  H   UNL     1       2.922  -7.212  -0.537  0.00  0.00    +0.155 HD
BRANCH   7  11
ATOM     11  C   UNL     1       0.772  -8.285   0.530  0.00  0.00    +0.016 C 
BRANCH  11  12
ATOM     12  N   UNL     1      -0.072  -9.265   1.226  0.00  0.00    +0.387 N 
ATOM     13  H   UNL     1       0.249  -9.372   2.176  0.00  0.00    -0.085 HD
ATOM     14  H   UNL     1      -0.017 -10.154   0.750  0.00  0.00    -0.085 HD
BRANCH  12  15
ATOM     15  C   UNL     1      -1.465  -8.797   1.228  0.00  0.00    -0.046 C 
BRANCH  15  20
ATOM     16  C   UNL     1      -4.790 -12.652   3.963  0.00  0.00    +0.044 C 
ATOM     17  C   UNL     1      -3.923 -11.647   3.250  0.00  0.00    -0.050 A 
ATOM     18  C   UNL     1      -3.331 -10.618   3.959  0.00  0.00    +0.003 A 
ATOM     19  C   UNL     1      -2.536  -9.696   3.305  0.00  0.00    +0.002 A 
ATOM     20  C   UNL     1      -2.331  -9.803   1.942  0.00  0.00    -0.064 A 
ATOM     21  C   UNL     1      -2.922 -10.832   1.233  0.00  0.00    +0.002 A 
ATOM     22  C   UNL     1      -3.714 -11.757   1.887  0.00  0.00    +0.003 A 
ENDBRANCH  15  20
ENDBRANCH  12  15
ENDBRANCH  11  12
ENDBRANCH   7  11
ENDBRANCH   1   9
BRANCH   5  23
ATOM     23  S   UNL     1       6.570 -11.867   0.052  0.00  0.00    +0.100 S 
ATOM     24  O   UNL     1       5.498 -12.536  -0.597  0.00  0.00    -0.146 OA
ATOM     25  O   UNL     1       7.911 -11.950  -0.409  0.00  0.00    -0.146 OA
BRANCH  23  26
ATOM     26  N   UNL     1       6.576 -12.395   1.622  0.00  0.00    -0.118 NA
ATOM     27  C   UNL     1       6.855 -13.629   1.888  0.00  0.00    +0.117 C 
ATOM     28  N   UNL     1       7.162 -14.540   0.866  0.00  0.00    -0.331 N 
ATOM     29  C   UNL     1       8.510 -15.026   0.805  0.00  0.00    +0.102 C 
ATOM     30  C   UNL     1       8.808 -16.284   1.638  0.00  0.00    +0.019 C 
ATOM     31  C   UNL     1       8.111 -16.195   3.019  0.00  0.00    +0.002 C 
ATOM     32  C   UNL     1       8.177 -14.820   3.622  0.00  0.00    +0.008 C 
ATOM     33  C   UNL     1       6.868 -14.117   3.251  0.00  0.00    +0.073 C 
ATOM     34  H   UNL     1       6.491 -14.830   0.228  0.00  0.00    +0.147 HD
ENDBRANCH  23  26
ENDBRANCH   5  23
TORSDOF 7
