REMARK  Name = ZINC39467194
REMARK  4 active torsions:
REMARK  status: ('A' for Active; 'I' for Inactive)
REMARK    1  A    between atoms: C_1  and  O_2
REMARK    2  A    between atoms: O_2  and  C_3
REMARK    3  A    between atoms: P_12  and  C_22
REMARK    4  A    between atoms: C_27  and  O_28
REMARK                            x       y       z     vdW  Elec       q    Type
REMARK                         _______ _______ _______ _____ _____    ______ ____
ROOT
ATOM      1  C   UNL     1      -1.200  -0.637   0.010  0.00  0.00    +0.129 C 
ATOM      2  C   UNL     1      -2.335   0.069   0.019  0.00  0.00    +0.023 C 
ATOM      3  C   UNL     1      -3.655  -0.653   0.040  0.00  0.00    +0.019 C 
ATOM      4  C   UNL     1      -4.748   0.244   0.606  0.00  0.00    -0.002 C 
ATOM      5  C   UNL     1      -4.476   0.572   2.079  0.00  0.00    -0.020 C 
ATOM      6  C   UNL     1      -5.637   1.448   2.567  0.00  0.00    +0.157 C 
ATOM      7  O   UNL     1      -5.410   1.829   3.936  0.00  0.00    -0.316 OA
ATOM      8  P   UNL     1      -5.043   0.651   4.996  0.00  0.00    +0.291 P 
ATOM      9  O   UNL     1      -6.271  -0.052   5.429  0.00  0.00    -0.269 OA
ATOM     10  N   UNL     1      -4.054  -0.381   4.171  0.00  0.00    -0.288 NA
ATOM     11  N   UNL     1      -4.374  -0.663   2.859  0.00  0.00    +0.398 N 
ATOM     12  C   UNL     1      -3.279  -1.503   2.349  0.00  0.00    -0.046 C 
ATOM     13  C   UNL     1      -3.539  -1.905   0.915  0.00  0.00    +0.005 C 
ATOM     14  C   UNL     1      -2.364  -2.725   0.439  0.00  0.00    -0.007 C 
ATOM     15  C   UNL     1      -1.266  -2.112   0.003  0.00  0.00    +0.051 C 
ATOM     16  I   UNL     1       0.366  -3.233  -0.683  0.00  0.00    -0.040 I 
ATOM     17  H   UNL     1      -3.276  -0.776   4.595  0.00  0.00    +0.111 HD
ATOM     18  H   UNL     1      -5.249  -1.163   2.820  0.00  0.00    -0.055 HD
ENDROOT
BRANCH   8  19
ATOM     19  C   UNL     1      -4.177   1.344   6.432  0.00  0.00    +0.091 A 
ATOM     20  C   UNL     1      -2.799   1.445   6.426  0.00  0.00    +0.018 A 
ATOM     21  C   UNL     1      -2.139   1.973   7.520  0.00  0.00    +0.001 A 
ATOM     22  C   UNL     1      -2.856   2.401   8.622  0.00  0.00    +0.004 A 
ATOM     23  C   UNL     1      -4.233   2.303   8.633  0.00  0.00    +0.046 A 
ATOM     24  C   UNL     1      -4.899   1.779   7.534  0.00  0.00    +0.131 A 
BRANCH  24  25
ATOM     25  O   UNL     1      -6.255   1.686   7.540  0.00  0.00    -0.506 OA
ATOM     26  H   UNL     1      -6.590   0.853   7.896  0.00  0.00    +0.292 HD
ENDBRANCH  24  25
ENDBRANCH   8  19
BRANCH   1  28
ATOM     27  C   UNL     1      -0.017   1.425   0.010  0.00  0.00    +0.277 C 
ATOM     28  O   UNL     1       0.002  -0.004   0.002  0.00  0.00    -0.494 OA
ENDBRANCH   1  28
TORSDOF 3
