REMARK  Name = ZINC06292422
REMARK  8 active torsions:
REMARK  status: ('A' for Active; 'I' for Inactive)
REMARK    1  A    between atoms: C_1  and  C_2
REMARK    2  A    between atoms: C_5  and  C_8
REMARK    3  A    between atoms: C_11  and  C_32
REMARK    4  A    between atoms: C_16  and  N_18
REMARK    5  A    between atoms: N_18  and  S_19
REMARK    6  A    between atoms: S_19  and  C_22
REMARK    7  A    between atoms: C_25  and  N_28
REMARK    8  A    between atoms: C_29  and  C_31
REMARK                            x       y       z     vdW  Elec       q    Type
REMARK                         _______ _______ _______ _____ _____    ______ ____
ROOT
ATOM      1  C   UNL     1      -0.010  -4.321  -0.221  0.00  0.00    +0.147 C 
ATOM      2  C   UNL     1       1.223  -4.983   0.405  0.00  0.00    +0.087 C 
ATOM      3  C   UNL     1       1.004  -6.457   0.598  0.00  0.00    +0.055 C 
ATOM      4  N   UNL     1      -0.164  -6.963   0.889  0.00  0.00    -0.217 NA
ATOM      5  C   UNL     1      -1.239  -6.133   0.950  0.00  0.00    +0.228 A 
ATOM      6  N   UNL     1      -1.199  -4.867   0.433  0.00  0.00    -0.221 N 
ATOM      7  N   UNL     1      -2.447  -4.298   0.665  0.00  0.00    -0.130 NA
ATOM      8  C   UNL     1      -3.174  -5.214   1.272  0.00  0.00    +0.255 A 
ATOM      9  N   UNL     1      -2.443  -6.324   1.433  0.00  0.00    -0.293 N 
ATOM     10  H   UNL     1      -2.756  -7.145   1.844  0.00  0.00    +0.172 HD
ENDROOT
BRANCH   1  15
ATOM     11  C   UNL     1       0.215   1.395   0.597  0.00  0.00    +0.044 C 
ATOM     12  C   UNL     1       0.157  -0.095   0.384  0.00  0.00    -0.050 A 
ATOM     13  C   UNL     1       0.108  -0.608  -0.899  0.00  0.00    +0.004 A 
ATOM     14  C   UNL     1       0.055  -1.976  -1.095  0.00  0.00    +0.006 A 
ATOM     15  C   UNL     1       0.050  -2.830  -0.008  0.00  0.00    -0.023 A 
ATOM     16  C   UNL     1       0.099  -2.317   1.275  0.00  0.00    +0.006 A 
ATOM     17  C   UNL     1       0.157  -0.950   1.471  0.00  0.00    +0.004 A 
ENDBRANCH   1  15
BRANCH   3  18
ATOM     18  C   UNL     1       2.151  -7.367   0.453  0.00  0.00    -0.004 A 
ATOM     19  C   UNL     1       3.418  -6.858   0.146  0.00  0.00    +0.010 A 
ATOM     20  C   UNL     1       4.488  -7.717   0.012  0.00  0.00    +0.001 A 
ATOM     21  C   UNL     1       4.311  -9.080   0.179  0.00  0.00    +0.000 A 
ATOM     22  C   UNL     1       3.062  -9.591   0.482  0.00  0.00    +0.001 A 
ATOM     23  C   UNL     1       1.983  -8.745   0.625  0.00  0.00    +0.010 A 
ENDBRANCH   3  18
BRANCH   8  24
ATOM     24  N   UNL     1      -4.497  -5.052   1.684  0.00  0.00    -0.058 NA
BRANCH  24  25
ATOM     25  S   UNL     1      -5.277  -3.615   1.419  0.00  0.00    +0.094 S 
ATOM     26  O   UNL     1      -4.620  -2.642   2.219  0.00  0.00    -0.148 OA
ATOM     27  O   UNL     1      -5.410  -3.480   0.011  0.00  0.00    -0.148 OA
BRANCH  25  28
ATOM     28  C   UNL     1      -6.908  -3.780   2.065  0.00  0.00    +0.111 A 
ATOM     29  C   UNL     1      -7.926  -4.253   1.257  0.00  0.00    +0.031 A 
ATOM     30  C   UNL     1      -9.205  -4.384   1.761  0.00  0.00    +0.025 A 
ATOM     31  C   UNL     1      -9.469  -4.040   3.080  0.00  0.00    +0.033 A 
ATOM     32  C   UNL     1      -8.444  -3.566   3.889  0.00  0.00    +0.025 A 
ATOM     33  C   UNL     1      -7.166  -3.442   3.381  0.00  0.00    +0.031 A 
BRANCH  31  34
ATOM     34  N   UNL     1     -10.764  -4.171   3.593  0.00  0.00    -0.286 N 
ATOM     35  C   UNL     1     -11.563  -5.165   3.159  0.00  0.00    +0.214 C 
ATOM     36  O   UNL     1     -11.130  -6.003   2.397  0.00  0.00    -0.276 OA
ATOM     37  C   UNL     1     -12.996  -5.236   3.622  0.00  0.00    +0.109 C 
ATOM     38  H   UNL     1     -11.086  -3.546   4.261  0.00  0.00    +0.155 HD
ENDBRANCH  31  34
ENDBRANCH  25  28
ENDBRANCH  24  25
ENDBRANCH   8  24
TORSDOF 6
