REMARK  Name = ZINC32738513
REMARK  5 active torsions:
REMARK  status: ('A' for Active; 'I' for Inactive)
REMARK    1  A    between atoms: C_8  and  C_24
REMARK    2  A    between atoms: N_10  and  C_12
REMARK    3  A    between atoms: C_12  and  C_13
REMARK    4  A    between atoms: N_15  and  C_16
REMARK    5  A    between atoms: C_16  and  C_17
REMARK                            x       y       z     vdW  Elec       q    Type
REMARK                         _______ _______ _______ _____ _____    ______ ____
ROOT
ATOM      1  C   UNL     1      -0.268   1.480  -0.481  0.00  0.00    +0.000 A 
ATOM      2  C   UNL     1       0.829   1.054   0.244  0.00  0.00    +0.000 A 
ATOM      3  C   UNL     1       1.760   1.972   0.686  0.00  0.00    +0.002 A 
ATOM      4  C   UNL     1       1.600   3.322   0.409  0.00  0.00    -0.061 A 
ATOM      5  C   UNL     1       0.505   3.747  -0.312  0.00  0.00    -0.047 A 
ATOM      6  C   UNL     1      -0.431   2.824  -0.753  0.00  0.00    +0.004 A 
ATOM      7  C   UNL     1       0.291   5.202  -0.642  0.00  0.00    +0.029 C 
ATOM      8  C   UNL     1       1.165   6.075   0.258  0.00  0.00    +0.024 C 
ATOM      9  N   UNL     1       2.545   5.565   0.206  0.00  0.00    +0.396 N 
ATOM     10  C   UNL     1       2.640   4.286   0.917  0.00  0.00    -0.041 C 
ATOM     11  H   UNL     1       2.817   5.396  -0.846  0.00  0.00    -0.080 HD
ENDROOT
BRANCH   8  12
ATOM     12  C   UNL     1       1.134   7.500  -0.234  0.00  0.00    +0.197 C 
ATOM     13  O   UNL     1       1.897   7.857  -1.106  0.00  0.00    -0.278 OA
ATOM     14  N   UNL     1       0.257   8.376   0.296  0.00  0.00    -0.331 N 
ATOM     15  H   UNL     1       0.234   9.415  -0.063  0.00  0.00    +0.145 HD
ATOM     16  H   UNL     1      -0.435   8.051   1.087  0.00  0.00    +0.145 HD
ENDBRANCH   8  12
BRANCH   9  17
ATOM     17  C   UNL     1       3.490   6.546   0.757  0.00  0.00    +0.020 C 
BRANCH  17  18
ATOM     18  C   UNL     1       3.083   6.898   2.165  0.00  0.00    +0.197 C 
ATOM     19  O   UNL     1       2.168   6.307   2.698  0.00  0.00    -0.278 OA
ATOM     20  N   UNL     1       3.737   7.870   2.832  0.00  0.00    -0.313 N 
ATOM     21  H   UNL     1       4.567   8.406   2.349  0.00  0.00    +0.149 HD
BRANCH  20  22
ATOM     22  C   UNL     1       3.342   8.213   4.200  0.00  0.00    +0.139 C 
BRANCH  22  23
ATOM     23  C   UNL     1       4.223   9.322   4.715  0.00  0.00    -0.030 A 
ATOM     24  C   UNL     1       5.396   9.019   5.381  0.00  0.00    +0.006 A 
ATOM     25  C   UNL     1       6.208  10.036   5.848  0.00  0.00    +0.020 A 
ATOM     26  C   UNL     1       5.841  11.356   5.659  0.00  0.00    +0.041 A 
ATOM     27  C   UNL     1       4.664  11.658   4.997  0.00  0.00    +0.020 A 
ATOM     28  C   UNL     1       3.856  10.641   4.525  0.00  0.00    +0.006 A 
ATOM     29 CL   UNL     1       6.856  12.633   6.251  0.00  0.00    -0.084 Cl
ENDBRANCH  22  23
ENDBRANCH  20  22
ENDBRANCH  17  18
ENDBRANCH   9  17
TORSDOF 5
