REMARK  Name = ZINC09420226
REMARK  3 active torsions:
REMARK  status: ('A' for Active; 'I' for Inactive)
REMARK    1  A    between atoms: C_1  and  C_2
REMARK    2  A    between atoms: C_2  and  C_4
REMARK    3  A    between atoms: C_2  and  C_19
REMARK                            x       y       z     vdW  Elec       q    Type
REMARK                         _______ _______ _______ _____ _____    ______ ____
ROOT
ATOM      1  C   UNL     1       1.235   4.243   0.508  0.00  0.00    -0.034 A 
ATOM      2  C   UNL     1       0.207   3.400   0.903  0.00  0.00    +0.005 A 
ATOM      3  C   UNL     1       0.485   2.126   1.347  0.00  0.00    +0.011 A 
ATOM      4  C   UNL     1       1.806   1.688   1.410  0.00  0.00    +0.007 A 
ATOM      5  C   UNL     1       2.437   0.423   1.829  0.00  0.00    +0.009 A 
ATOM      6  C   UNL     1       1.936  -0.783   2.315  0.00  0.00    +0.030 A 
ATOM      7  C   UNL     1       2.803  -1.809   2.626  0.00  0.00    +0.042 A 
ATOM      8  C   UNL     1       4.170  -1.644   2.455  0.00  0.00    +0.022 A 
ATOM      9  C   UNL     1       4.678  -0.457   1.975  0.00  0.00    +0.027 A 
ATOM     10  C   UNL     1       3.818   0.591   1.656  0.00  0.00    +0.048 A 
ATOM     11  N   UNL     1       4.045   1.865   1.166  0.00  0.00    -0.354 N 
ATOM     12  H   UNL     1       4.919   2.232   0.960  0.00  0.00    +0.166 HD
ATOM     13  C   UNL     1       2.847   2.539   1.011  0.00  0.00    +0.048 A 
ATOM     14  C   UNL     1       2.546   3.821   0.560  0.00  0.00    +0.030 A 
ATOM     15 CL   UNL     1       2.182  -3.313   3.231  0.00  0.00    -0.084 Cl
ENDROOT
BRANCH   1  17
ATOM     16  C   UNL     1       0.012   5.543  -1.213  0.00  0.00    +0.022 C 
ATOM     17  C   UNL     1       0.916   5.632   0.018  0.00  0.00    +0.102 C 
BRANCH  17  18
ATOM     18  C   UNL     1       0.210   6.399   1.106  0.00  0.00    +0.223 C 
ATOM     19  O   UNL     1      -0.555   5.826   1.853  0.00  0.00    -0.275 OA
ATOM     20  N   UNL     1       0.428   7.721   1.249  0.00  0.00    -0.301 N 
ATOM     21  C   UNL     1       1.247   8.556   0.358  0.00  0.00    +0.108 C 
ATOM     22  C   UNL     1       1.226   9.990   0.927  0.00  0.00    +0.020 C 
ATOM     23  C   UNL     1       0.870   9.765   2.420  0.00  0.00    +0.020 C 
ATOM     24  C   UNL     1      -0.111   8.569   2.328  0.00  0.00    +0.108 C 
ENDBRANCH  17  18
ENDBRANCH   1  17
TORSDOF 2
