REMARK  Name = ZINC14708776
REMARK  12 active torsions:
REMARK  status: ('A' for Active; 'I' for Inactive)
REMARK    1  A    between atoms: C_1  and  C_2
REMARK    2  A    between atoms: C_2  and  C_36
REMARK    3  A    between atoms: C_3  and  C_4
REMARK    4  A    between atoms: C_4  and  O_5
REMARK    5  A    between atoms: O_5  and  C_6
REMARK    6  A    between atoms: C_8  and  C_22
REMARK    7  A    between atoms: C_13  and  C_20
REMARK    8  A    between atoms: C_13  and  C_21
REMARK    9  A    between atoms: C_14  and  O_19
REMARK   10  A    between atoms: C_16  and  O_18
REMARK   11  A    between atoms: C_28  and  O_35
REMARK   12  A    between atoms: C_30  and  O_34
REMARK                            x       y       z     vdW  Elec       q    Type
REMARK                         _______ _______ _______ _____ _____    ______ ____
ROOT
ATOM      1  C   UNL     1      -0.993  10.058  -0.771  0.00  0.00    +0.163 A 
ATOM      2  C   UNL     1      -0.808   8.796  -0.234  0.00  0.00    +0.056 A 
ATOM      3  C   UNL     1      -0.429   8.658   1.088  0.00  0.00    -0.003 A 
ATOM      4  C   UNL     1      -0.224   9.778   1.869  0.00  0.00    +0.017 A 
ATOM      5  C   UNL     1      -0.401  11.046   1.337  0.00  0.00    +0.029 A 
ATOM      6  C   UNL     1      -0.784  11.191   0.017  0.00  0.00    +0.169 A 
ATOM      7  O   UNL     1      -0.963  12.415  -0.547  0.00  0.00    -0.480 OA
ATOM      8  C   UNL     1      -1.116  13.536   0.325  0.00  0.00    +0.134 C 
ATOM      9  C   UNL     1       0.011  13.496   1.365  0.00  0.00    +0.190 C 
ATOM     10  C   UNL     1      -0.172  12.243   2.225  0.00  0.00    +0.180 C 
ATOM     11  C   UNL     1      -2.471  13.459   1.031  0.00  0.00    +0.058 C 
ATOM     12  C   UNL     1      -1.028  14.833  -0.481  0.00  0.00    +0.058 C 
ENDROOT
BRANCH   3  13
ATOM     13  C   UNL     1      -0.232   7.284   1.675  0.00  0.00    +0.211 C 
ATOM     14  C   UNL     1       1.189   6.792   1.363  0.00  0.00    +0.129 C 
ATOM     15  C   UNL     1       1.319   5.396   1.947  0.00  0.00    +0.174 C 
ATOM     16  O   UNL     1       2.333   5.030   2.504  0.00  0.00    -0.292 OA
ATOM     17  C   UNL     1       0.156   4.514   1.803  0.00  0.00    +0.101 A 
ATOM     18  C   UNL     1       0.260   3.141   2.080  0.00  0.00    +0.134 A 
ATOM     19  C   UNL     1      -0.855   2.333   1.948  0.00  0.00    +0.091 A 
ATOM     20  C   UNL     1      -2.066   2.879   1.537  0.00  0.00    +0.124 A 
ATOM     21  C   UNL     1      -2.175   4.236   1.263  0.00  0.00    +0.092 A 
ATOM     22  C   UNL     1      -1.071   5.062   1.387  0.00  0.00    +0.139 A 
ATOM     23  O   UNL     1      -1.180   6.382   1.105  0.00  0.00    -0.483 OA
BRANCH  20  24
ATOM     24  O   UNL     1      -3.153   2.078   1.408  0.00  0.00    -0.507 OA
ATOM     25  H   UNL     1      -3.684   2.002   2.212  0.00  0.00    +0.292 HD
ENDBRANCH  20  24
BRANCH  18  26
ATOM     26  O   UNL     1       1.445   2.611   2.473  0.00  0.00    -0.506 OA
ATOM     27  H   UNL     1       2.000   2.304   1.743  0.00  0.00    +0.292 HD
ENDBRANCH  18  26
ENDBRANCH   3  13
BRANCH  10  28
ATOM     28  O   UNL     1       1.000  12.032   3.014  0.00  0.00    -0.384 OA
ATOM     29  H   UNL     1       0.953  11.255   3.588  0.00  0.00    +0.210 HD
ENDBRANCH  10  28
BRANCH   9  30
ATOM     30  O   UNL     1       1.276  13.444   0.702  0.00  0.00    -0.385 OA
ATOM     31  H   UNL     1       2.033  13.399   1.302  0.00  0.00    +0.210 HD
ENDBRANCH   9  30
BRANCH   1  32
ATOM     32  O   UNL     1      -1.372  10.195  -2.070  0.00  0.00    -0.484 OA
BRANCH  32  33
ATOM     33  C   UNL     1      -1.568   8.994  -2.818  0.00  0.00    +0.257 C 
BRANCH  33  36
ATOM     34  C   UNL     1      -3.601   7.517  -4.099  0.00  0.00    +0.038 C 
ATOM     35  C   UNL     1      -2.967   8.692  -4.797  0.00  0.00    -0.076 C 
ATOM     36  C   UNL     1      -1.982   9.341  -4.225  0.00  0.00    +0.012 C 
ATOM     37  C   UNL     1      -3.465   9.122  -6.152  0.00  0.00    +0.038 C 
ENDBRANCH  33  36
ENDBRANCH  32  33
ENDBRANCH   1  32
TORSDOF 8
