REMARK  Name = ZINC33789872
REMARK  8 active torsions:
REMARK  status: ('A' for Active; 'I' for Inactive)
REMARK    1  A    between atoms: C_4  and  C_7
REMARK    2  A    between atoms: C_10  and  C_36
REMARK    3  A    between atoms: C_11  and  S_13
REMARK    4  A    between atoms: S_13  and  C_14
REMARK    5  A    between atoms: C_14  and  C_15
REMARK    6  A    between atoms: C_22  and  N_35
REMARK    7  A    between atoms: C_23  and  C_33
REMARK    8  A    between atoms: C_24  and  C_26
REMARK                            x       y       z     vdW  Elec       q    Type
REMARK                         _______ _______ _______ _____ _____    ______ ____
ROOT
ATOM      1  C   UNL     1      -0.399   6.103   2.544  0.00  0.00    +0.054 A 
ATOM      2  C   UNL     1      -0.793   6.112   1.262  0.00  0.00    +0.050 A 
ATOM      3  C   UNL     1      -2.079   6.691   1.201  0.00  0.00    +0.245 A 
ATOM      4  N   UNL     1      -2.433   7.013   2.412  0.00  0.00    -0.135 NA
ATOM      5  N   UNL     1      -1.391   6.654   3.281  0.00  0.00    -0.277 N 
ATOM      6  H   UNL     1      -1.278   6.748   4.372  0.00  0.00    +0.189 HD
ATOM      7  O   UNL     1      -2.748   6.843   0.027  0.00  0.00    -0.421 OA
ATOM      8  C   UNL     1      -2.047   6.675  -1.112  0.00  0.00    +0.201 C 
ATOM      9  C   UNL     1      -0.816   6.124  -1.180  0.00  0.00    +0.098 C 
ATOM     10  C   UNL     1      -0.074   5.619   0.032  0.00  0.00    +0.101 C 
ENDROOT
BRANCH  10  11
ATOM     11  C   UNL     1      -0.054   4.112   0.024  0.00  0.00    -0.034 A 
ATOM     12  C   UNL     1       1.153   3.438   0.009  0.00  0.00    +0.007 A 
ATOM     13  C   UNL     1       1.173   2.056   0.002  0.00  0.00    +0.038 A 
ATOM     14  C   UNL     1      -0.016   1.347   0.009  0.00  0.00    +0.123 A 
ATOM     15  C   UNL     1      -1.224   2.023   0.019  0.00  0.00    +0.038 A 
ATOM     16  C   UNL     1      -1.242   3.405   0.032  0.00  0.00    +0.007 A 
ATOM     17  F   UNL     1       0.002  -0.004   0.002  0.00  0.00    -0.205 F 
ENDBRANCH  10  11
BRANCH   8  18
ATOM     18  N   UNL     1      -2.624   7.094  -2.285  0.00  0.00    -0.328 N 
ATOM     19  H   UNL     1      -2.085   6.975  -3.236  0.00  0.00    +0.145 HD
ATOM     20  H   UNL     1      -3.625   7.549  -2.273  0.00  0.00    +0.145 HD
ENDBRANCH   8  18
BRANCH   9  21
ATOM     21  C   UNL     1      -0.185   6.014  -2.462  0.00  0.00    +0.101 C 
ATOM     22  N   UNL     1       0.315   5.926  -3.478  0.00  0.00    -0.191 NA
ENDBRANCH   9  21
BRANCH   1  23
ATOM     23  C   UNL     1       0.912   5.576   3.068  0.00  0.00    +0.131 C 
BRANCH  23  24
ATOM     24  S   UNL     1       2.140   6.906   3.072  0.00  0.00    -0.098 S 
BRANCH  24  29
ATOM     25  C   UNL     1       4.443   4.062   4.507  0.00  0.00    +0.072 A 
ATOM     26  C   UNL     1       5.685   4.664   4.709  0.00  0.00    +0.030 A 
ATOM     27  C   UNL     1       5.851   6.000   4.401  0.00  0.00    +0.023 A 
ATOM     28  C   UNL     1       4.755   6.708   3.891  0.00  0.00    +0.084 A 
ATOM     29  C   UNL     1       3.531   6.035   3.712  0.00  0.00    +0.115 A 
ATOM     30  N   UNL     1       3.418   4.755   4.027  0.00  0.00    -0.239 NA
BRANCH  25  34
ATOM     31  C   UNL     1       3.929  -0.049   5.455  0.00  0.00    +0.000 A 
ATOM     32  C   UNL     1       2.868   0.679   4.949  0.00  0.00    +0.001 A 
ATOM     33  C   UNL     1       3.028   2.014   4.640  0.00  0.00    +0.010 A 
ATOM     34  C   UNL     1       4.264   2.629   4.837  0.00  0.00    +0.000 A 
ATOM     35  C   UNL     1       5.332   1.888   5.342  0.00  0.00    +0.010 A 
ATOM     36  C   UNL     1       5.158   0.555   5.653  0.00  0.00    +0.001 A 
ENDBRANCH  25  34
BRANCH  28  37
ATOM     37  C   UNL     1       4.877   8.095   3.557  0.00  0.00    +0.102 C 
ATOM     38  N   UNL     1       4.974   9.195   3.291  0.00  0.00    -0.191 NA
ENDBRANCH  28  37
ENDBRANCH  24  29
ENDBRANCH  23  24
ENDBRANCH   1  23
TORSDOF 8
