REMARK  Name = ZINC02104620
REMARK  8 active torsions:
REMARK  status: ('A' for Active; 'I' for Inactive)
REMARK    1  A    between atoms: C_1  and  C_2
REMARK    2  A    between atoms: C_12  and  C_13
REMARK    3  A    between atoms: C_13  and  C_14
REMARK    4  A    between atoms: C_14  and  C_15
REMARK    5  A    between atoms: N_17  and  CA_18
REMARK    6  A    between atoms: CA_18  and  C_20
REMARK    7  A    between atoms: CA_18  and  C_28
REMARK    8  A    between atoms: C_20  and  C_21
REMARK                            x       y       z     vdW  Elec       q    Type
REMARK                         _______ _______ _______ _____ _____    ______ ____
ROOT
ATOM      1  C   UNL     1      -3.771   1.664  -2.467  0.00  0.00    +0.045 C 
ATOM      2  C   UNL     1      -4.395   2.010  -1.140  0.00  0.00    -0.030 A 
ATOM      3  C   UNL     1      -5.674   2.724  -1.067  0.00  0.00    +0.022 A 
ATOM      4  C   UNL     1      -6.344   3.103  -2.231  0.00  0.00    +0.023 A 
ATOM      5  C   UNL     1      -7.552   3.779  -2.134  0.00  0.00    +0.024 A 
ATOM      6  C   UNL     1      -8.098   4.080  -0.867  0.00  0.00    +0.139 A 
ATOM      7  C   UNL     1      -7.426   3.700   0.284  0.00  0.00    +0.093 A 
ATOM      8  C   UNL     1      -6.219   3.025   0.198  0.00  0.00    +0.143 A 
ATOM      9  O   UNL     1      -5.572   2.660   1.324  0.00  0.00    -0.422 OA
ATOM     10  C   UNL     1      -4.410   2.004   1.252  0.00  0.00    +0.341 A 
ATOM     11  O   UNL     1      -3.856   1.686   2.289  0.00  0.00    -0.245 OA
ATOM     12  C   UNL     1      -3.794   1.670   0.029  0.00  0.00    +0.041 A 
ATOM     13  O   UNL     1      -9.262   4.731  -1.079  0.00  0.00    -0.459 OA
ATOM     14  C   UNL     1      -9.503   4.874  -2.393  0.00  0.00    +0.109 A 
ATOM     15  C   UNL     1      -8.508   4.319  -3.102  0.00  0.00    +0.001 A 
ATOM     16  C   UNL     1      -8.434   4.283  -4.605  0.00  0.00    +0.039 C 
ATOM     17  C   UNL     1      -9.827   4.599  -5.167  0.00  0.00    +0.005 C 
ATOM     18  C   UNL     1     -10.371   5.859  -4.487  0.00  0.00    +0.008 C 
ATOM     19  C   UNL     1     -10.701   5.549  -3.023  0.00  0.00    +0.075 C 
ENDROOT
BRANCH  12  20
ATOM     20  C   UNL     1      -2.479   0.934   0.019  0.00  0.00    +0.052 C 
BRANCH  20  21
ATOM     21  C   UNL     1      -1.330   1.944   0.019  0.00  0.00    +0.100 C 
BRANCH  21  22
ATOM     22  C   UNL     1      -0.014   1.209   0.009  0.00  0.00    +0.214 C 
ATOM     23  O   UNL     1       0.002  -0.004   0.002  0.00  0.00    -0.276 OA
ATOM     24  N   UNL     1       1.143   1.898   0.001  0.00  0.00    -0.302 N 
ATOM     25  H   UNL     1       1.130   2.868   0.007  0.00  0.00    +0.150 HD
BRANCH  24  26
ATOM     26  CA  UNL     1       2.422   1.183  -0.015  0.00  0.00    +0.191 C 
BRANCH  26  27
ATOM     27  C   UNL     1       2.813   0.822   1.395  0.00  0.00    +0.376 C 
ATOM     28  O   UNL     1       2.098   1.131   2.318  0.00  0.00    -0.244 OA
ATOM     29  OXT UNL     1       3.957   0.158   1.625  0.00  0.00    -0.244 OA
ENDBRANCH  26  27
BRANCH  26  30
ATOM     30  C   UNL     1       3.499   2.078  -0.630  0.00  0.00    +0.069 C 
BRANCH  30  31
ATOM     31  C   UNL     1       3.170   2.339  -2.077  0.00  0.00    -0.045 A 
ATOM     32  C   UNL     1       3.649   1.491  -3.058  0.00  0.00    +0.005 A 
ATOM     33  C   UNL     1       3.343   1.726  -4.385  0.00  0.00    +0.020 A 
ATOM     34  C   UNL     1       2.566   2.817  -4.733  0.00  0.00    +0.041 A 
ATOM     35  C   UNL     1       2.091   3.668  -3.751  0.00  0.00    +0.020 A 
ATOM     36  C   UNL     1       2.394   3.429  -2.424  0.00  0.00    +0.005 A 
ATOM     37 CL   UNL     1       2.186   3.116  -6.400  0.00  0.00    -0.084 Cl
ENDBRANCH  30  31
ENDBRANCH  26  30
ENDBRANCH  24  26
ENDBRANCH  21  22
ENDBRANCH  20  21
ENDBRANCH  12  20
TORSDOF 7
