REMARK  Name = ZINC00998602
REMARK  6 active torsions:
REMARK  status: ('A' for Active; 'I' for Inactive)
REMARK    1  A    between atoms: C_5  and  C_6
REMARK    2  A    between atoms: N_7  and  N_8
REMARK    3  A    between atoms: C_9  and  C_11
REMARK    4  A    between atoms: C_13  and  O_19
REMARK    5  A    between atoms: C_14  and  O_18
REMARK    6  A    between atoms: C_15  and  O_17
REMARK                            x       y       z     vdW  Elec       q    Type
REMARK                         _______ _______ _______ _____ _____    ______ ____
ROOT
ATOM      1  N   UNL     1      -3.676   1.665   0.029  0.00  0.00    -0.203 N 
ATOM      2  C   UNL     1      -2.501   1.005   0.019  0.00  0.00    +0.263 C 
ATOM      3  O   UNL     1      -2.486  -0.211   0.013  0.00  0.00    -0.268 OA
ATOM      4  H   UNL     1      -3.688   2.635   0.034  0.00  0.00    +0.178 HD
ENDROOT
BRANCH   2   5
ATOM      5  C   UNL     1      -1.232   1.758   0.017  0.00  0.00    +0.045 A 
ATOM      6  C   UNL     1      -0.013   1.076   0.008  0.00  0.00    +0.062 A 
ATOM      7  C   UNL     1       1.175   1.784   0.000  0.00  0.00    +0.163 A 
ATOM      8  C   UNL     1       1.157   3.176   0.008  0.00  0.00    +0.201 A 
ATOM      9  C   UNL     1      -0.057   3.859   0.024  0.00  0.00    +0.163 A 
ATOM     10  C   UNL     1      -1.247   3.156   0.032  0.00  0.00    +0.062 A 
BRANCH   9  11
ATOM     11  O   UNL     1      -0.071   5.219   0.032  0.00  0.00    -0.503 OA
ATOM     12  H   UNL     1      -0.084   5.617  -0.849  0.00  0.00    +0.292 HD
ENDBRANCH   9  11
BRANCH   8  13
ATOM     13  O   UNL     1       2.325   3.870   0.001  0.00  0.00    -0.501 OA
ATOM     14  H   UNL     1       2.655   4.075  -0.885  0.00  0.00    +0.292 HD
ENDBRANCH   8  13
BRANCH   7  15
ATOM     15  O   UNL     1       2.361   1.120  -0.015  0.00  0.00    -0.503 OA
ATOM     16  H   UNL     1       2.696   0.933  -0.903  0.00  0.00    +0.292 HD
ENDBRANCH   7  15
ENDBRANCH   2   5
BRANCH   1  18
ATOM     17  C   UNL     1      -6.015   1.587   0.039  0.00  0.00    +0.145 C 
ATOM     18  N   UNL     1      -4.881   0.950   0.030  0.00  0.00    -0.187 NA
BRANCH  17  23
ATOM     19  C   UNL     1      -8.575   1.317   0.050  0.00  0.00    +0.018 A 
ATOM     20  C   UNL     1      -9.606   0.408   0.049  0.00  0.00    +0.023 A 
ATOM     21  C   UNL     1      -9.321  -0.921   0.040  0.00  0.00    +0.055 A 
ATOM     22  S   UNL     1      -7.536  -0.927   0.025  0.00  0.00    -0.080 S 
ATOM     23  C   UNL     1      -7.276   0.839   0.041  0.00  0.00    +0.033 A 
ATOM     24 BR   UNL     1     -10.512  -2.390   0.035  0.00  0.00    -0.043 Br
ENDBRANCH  17  23
ENDBRANCH   1  18
TORSDOF 6
