REMARK  Name = ZINC39596421
REMARK  7 active torsions:
REMARK  status: ('A' for Active; 'I' for Inactive)
REMARK    1  A    between atoms: C_1  and  C_2
REMARK    2  A    between atoms: C_2  and  C_4
REMARK    3  A    between atoms: C_2  and  O_28
REMARK    4  A    between atoms: C_4  and  N_5
REMARK    5  A    between atoms: C_6  and  C_8
REMARK    6  A    between atoms: C_19  and  C_21
REMARK    7  A    between atoms: O_28  and  C_29
REMARK                            x       y       z     vdW  Elec       q    Type
REMARK                         _______ _______ _______ _____ _____    ______ ____
ROOT
ATOM      1  C   UNL     1      -3.418  -1.005  -0.412  0.00  0.00    +0.100 C 
ATOM      2  C   UNL     1      -2.992  -2.161   0.521  0.00  0.00    +0.121 C 
ATOM      3  N   UNL     1      -4.167  -2.389   1.395  0.00  0.00    -0.300 N 
ATOM      4  C   UNL     1      -5.333  -2.235   0.493  0.00  0.00    +0.115 C 
ATOM      5  C   UNL     1      -4.955  -1.059  -0.431  0.00  0.00    -0.004 C 
ATOM      6  C   UNL     1      -5.457  -1.319  -1.848  0.00  0.00    -0.010 C 
ATOM      7  C   UNL     1      -6.989  -1.310  -1.852  0.00  0.00    -0.082 C 
ATOM      8  N   UNL     1      -7.474  -0.011  -1.369  0.00  0.00    +0.379 N 
ATOM      9  C   UNL     1      -7.064   0.189   0.026  0.00  0.00    -0.082 C 
ATOM     10  C   UNL     1      -5.537   0.244   0.110  0.00  0.00    -0.010 C 
ATOM     11  C   UNL     1      -4.174  -2.674   2.712  0.00  0.00    +0.219 C 
ATOM     12  O   UNL     1      -3.134  -2.680   3.337  0.00  0.00    -0.275 OA
ATOM     13  H   UNL     1      -7.086   0.725  -1.940  0.00  0.00    -0.086 HD
ATOM     14  H   UNL     1      -8.480   0.014  -1.430  0.00  0.00    -0.086 HD
ENDROOT
BRANCH  11  15
ATOM     15  C   UNL     1      -5.473  -2.984   3.410  0.00  0.00    +0.079 C 
ATOM     16  C   UNL     1      -5.399  -2.518   4.869  0.00  0.00    +0.017 C 
ATOM     17  C   UNL     1      -6.784  -2.680   5.500  0.00  0.00    +0.027 C 
ATOM     18  C   UNL     1      -7.319  -4.055   5.224  0.00  0.00    -0.031 C 
ATOM     19  C   UNL     1      -6.858  -4.842   4.306  0.00  0.00    -0.030 C 
ATOM     20  C   UNL     1      -5.720  -4.494   3.391  0.00  0.00    +0.039 C 
ENDBRANCH  11  15
BRANCH   1  22
ATOM     21  N   UNL     1      -2.728   1.353  -0.692  0.00  0.00    -0.312 N 
ATOM     22  C   UNL     1      -2.947   0.316   0.139  0.00  0.00    +0.218 C 
ATOM     23  O   UNL     1      -2.763   0.445   1.331  0.00  0.00    -0.275 OA
ATOM     24  H   UNL     1      -2.875   1.250  -1.645  0.00  0.00    +0.149 HD
BRANCH  21  25
ATOM     25  C   UNL     1      -2.270   2.638  -0.156  0.00  0.00    +0.148 C 
BRANCH  25  27
ATOM     26  C   UNL     1      -1.622   4.978  -0.743  0.00  0.00    +0.053 C 
ATOM     27  C   UNL     1      -2.101   3.637  -1.302  0.00  0.00    +0.187 C 
BRANCH  27  28
ATOM     28  O   UNL     1      -1.138   3.138  -2.232  0.00  0.00    -0.488 OA
BRANCH  28  29
ATOM     29  C   UNL     1      -1.267   3.534  -3.526  0.00  0.00    +0.121 A 
ATOM     30  C   UNL     1      -0.420   3.019  -4.497  0.00  0.00    +0.048 A 
ATOM     31  C   UNL     1      -0.552   3.422  -5.812  0.00  0.00    +0.042 A 
ATOM     32  C   UNL     1      -1.528   4.340  -6.160  0.00  0.00    +0.124 A 
ATOM     33  C   UNL     1      -2.373   4.856  -5.192  0.00  0.00    +0.042 A 
ATOM     34  C   UNL     1      -2.248   4.449  -3.878  0.00  0.00    +0.048 A 
ATOM     35  F   UNL     1      -1.656   4.734  -7.447  0.00  0.00    -0.205 F 
ENDBRANCH  28  29
ENDBRANCH  27  28
ENDBRANCH  25  27
ENDBRANCH  21  25
ENDBRANCH   1  22
TORSDOF 6
