REMARK  Name = ZINC65298501
REMARK  6 active torsions:
REMARK  status: ('A' for Active; 'I' for Inactive)
REMARK    1  A    between atoms: C_1  and  C_2
REMARK    2  A    between atoms: C_2  and  C_3
REMARK    3  A    between atoms: C_2  and  N_4
REMARK    4  A    between atoms: C_11  and  C_23
REMARK    5  A    between atoms: C_14  and  C_16
REMARK    6  A    between atoms: C_21  and  O_22
REMARK                            x       y       z     vdW  Elec       q    Type
REMARK                         _______ _______ _______ _____ _____    ______ ____
ROOT
ATOM      1  N   UNL     1      -1.376  -0.512   0.012  0.00  0.00    +0.381 N 
ATOM      2  C   UNL     1      -1.354  -1.980   0.014  0.00  0.00    -0.075 C 
ATOM      3  C   UNL     1      -2.785  -2.515   0.104  0.00  0.00    +0.027 C 
ATOM      4  C   UNL     1      -3.586  -2.018  -1.104  0.00  0.00    +0.109 C 
ATOM      5  C   UNL     1      -3.543  -0.487  -1.132  0.00  0.00    +0.027 C 
ATOM      6  C   UNL     1      -2.085  -0.025  -1.177  0.00  0.00    -0.075 C 
ATOM      7  N   UNL     1      -4.981  -2.461  -0.974  0.00  0.00    -0.286 NA
ATOM      8  C   UNL     1      -5.067  -3.922  -1.134  0.00  0.00    +0.092 C 
ATOM      9  C   UNL     1      -4.723  -4.265  -2.587  0.00  0.00    +0.079 C 
ATOM     10  C   UNL     1      -3.475  -3.531  -2.992  0.00  0.00    +0.050 C 
ATOM     11  N   UNL     1      -2.996  -2.545  -2.330  0.00  0.00    -0.266 NA
ATOM     12  H   UNL     1      -5.371  -2.170  -0.090  0.00  0.00    +0.125 HD
ATOM     13  H   UNL     1      -1.848  -0.184   0.842  0.00  0.00    -0.081 HD
ENDROOT
BRANCH  10  14
ATOM     14  C   UNL     1      -2.768  -3.967  -4.210  0.00  0.00    +0.037 A 
ATOM     15  C   UNL     1      -3.261  -5.035  -4.963  0.00  0.00    +0.013 A 
ATOM     16  C   UNL     1      -2.596  -5.438  -6.101  0.00  0.00    +0.001 A 
ATOM     17  C   UNL     1      -1.440  -4.788  -6.502  0.00  0.00    +0.004 A 
ATOM     18  C   UNL     1      -0.942  -3.731  -5.766  0.00  0.00    +0.046 A 
ATOM     19  C   UNL     1      -1.601  -3.309  -4.621  0.00  0.00    +0.126 A 
BRANCH  19  20
ATOM     20  O   UNL     1      -1.116  -2.267  -3.900  0.00  0.00    -0.506 OA
ATOM     21  H   UNL     1      -0.490  -2.524  -3.210  0.00  0.00    +0.292 HD
ENDBRANCH  19  20
ENDBRANCH  10  14
BRANCH   8  22
ATOM     22  C   UNL     1      -6.466  -4.387  -0.819  0.00  0.00    -0.030 A 
ATOM     23  C   UNL     1      -7.553  -3.645  -1.243  0.00  0.00    +0.005 A 
ATOM     24  C   UNL     1      -8.835  -4.071  -0.955  0.00  0.00    +0.000 A 
ATOM     25  C   UNL     1      -9.032  -5.239  -0.242  0.00  0.00    +0.000 A 
ATOM     26  C   UNL     1      -7.946  -5.981   0.181  0.00  0.00    +0.000 A 
ATOM     27  C   UNL     1      -6.663  -5.558  -0.111  0.00  0.00    +0.005 A 
ENDBRANCH   8  22
BRANCH   1  29
ATOM     28  C   UNL     1      -0.019   1.526   0.010  0.00  0.00    -0.014 C 
ATOM     29  C   UNL     1       0.002  -0.004   0.002  0.00  0.00    -0.075 C 
ATOM     30  C   UNL     1       0.742  -0.511   1.242  0.00  0.00    -0.014 C 
ENDBRANCH   1  29
TORSDOF 4
