REMARK  Name = ZINC35353508
REMARK  5 active torsions:
REMARK  status: ('A' for Active; 'I' for Inactive)
REMARK    1  A    between atoms: C_1  and  N_2
REMARK    2  A    between atoms: N_2  and  S_3
REMARK    3  A    between atoms: S_3  and  C_6
REMARK    4  A    between atoms: C_11  and  N_12
REMARK    5  A    between atoms: N_12  and  C_13
REMARK                            x       y       z     vdW  Elec       q    Type
REMARK                         _______ _______ _______ _____ _____    ______ ____
ROOT
ATOM      1  C   UNL     1      -0.236  -0.547   2.540  0.00  0.00    +0.126 A 
ATOM      2  C   UNL     1      -0.807  -1.576   3.263  0.00  0.00    +0.030 A 
ATOM      3  C   UNL     1      -1.574  -1.296   4.379  0.00  0.00    +0.002 A 
ATOM      4  C   UNL     1      -1.771   0.014   4.775  0.00  0.00    +0.002 A 
ATOM      5  C   UNL     1      -1.202   1.048   4.058  0.00  0.00    +0.025 A 
ATOM      6  C   UNL     1      -0.427   0.770   2.939  0.00  0.00    +0.054 A 
ENDROOT
BRANCH   1   7
ATOM      7  S   UNL     1       0.741  -0.904   1.117  0.00  0.00    +0.060 S 
ATOM      8  O   UNL     1       0.257  -0.071   0.073  0.00  0.00    -0.153 OA
ATOM      9  O   UNL     1       0.788  -2.320   1.003  0.00  0.00    -0.153 OA
BRANCH   7  11
ATOM     10  C   UNL     1       3.055  -1.053   2.509  0.00  0.00    +0.127 C 
ATOM     11  N   UNL     1       2.285  -0.404   1.445  0.00  0.00    -0.193 NA
ATOM     12  H   UNL     1       2.680   0.319   0.932  0.00  0.00    +0.148 HD
ENDBRANCH   7  11
ENDBRANCH   1   7
BRANCH   6  13
ATOM     13  N   UNL     1       0.155   1.812   2.214  0.00  0.00    -0.341 N 
ATOM     14  H   UNL     1       0.760   1.616   1.482  0.00  0.00    +0.146 HD
BRANCH  13  15
ATOM     15  C   UNL     1      -0.150   3.203   2.558  0.00  0.00    +0.057 C 
ATOM     16  C   UNL     1      -1.488   3.605   1.932  0.00  0.00    -0.056 C 
ATOM     17  N   UNL     1      -1.295   4.730   1.014  0.00  0.00    +0.381 N 
ATOM     18  C   UNL     1      -0.778   5.898   1.732  0.00  0.00    -0.078 C 
ATOM     19  C   UNL     1       0.583   5.572   2.351  0.00  0.00    -0.014 C 
ATOM     20  C   UNL     1       0.951   4.122   2.011  0.00  0.00    +0.004 C 
ATOM     21  C   UNL     1       0.985   3.979   0.484  0.00  0.00    -0.014 C 
ATOM     22  C   UNL     1      -0.394   4.355  -0.078  0.00  0.00    -0.078 C 
ATOM     23  H   UNL     1      -2.190   4.977   0.620  0.00  0.00    -0.082 HD
ENDBRANCH  13  15
ENDBRANCH   6  13
TORSDOF 4
