REMARK  Name = ZINC06862844
REMARK  5 active torsions:
REMARK  status: ('A' for Active; 'I' for Inactive)
REMARK    1  A    between atoms: C_3  and  C_10
REMARK    2  A    between atoms: C_5  and  N_7
REMARK    3  A    between atoms: N_11  and  N_12
REMARK    4  A    between atoms: N_12  and  C_13
REMARK    5  A    between atoms: C_13  and  N_15
REMARK                            x       y       z     vdW  Elec       q    Type
REMARK                         _______ _______ _______ _____ _____    ______ ____
ROOT
ATOM      1  C   UNL     1      -1.216   1.750   0.017  0.00  0.00    +0.003 A 
ATOM      2  C   UNL     1      -0.013   1.076   0.008  0.00  0.00    +0.013 A 
ATOM      3  C   UNL     1       1.186   1.791   0.000  0.00  0.00    +0.043 A 
ATOM      4  C   UNL     1       1.157   3.193   0.008  0.00  0.00    +0.218 A 
ATOM      5  C   UNL     1      -0.060   3.854   0.022  0.00  0.00    +0.173 A 
ATOM      6  C   UNL     1      -1.240   3.134   0.030  0.00  0.00    +0.037 A 
ATOM      7  O   UNL     1       2.317   3.899   0.001  0.00  0.00    -0.285 OA
ENDROOT
BRANCH   5   8
ATOM      8  N   UNL     1      -0.097   5.334   0.031  0.00  0.00    +0.060 N 
ATOM      9  O   UNL     1      -1.166   5.916   0.044  0.00  0.00    -0.126 OA
ATOM     10  O   UNL     1       0.943   5.969   0.025  0.00  0.00    -0.126 OA
ENDBRANCH   5   8
BRANCH   3  11
ATOM     11  C   UNL     1       2.476   1.077  -0.016  0.00  0.00    +0.142 C 
ATOM     12  N   UNL     1       3.588   1.746  -0.023  0.00  0.00    -0.188 NA
BRANCH  12  13
ATOM     13  N   UNL     1       4.813   1.067  -0.038  0.00  0.00    -0.219 N 
ATOM     14  H   UNL     1       4.831   0.098  -0.043  0.00  0.00    +0.176 HD
BRANCH  13  15
ATOM     15  C   UNL     1       5.968   1.762  -0.045  0.00  0.00    +0.147 C 
ATOM     16  S   UNL     1       7.466   0.932  -0.064  0.00  0.00    -0.017 S 
BRANCH  15  17
ATOM     17  N   UNL     1       5.944   3.109  -0.038  0.00  0.00    -0.339 N 
ATOM     18  H   UNL     1       5.096   3.579  -0.027  0.00  0.00    +0.144 HD
ATOM     19  H   UNL     1       6.776   3.609  -0.043  0.00  0.00    +0.144 HD
ENDBRANCH  15  17
ENDBRANCH  13  15
ENDBRANCH  12  13
ENDBRANCH   3  11
TORSDOF 5
