REMARK  Name = ZINC34750224
REMARK  10 active torsions:
REMARK  status: ('A' for Active; 'I' for Inactive)
REMARK    1  A    between atoms: C_1  and  C_2
REMARK    2  A    between atoms: C_2  and  C_3
REMARK    3  A    between atoms: C_3  and  C_4
REMARK    4  A    between atoms: C_4  and  N_5
REMARK    5  A    between atoms: C_18  and  S_20
REMARK    6  A    between atoms: S_20  and  C_21
REMARK    7  A    between atoms: C_21  and  C_22
REMARK    8  A    between atoms: N_24  and  C_25
REMARK    9  A    between atoms: C_33  and  C_35
REMARK   10  A    between atoms: C_33  and  C_36
REMARK                            x       y       z     vdW  Elec       q    Type
REMARK                         _______ _______ _______ _____ _____    ______ ____
ROOT
ATOM      1  N   UNL     1       1.985  -1.634   3.279  0.00  0.00    +0.382 N 
ATOM      2  C   UNL     1       2.852  -1.797   4.452  0.00  0.00    -0.060 C 
ATOM      3  C   UNL     1       3.123  -3.288   4.683  0.00  0.00    +0.088 C 
ATOM      4  N   UNL     1       1.832  -3.986   4.780  0.00  0.00    -0.318 N 
ATOM      5  C   UNL     1       0.835  -3.750   3.724  0.00  0.00    +0.088 C 
ATOM      6  C   UNL     1       0.672  -2.238   3.539  0.00  0.00    -0.060 C 
ATOM      7  C   UNL     1       1.564  -4.841   5.833  0.00  0.00    +0.134 A 
ATOM      8  C   UNL     1       1.776  -6.242   5.694  0.00  0.00    +0.051 A 
ATOM      9  C   UNL     1       2.265  -6.985   4.535  0.00  0.00    -0.020 A 
ATOM     10  C   UNL     1       2.376  -8.324   4.665  0.00  0.00    +0.021 A 
ATOM     11  S   UNL     1       1.844  -8.674   6.316  0.00  0.00    -0.071 S 
ATOM     12  C   UNL     1       1.470  -7.017   6.832  0.00  0.00    +0.115 A 
ATOM     13  N   UNL     1       1.018  -6.467   7.942  0.00  0.00    -0.214 NA
ATOM     14  C   UNL     1       0.839  -5.155   8.014  0.00  0.00    +0.191 A 
ATOM     15  N   UNL     1       1.113  -4.366   6.981  0.00  0.00    -0.206 NA
ATOM     16  C   UNL     1       2.850  -9.280   3.614  0.00  0.00    +0.203 C 
ATOM     17  O   UNL     1       2.863  -8.585   2.357  0.00  0.00    -0.368 OA
ATOM     18  C   UNL     1       3.507  -7.309   2.418  0.00  0.00    +0.068 C 
ATOM     19  C   UNL     1       2.647  -6.322   3.213  0.00  0.00    +0.071 C 
ATOM     20  C   UNL     1       4.868  -7.461   3.100  0.00  0.00    +0.041 C 
ATOM     21  C   UNL     1       3.710  -6.776   0.999  0.00  0.00    +0.041 C 
ATOM     22  H   UNL     1       2.411  -2.086   2.484  0.00  0.00    -0.082 HD
ENDROOT
BRANCH   1  23
ATOM     23  C   UNL     1       1.815  -0.203   2.993  0.00  0.00    -0.079 C 
BRANCH  23  24
ATOM     24  C   UNL     1       3.165   0.402   2.600  0.00  0.00    -0.019 C 
BRANCH  24  26
ATOM     25  C   UNL     1       4.337   2.497   1.909  0.00  0.00    +0.004 C 
ATOM     26  C   UNL     1       2.988   1.892   2.302  0.00  0.00    -0.005 C 
ENDBRANCH  24  26
ENDBRANCH  23  24
ENDBRANCH   1  23
BRANCH  14  27
ATOM     27  S   UNL     1       0.233  -4.445   9.508  0.00  0.00    -0.077 S 
BRANCH  27  28
ATOM     28  C   UNL     1       0.015  -5.867  10.613  0.00  0.00    +0.173 C 
BRANCH  28  29
ATOM     29  C   UNL     1      -0.506  -5.394  11.945  0.00  0.00    +0.224 C 
ATOM     30  O   UNL     1      -0.710  -4.213  12.131  0.00  0.00    -0.275 OA
ATOM     31  N   UNL     1      -0.746  -6.282  12.930  0.00  0.00    -0.312 N 
ATOM     32  H   UNL     1      -0.583  -7.227  12.781  0.00  0.00    +0.149 HD
BRANCH  31  33
ATOM     33  C   UNL     1      -1.252  -5.821  14.225  0.00  0.00    +0.073 C 
ATOM     34  C   UNL     1      -0.080  -5.384  15.105  0.00  0.00    +0.022 C 
ATOM     35  C   UNL     1      -0.609  -4.903  16.457  0.00  0.00    +0.002 C 
ATOM     36  C   UNL     1      -1.365  -6.042  17.144  0.00  0.00    +0.000 C 
ATOM     37  C   UNL     1      -2.537  -6.480  16.264  0.00  0.00    +0.002 C 
ATOM     38  C   UNL     1      -2.008  -6.961  14.911  0.00  0.00    +0.022 C 
ENDBRANCH  31  33
ENDBRANCH  28  29
ENDBRANCH  27  28
ENDBRANCH  14  27
TORSDOF 7
