REMARK  Name = ZINC00974335
REMARK  6 active torsions:
REMARK  status: ('A' for Active; 'I' for Inactive)
REMARK    1  A    between atoms: C_4  and  C_7
REMARK    2  A    between atoms: C_7  and  O_8
REMARK    3  A    between atoms: O_8  and  C_9
REMARK    4  A    between atoms: C_16  and  N_29
REMARK    5  A    between atoms: C_17  and  C_27
REMARK    6  A    between atoms: C_18  and  C_20
REMARK                            x       y       z     vdW  Elec       q    Type
REMARK                         _______ _______ _______ _____ _____    ______ ____
ROOT
ATOM      1  C   UNL     1      -4.158   4.766  -1.461  0.00  0.00    +0.124 A 
ATOM      2  C   UNL     1      -4.890   5.169  -0.352  0.00  0.00    +0.046 A 
ATOM      3  C   UNL     1      -6.083   5.842  -0.521  0.00  0.00    +0.011 A 
ATOM      4  C   UNL     1      -6.560   6.109  -1.792  0.00  0.00    +0.004 A 
ATOM      5  C   UNL     1      -5.837   5.704  -2.902  0.00  0.00    +0.137 A 
ATOM      6  C   UNL     1      -4.633   5.031  -2.735  0.00  0.00    +0.092 A 
ATOM      7  O   UNL     1      -6.288   5.955  -4.156  0.00  0.00    -0.441 OA
ATOM      8  C   UNL     1      -7.585   6.241  -4.357  0.00  0.00    +0.198 C 
ATOM      9  C   UNL     1      -8.389   6.664  -3.353  0.00  0.00    +0.094 C 
ATOM     10  C   UNL     1      -7.867   6.839  -1.954  0.00  0.00    +0.071 C 
ENDROOT
BRANCH  10  11
ATOM     11  C   UNL     1      -7.650   8.328  -1.677  0.00  0.00    +0.006 C 
ATOM     12  C   UNL     1      -7.142   8.516  -0.242  0.00  0.00    +0.009 C 
ATOM     13  C   UNL     1      -6.766   9.987  -0.051  0.00  0.00    +0.027 C 
ATOM     14  C   UNL     1      -7.881  10.872  -0.526  0.00  0.00    -0.031 C 
ATOM     15  C   UNL     1      -8.840  10.477  -1.300  0.00  0.00    -0.031 C 
ATOM     16  C   UNL     1      -8.977   9.077  -1.823  0.00  0.00    +0.031 C 
ENDBRANCH  10  11
BRANCH   8  17
ATOM     17  N   UNL     1      -8.111   6.099  -5.616  0.00  0.00    -0.328 N 
ATOM     18  H   UNL     1      -7.548   5.796  -6.346  0.00  0.00    +0.145 HD
ATOM     19  H   UNL     1      -9.046   6.301  -5.777  0.00  0.00    +0.145 HD
ENDBRANCH   8  17
BRANCH   9  20
ATOM     20  C   UNL     1      -9.764   6.952  -3.629  0.00  0.00    +0.100 C 
ATOM     21  N   UNL     1     -10.856   7.180  -3.849  0.00  0.00    -0.191 NA
ENDBRANCH   9  20
BRANCH   1  22
ATOM     22  O   UNL     1      -2.981   4.107  -1.297  0.00  0.00    -0.487 OA
BRANCH  22  23
ATOM     23  C   UNL     1      -2.553   3.869   0.045  0.00  0.00    +0.264 C 
BRANCH  23  27
ATOM     24  C   UNL     1       1.175   1.783   0.000  0.00  0.00    +0.000 A 
ATOM     25  C   UNL     1      -0.013   1.076   0.008  0.00  0.00    +0.000 A 
ATOM     26  C   UNL     1      -1.219   1.751   0.017  0.00  0.00    +0.007 A 
ATOM     27  C   UNL     1      -1.238   3.133   0.030  0.00  0.00    -0.010 A 
ATOM     28  C   UNL     1      -0.050   3.840   0.022  0.00  0.00    +0.007 A 
ATOM     29  C   UNL     1       1.156   3.165   0.008  0.00  0.00    +0.000 A 
ENDBRANCH  23  27
ENDBRANCH  22  23
ENDBRANCH   1  22
TORSDOF 6
