REMARK  Name = ZINC04554071
REMARK  7 active torsions:
REMARK  status: ('A' for Active; 'I' for Inactive)
REMARK    1  A    between atoms: C_1  and  C_2
REMARK    2  A    between atoms: C_6  and  C_9
REMARK    3  A    between atoms: C_7  and  O_8
REMARK    4  A    between atoms: C_20  and  C_21
REMARK    5  A    between atoms: C_20  and  C_22
REMARK    6  A    between atoms: C_20  and  N_48
REMARK    7  A    between atoms: C_23  and  O_25
REMARK                            x       y       z     vdW  Elec       q    Type
REMARK                         _______ _______ _______ _____ _____    ______ ____
ROOT
ATOM      1  C   UNL     1       3.721  -0.698  -0.038  0.00  0.00    +0.227 C 
ATOM      2  N   UNL     1       4.754   0.186  -0.609  0.00  0.00    -0.313 N 
ATOM      3  C   UNL     1       4.849   0.207  -1.979  0.00  0.00    +0.080 A 
ATOM      4  C   UNL     1       4.422  -0.861  -2.778  0.00  0.00    +0.067 A 
ATOM      5  C   UNL     1       4.597  -0.691  -4.207  0.00  0.00    -0.027 A 
ATOM      6  C   UNL     1       5.148   0.484  -4.595  0.00  0.00    -0.021 A 
ATOM      7  S   UNL     1       5.440   1.369  -3.088  0.00  0.00    -0.080 S 
ATOM      8  C   UNL     1       5.436   0.911  -6.000  0.00  0.00    -0.035 C 
ATOM      9  C   UNL     1       4.124  -1.031  -6.613  0.00  0.00    -0.073 C 
ATOM     10  C   UNL     1       4.205  -1.729  -5.253  0.00  0.00    +0.018 C 
ATOM     11  C   UNL     1       3.835  -2.037  -2.084  0.00  0.00    +0.220 C 
ATOM     12  N   UNL     1       3.574  -1.923  -0.813  0.00  0.00    -0.223 NA
ATOM     13  H   UNL     1       5.334   0.724  -0.047  0.00  0.00    +0.149 HD
ATOM     14  N   UNL     1       5.380  -0.294  -6.862  0.00  0.00    +0.384 N 
ATOM     15  H   UNL     1       6.175  -0.904  -6.636  0.00  0.00    -0.081 HD
ENDROOT
BRANCH   1  21
ATOM     16  C   UNL     1      -1.292  -0.776   0.010  0.00  0.00    +0.047 C 
ATOM     17  C   UNL     1       0.002  -0.004   0.002  0.00  0.00    -0.009 A 
ATOM     18  C   UNL     1      -0.017   1.377   0.010  0.00  0.00    +0.007 A 
ATOM     19  C   UNL     1       1.170   2.086   0.002  0.00  0.00    +0.001 A 
ATOM     20  C   UNL     1       2.379   1.415  -0.013  0.00  0.00    +0.011 A 
ATOM     21  C   UNL     1       2.403   0.034  -0.021  0.00  0.00    +0.036 A 
ATOM     22  C   UNL     1       1.213  -0.680  -0.013  0.00  0.00    +0.127 A 
BRANCH  22  23
ATOM     23  O   UNL     1       1.234  -2.039  -0.020  0.00  0.00    -0.506 OA
ATOM     24  H   UNL     1       1.232  -2.428  -0.906  0.00  0.00    +0.292 HD
ENDBRANCH  22  23
ENDBRANCH   1  21
BRANCH  14  25
ATOM     25  C   UNL     1       5.464   0.097  -8.285  0.00  0.00    -0.074 C 
ATOM     26  C   UNL     1       4.303   1.022  -8.655  0.00  0.00    -0.014 C 
ATOM     27  C   UNL     1       6.790   0.822  -8.525  0.00  0.00    -0.014 C 
ENDBRANCH  14  25
BRANCH  11  28
ATOM     28  O   UNL     1       3.582  -3.187  -2.750  0.00  0.00    -0.492 OA
ATOM     29  H   UNL     1       3.201  -3.885  -2.200  0.00  0.00    +0.294 HD
ENDBRANCH  11  28
TORSDOF 4
