REMARK  Name = ZINC38605729
REMARK  12 active torsions:
REMARK  status: ('A' for Active; 'I' for Inactive)
REMARK    1  A    between atoms: C_1  and  C_2
REMARK    2  A    between atoms: C_2  and  O_3
REMARK    3  A    between atoms: O_3  and  C_4
REMARK    4  A    between atoms: C_4  and  C_6
REMARK    5  A    between atoms: C_8  and  N_17
REMARK    6  A    between atoms: C_18  and  C_20
REMARK    7  A    between atoms: C_20  and  C_22
REMARK    8  A    between atoms: C_20  and  N_23
REMARK    9  A    between atoms: C_26  and  C_29
REMARK   10  A    between atoms: C_29  and  O_31
REMARK   11  A    between atoms: O_31  and  C_32
REMARK   12  A    between atoms: C_32  and  C_33
REMARK                            x       y       z     vdW  Elec       q    Type
REMARK                         _______ _______ _______ _____ _____    ______ ____
ROOT
ATOM      1  N   UNL     1      -3.607  -1.323   2.051  0.00  0.00    -0.288 N 
ATOM      2  C   UNL     1      -4.037  -1.395   3.326  0.00  0.00    +0.203 C 
ATOM      3  O   UNL     1      -4.043  -2.460   3.905  0.00  0.00    -0.277 OA
ATOM      4  H   UNL     1      -3.519  -0.460   1.617  0.00  0.00    +0.155 HD
ENDROOT
BRANCH   1   6
ATOM      5  C   UNL     1      -3.529  -3.887   1.823  0.00  0.00    +0.234 C 
ATOM      6  C   UNL     1      -3.293  -2.463   1.373  0.00  0.00    +0.053 C 
ATOM      7  C   UNL     1      -2.695  -2.556   0.128  0.00  0.00    +0.020 A 
ATOM      8  C   UNL     1      -2.240  -1.577  -0.789  0.00  0.00    +0.050 A 
ATOM      9  C   UNL     1      -1.680  -1.964  -1.962  0.00  0.00    +0.124 A 
ATOM     10  C   UNL     1      -1.537  -3.315  -2.296  0.00  0.00    +0.040 A 
ATOM     11  C   UNL     1      -1.949  -4.304  -1.466  0.00  0.00    +0.029 A 
ATOM     12  C   UNL     1      -2.546  -3.979  -0.220  0.00  0.00    +0.045 A 
ATOM     13  N   UNL     1      -3.020  -4.742   0.746  0.00  0.00    -0.367 N 
ATOM     14  F   UNL     1      -1.250  -1.022  -2.830  0.00  0.00    -0.205 F 
ATOM     15  H   UNL     1      -3.031  -5.712   0.744  0.00  0.00    +0.161 HD
BRANCH   5  16
ATOM     16  C   UNL     1      -5.002  -4.130   2.026  0.00  0.00    +0.336 C 
ATOM     17  O   UNL     1      -5.676  -4.551   1.116  0.00  0.00    -0.248 OA
BRANCH  16  18
ATOM     18  O   UNL     1      -5.566  -3.879   3.218  0.00  0.00    -0.463 OA
BRANCH  18  20
ATOM     19  C   UNL     1      -7.426  -3.790   4.759  0.00  0.00    +0.048 C 
ATOM     20  C   UNL     1      -6.967  -4.133   3.340  0.00  0.00    +0.229 C 
ENDBRANCH  18  20
ENDBRANCH  16  18
ENDBRANCH   5  16
ENDBRANCH   1   6
BRANCH   2  21
ATOM     21  C   UNL     1      -4.513  -0.151   4.033  0.00  0.00    +0.016 C 
ATOM     22  C   UNL     1      -3.341   0.819   4.200  0.00  0.00    -0.004 C 
BRANCH  21  23
ATOM     23  N   UNL     1      -5.043  -0.511   5.355  0.00  0.00    +0.387 N 
ATOM     24  C   UNL     1      -5.646   0.673   5.977  0.00  0.00    -0.077 C 
ATOM     25  C   UNL     1      -6.271   0.286   7.319  0.00  0.00    -0.004 C 
ATOM     26  C   UNL     1      -5.185  -0.278   8.239  0.00  0.00    +0.094 C 
ATOM     27  C   UNL     1      -4.512  -1.468   7.547  0.00  0.00    -0.004 C 
ATOM     28  C   UNL     1      -3.951  -1.016   6.197  0.00  0.00    -0.077 C 
ATOM     29  H   UNL     1      -5.745  -1.228   5.250  0.00  0.00    -0.081 HD
BRANCH  26  30
ATOM     30  C   UNL     1      -5.807  -0.734   9.533  0.00  0.00    +0.310 C 
ATOM     31  O   UNL     1      -6.997  -0.620   9.705  0.00  0.00    -0.251 OA
BRANCH  30  32
ATOM     32  O   UNL     1      -5.038  -1.267  10.496  0.00  0.00    -0.465 OA
BRANCH  32  33
ATOM     33  C   UNL     1      -5.695  -1.677  11.698  0.00  0.00    +0.229 C 
ATOM     34  C   UNL     1      -4.664  -2.255  12.670  0.00  0.00    +0.048 C 
ENDBRANCH  32  33
ENDBRANCH  30  32
ENDBRANCH  26  30
ENDBRANCH  21  23
ENDBRANCH   2  21
TORSDOF 9
