REMARK  Name = ZINC38621716
REMARK  10 active torsions:
REMARK  status: ('A' for Active; 'I' for Inactive)
REMARK    1  A    between atoms: C_1  and  C_2
REMARK    2  A    between atoms: C_4  and  C_32
REMARK    3  A    between atoms: C_5  and  C_31
REMARK    4  A    between atoms: C_6  and  S_9
REMARK    5  A    between atoms: C_7  and  C_8
REMARK    6  A    between atoms: S_9  and  N_12
REMARK    7  A    between atoms: N_12  and  C_13
REMARK    8  A    between atoms: C_13  and  C_14
REMARK    9  A    between atoms: C_14  and  C_16
REMARK   10  A    between atoms: C_14  and  N_26
REMARK                            x       y       z     vdW  Elec       q    Type
REMARK                         _______ _______ _______ _____ _____    ______ ____
ROOT
ATOM      1  C   UNL     1       4.615  -2.223   3.432  0.00  0.00    -0.021 C 
ENDROOT
BRANCH   1   2
ATOM      2  C   UNL     1       5.180  -0.833   3.296  0.00  0.00    -0.052 A 
ATOM      3  C   UNL     1       5.198   0.006   4.368  0.00  0.00    +0.002 A 
ATOM      4  C   UNL     1       5.716   1.295   4.262  0.00  0.00    +0.001 A 
ATOM      5  C   UNL     1       6.220   1.753   3.083  0.00  0.00    +0.008 A 
ATOM      6  C   UNL     1       6.219   0.916   1.955  0.00  0.00    -0.018 A 
ATOM      7  C   UNL     1       5.697  -0.397   2.064  0.00  0.00    -0.016 A 
ATOM      8  C   UNL     1       5.702  -1.237   0.937  0.00  0.00    +0.009 A 
ATOM      9  C   UNL     1       6.211  -0.781  -0.240  0.00  0.00    +0.001 A 
ATOM     10  C   UNL     1       6.730   0.508  -0.346  0.00  0.00    +0.001 A 
ATOM     11  C   UNL     1       6.730   1.354   0.721  0.00  0.00    +0.008 A 
ENDBRANCH   1   2
BRANCH   1  12
ATOM     12  N   UNL     1       4.589  -2.605   4.850  0.00  0.00    +0.385 N 
ATOM     13  C   UNL     1       3.975  -3.948   5.008  0.00  0.00    -0.078 C 
ATOM     14  C   UNL     1       4.518  -4.428   6.377  0.00  0.00    -0.020 C 
ATOM     15  C   UNL     1       5.967  -3.888   6.383  0.00  0.00    -0.020 C 
ATOM     16  C   UNL     1       5.968  -2.728   5.370  0.00  0.00    -0.078 C 
ATOM     17  H   UNL     1       4.075  -1.921   5.386  0.00  0.00    -0.081 HD
ENDBRANCH   1  12
BRANCH   1  18
ATOM     18  C   UNL     1       3.192  -2.252   2.870  0.00  0.00    +0.095 C 
BRANCH  18  19
ATOM     19  N   UNL     1       2.326  -1.399   3.688  0.00  0.00    -0.191 NA
ATOM     20  H   UNL     1       2.627  -1.095   4.559  0.00  0.00    +0.148 HD
BRANCH  19  21
ATOM     21  S   UNL     1       0.834  -0.953   3.126  0.00  0.00    +0.059 S 
ATOM     22  O   UNL     1       1.025  -0.473   1.802  0.00  0.00    -0.153 OA
ATOM     23  O   UNL     1       0.236  -0.162   4.144  0.00  0.00    -0.153 OA
BRANCH  21  29
ATOM     24  C   UNL     1      -2.407  -4.509   5.167  0.00  0.00    +0.044 C 
ATOM     25  C   UNL     1      -1.617  -4.020   3.981  0.00  0.00    -0.045 A 
ATOM     26  C   UNL     1      -1.650  -4.722   2.790  0.00  0.00    +0.007 A 
ATOM     27  C   UNL     1      -0.925  -4.273   1.702  0.00  0.00    -0.045 A 
ATOM     28  C   UNL     1      -0.166  -3.122   1.805  0.00  0.00    -0.021 A 
ATOM     29  C   UNL     1      -0.134  -2.419   2.995  0.00  0.00    +0.112 A 
ATOM     30  C   UNL     1      -0.862  -2.866   4.082  0.00  0.00    -0.021 A 
ATOM     31  C   UNL     1      -0.830  -2.097   5.378  0.00  0.00    +0.046 C 
ATOM     32  C   UNL     1       0.625  -2.633   0.619  0.00  0.00    +0.046 C 
ATOM     33  C   UNL     1      -0.961  -5.039   0.405  0.00  0.00    +0.044 C 
ENDBRANCH  21  29
ENDBRANCH  19  21
ENDBRANCH  18  19
ENDBRANCH   1  18
TORSDOF 6
