REMARK  Name = ZINC38596401
REMARK  10 active torsions:
REMARK  status: ('A' for Active; 'I' for Inactive)
REMARK    1  A    between atoms: C_1  and  C_2
REMARK    2  A    between atoms: C_2  and  C_4
REMARK    3  A    between atoms: C_2  and  N_24
REMARK    4  A    between atoms: C_4  and  C_6
REMARK    5  A    between atoms: C_4  and  N_11
REMARK    6  A    between atoms: N_14  and  C_17
REMARK    7  A    between atoms: C_17  and  C_18
REMARK    8  A    between atoms: N_24  and  S_25
REMARK    9  A    between atoms: S_25  and  C_28
REMARK   10  A    between atoms: C_32  and  C_34
REMARK                            x       y       z     vdW  Elec       q    Type
REMARK                         _______ _______ _______ _____ _____    ______ ____
ROOT
ATOM      1  C   UNL     1      -1.433  -0.534   0.013  0.00  0.00    +0.112 C 
ENDROOT
BRANCH   1   2
ATOM      2  N   UNL     1      -2.157   0.036   1.157  0.00  0.00    -0.297 NA
ATOM      3  C   UNL     1      -1.461  -0.257   2.419  0.00  0.00    +0.066 C 
ATOM      4  C   UNL     1      -2.213   0.403   3.577  0.00  0.00    -0.063 C 
ATOM      5  N   UNL     1      -3.588  -0.112   3.625  0.00  0.00    +0.384 N 
ATOM      6  C   UNL     1      -4.277   0.210   2.369  0.00  0.00    -0.063 C 
ATOM      7  C   UNL     1      -3.543  -0.452   1.200  0.00  0.00    +0.066 C 
ATOM      8  H   UNL     1      -3.568  -1.113   3.751  0.00  0.00    -0.081 HD
BRANCH   5   9
ATOM      9  C   UNL     1      -4.303   0.508   4.748  0.00  0.00    -0.043 C 
BRANCH   9  10
ATOM     10  C   UNL     1      -5.673  -0.109   4.873  0.00  0.00    -0.064 A 
ATOM     11  C   UNL     1      -6.741   0.435   4.186  0.00  0.00    +0.002 A 
ATOM     12  C   UNL     1      -7.997  -0.131   4.301  0.00  0.00    +0.000 A 
ATOM     13  C   UNL     1      -8.184  -1.241   5.103  0.00  0.00    +0.000 A 
ATOM     14  C   UNL     1      -7.115  -1.786   5.789  0.00  0.00    +0.000 A 
ATOM     15  C   UNL     1      -5.859  -1.222   5.671  0.00  0.00    +0.002 A 
ENDBRANCH   9  10
ENDBRANCH   5   9
ENDBRANCH   1   2
BRANCH   1  16
ATOM     16  C   UNL     1      -2.125  -0.137  -1.266  0.00  0.00    +0.008 A 
ATOM     17  C   UNL     1      -2.352  -0.878  -2.378  0.00  0.00    +0.013 A 
ATOM     18  C   UNL     1      -3.015  -0.300  -3.445  0.00  0.00    +0.008 A 
ATOM     19  C   UNL     1      -3.417   0.991  -3.347  0.00  0.00    +0.045 A 
ATOM     20  S   UNL     1      -2.863   1.427  -1.707  0.00  0.00    -0.100 S 
ENDBRANCH   1  16
BRANCH   1  22
ATOM     21  C   UNL     1      -0.019   1.526   0.010  0.00  0.00    +0.027 C 
ATOM     22  C   UNL     1       0.002  -0.004   0.002  0.00  0.00    +0.095 C 
BRANCH  22  23
ATOM     23  N   UNL     1       0.688  -0.476  -1.203  0.00  0.00    -0.185 NA
ATOM     24  H   UNL     1       0.197  -0.571  -2.035  0.00  0.00    +0.148 HD
BRANCH  23  25
ATOM     25  S   UNL     1       2.300  -0.849  -1.146  0.00  0.00    +0.059 S 
ATOM     26  O   UNL     1       2.660  -1.296  -2.446  0.00  0.00    -0.153 OA
ATOM     27  O   UNL     1       2.947   0.245  -0.511  0.00  0.00    -0.153 OA
BRANCH  25  28
ATOM     28  C   UNL     1       2.478  -2.233  -0.071  0.00  0.00    +0.106 A 
ATOM     29  C   UNL     1       2.680  -2.035   1.283  0.00  0.00    +0.028 A 
ATOM     30  C   UNL     1       2.819  -3.121   2.127  0.00  0.00    +0.002 A 
ATOM     31  C   UNL     1       2.756  -4.405   1.617  0.00  0.00    +0.012 A 
ATOM     32  C   UNL     1       2.553  -4.603   0.264  0.00  0.00    +0.057 A 
ATOM     33  C   UNL     1       2.409  -3.517  -0.579  0.00  0.00    +0.041 A 
BRANCH  32  34
ATOM     34  C   UNL     1       2.484  -6.002  -0.291  0.00  0.00    +0.417 C 
ATOM     35  F   UNL     1       2.652  -6.924   0.748  0.00  0.00    -0.166 F 
ATOM     36  F   UNL     1       1.239  -6.203  -0.896  0.00  0.00    -0.166 F 
ATOM     37  F   UNL     1       3.498  -6.178  -1.239  0.00  0.00    -0.166 F 
ENDBRANCH  32  34
ENDBRANCH  25  28
ENDBRANCH  23  25
ENDBRANCH  22  23
ENDBRANCH   1  22
TORSDOF 9
