REMARK  Name = ZINC35781385
REMARK  18 active torsions:
REMARK  status: ('A' for Active; 'I' for Inactive)
REMARK    1  A    between atoms: C_1  and  C_2
REMARK    2  A    between atoms: C_2  and  C_3
REMARK    3  A    between atoms: C_3  and  C_4
REMARK    4  A    between atoms: C_4  and  O_5
REMARK    5  A    between atoms: O_5  and  C_6
REMARK    6  A    between atoms: C_6  and  C_7
REMARK    7  A    between atoms: C_7  and  C_9
REMARK    8  A    between atoms: C_7  and  O_39
REMARK    9  A    between atoms: C_9  and  N_10
REMARK   10  A    between atoms: N_10  and  C_11
REMARK   11  A    between atoms: N_10  and  C_17
REMARK   12  A    between atoms: C_11  and  C_12
REMARK   13  A    between atoms: C_17  and  C_18
REMARK   14  A    between atoms: C_19  and  C_37
REMARK   15  A    between atoms: N_21  and  C_30
REMARK   16  A    between atoms: C_22  and  O_23
REMARK   17  A    between atoms: O_23  and  C_24
REMARK   18  A    between atoms: C_37  and  C_38
REMARK                            x       y       z     vdW  Elec       q    Type
REMARK                         _______ _______ _______ _____ _____    ______ ____
ROOT
ATOM      1  C   UNL     1       4.133  -7.189   6.956  0.00  0.00    +0.021 A 
ATOM      2  C   UNL     1       5.526  -7.310   6.976  0.00  0.00    +0.068 A 
ATOM      3  N   UNL     1       5.973  -6.772   8.081  0.00  0.00    -0.168 NA
ATOM      4  N   UNL     1       4.880  -6.286   8.810  0.00  0.00    -0.200 N 
ATOM      5  C   UNL     1       3.753  -6.549   8.095  0.00  0.00    +0.225 A 
ENDROOT
BRANCH   4   6
ATOM      6  C   UNL     1       4.937  -5.639  10.053  0.00  0.00    +0.069 A 
ATOM      7  C   UNL     1       4.072  -4.589  10.330  0.00  0.00    +0.031 A 
ATOM      8  C   UNL     1       4.130  -3.953  11.555  0.00  0.00    +0.040 A 
ATOM      9  C   UNL     1       5.050  -4.362  12.506  0.00  0.00    +0.124 A 
ATOM     10  C   UNL     1       5.913  -5.409  12.231  0.00  0.00    +0.040 A 
ATOM     11  C   UNL     1       5.854  -6.051  11.010  0.00  0.00    +0.031 A 
ATOM     12  F   UNL     1       5.105  -3.738  13.703  0.00  0.00    -0.205 F 
ENDBRANCH   4   6
BRANCH   2  13
ATOM     13  C   UNL     1       6.369  -7.952   5.904  0.00  0.00    +0.054 C 
ATOM     14  C   UNL     1       6.947  -6.869   4.992  0.00  0.00    +0.010 C 
ENDBRANCH   2  13
BRANCH   5  15
ATOM     15  O   UNL     1       2.483  -6.233   8.453  0.00  0.00    -0.438 OA
BRANCH  15  16
ATOM     16  C   UNL     1       1.826  -7.080   9.288  0.00  0.00    +0.130 A 
ATOM     17  C   UNL     1       2.489  -8.170   9.835  0.00  0.00    +0.046 A 
ATOM     18  C   UNL     1       1.820  -9.030  10.683  0.00  0.00    +0.004 A 
ATOM     19  C   UNL     1       0.490  -8.806  10.988  0.00  0.00    +0.000 A 
ATOM     20  C   UNL     1      -0.173  -7.721  10.445  0.00  0.00    +0.004 A 
ATOM     21  C   UNL     1       0.493  -6.855   9.600  0.00  0.00    +0.046 A 
ENDBRANCH  15  16
ENDBRANCH   5  15
BRANCH   1  22
ATOM     22  C   UNL     1       3.215  -7.676   5.864  0.00  0.00    -0.035 C 
BRANCH  22  23
ATOM     23  N   UNL     1       2.626  -6.523   5.170  0.00  0.00    +0.389 N 
ATOM     24  H   UNL     1       1.953  -6.847   4.492  0.00  0.00    -0.081 HD
BRANCH  23  25
ATOM     25  C   UNL     1       3.685  -5.768   4.487  0.00  0.00    -0.003 C 
BRANCH  25  26
ATOM     26  C   UNL     1       3.763  -6.203   3.046  0.00  0.00    +0.089 A 
ATOM     27  C   UNL     1       3.149  -5.605   2.010  0.00  0.00    +0.042 A 
ATOM     28  C   UNL     1       3.493  -6.338   0.851  0.00  0.00    +0.041 A 
ATOM     29  C   UNL     1       4.296  -7.341   1.249  0.00  0.00    +0.195 A 
ATOM     30  O   UNL     1       4.461  -7.251   2.579  0.00  0.00    -0.470 OA
ENDBRANCH  25  26
ENDBRANCH  23  25
BRANCH  23  31
ATOM     31  C   UNL     1       1.956  -5.653   6.147  0.00  0.00    -0.044 C 
BRANCH  31  32
ATOM     32  C   UNL     1       1.085  -4.634   5.409  0.00  0.00    +0.124 C 
BRANCH  32  33
ATOM     33  O   UNL     1       1.919  -3.744   4.665  0.00  0.00    -0.391 OA
ATOM     34  H   UNL     1       2.544  -3.245   5.208  0.00  0.00    +0.210 HD
ENDBRANCH  32  33
BRANCH  32  35
ATOM     35  C   UNL     1       0.264  -3.836   6.424  0.00  0.00    +0.189 C 
BRANCH  35  36
ATOM     36  O   UNL     1      -0.634  -2.966   5.732  0.00  0.00    -0.377 OA
BRANCH  36  37
ATOM     37  C   UNL     1      -1.452  -2.171   6.592  0.00  0.00    +0.160 C 
BRANCH  37  38
ATOM     38  C   UNL     1      -2.369  -1.284   5.747  0.00  0.00    +0.028 C 
BRANCH  38  40
ATOM     39  C   UNL     1      -4.161   0.455   5.824  0.00  0.00    +0.004 C 
ATOM     40  C   UNL     1      -3.245  -0.432   6.668  0.00  0.00    -0.001 C 
ENDBRANCH  38  40
ENDBRANCH  37  38
ENDBRANCH  36  37
ENDBRANCH  35  36
ENDBRANCH  32  35
ENDBRANCH  31  32
ENDBRANCH  23  31
ENDBRANCH  22  23
ENDBRANCH   1  22
TORSDOF 16
