REMARK  Name = ZINC20909025
REMARK  8 active torsions:
REMARK  status: ('A' for Active; 'I' for Inactive)
REMARK    1  A    between atoms: C_4  and  C_7
REMARK    2  A    between atoms: C_7  and  C_8
REMARK    3  A    between atoms: C_8  and  C_25
REMARK    4  A    between atoms: N_9  and  N_10
REMARK    5  A    between atoms: C_13  and  S_16
REMARK    6  A    between atoms: S_16  and  C_17
REMARK    7  A    between atoms: C_17  and  C_18
REMARK    8  A    between atoms: C_25  and  C_26
REMARK                            x       y       z     vdW  Elec       q    Type
REMARK                         _______ _______ _______ _____ _____    ______ ____
ROOT
ATOM      1  N   UNL     1       1.279  -7.885  -2.777  0.00  0.00    -0.205 N 
ATOM      2  C   UNL     1       1.270  -6.693  -2.065  0.00  0.00    +0.232 A 
ATOM      3  N   UNL     1       1.247  -5.436  -2.603  0.00  0.00    -0.186 NA
ATOM      4  C   UNL     1       1.245  -4.537  -1.575  0.00  0.00    +0.210 A 
ATOM      5  N   UNL     1       1.270  -5.208  -0.449  0.00  0.00    -0.144 NA
ATOM      6  N   UNL     1       1.280  -6.574  -0.760  0.00  0.00    -0.245 N 
ATOM      7  H   UNL     1       1.269  -7.869  -3.877  0.00  0.00    +0.177 HD
ATOM      8  H   UNL     1       1.295  -7.473  -0.126  0.00  0.00    +0.192 HD
ENDROOT
BRANCH   1  10
ATOM      9  C   UNL     1       1.311 -10.207  -2.750  0.00  0.00    +0.045 C 
ATOM     10  N   UNL     1       1.302  -9.108  -2.094  0.00  0.00    -0.188 NA
BRANCH   9  11
ATOM     11  C   UNL     1       1.297 -10.185  -4.257  0.00  0.00    +0.088 C 
BRANCH  11  15
ATOM     12  C   UNL     1       5.311 -10.110  -5.718  0.00  0.00    +0.000 A 
ATOM     13  C   UNL     1       4.677 -11.319  -5.499  0.00  0.00    +0.000 A 
ATOM     14  C   UNL     1       3.379 -11.344  -5.026  0.00  0.00    +0.004 A 
ATOM     15  C   UNL     1       2.713 -10.159  -4.772  0.00  0.00    -0.042 A 
ATOM     16  C   UNL     1       3.344  -8.950  -4.996  0.00  0.00    +0.004 A 
ATOM     17  C   UNL     1       4.645  -8.925  -5.465  0.00  0.00    +0.000 A 
ENDBRANCH  11  15
ENDBRANCH   9  11
BRANCH   9  18
ATOM     18  C   UNL     1       1.336 -11.523  -2.015  0.00  0.00    +0.088 C 
BRANCH  18  19
ATOM     19  C   UNL     1       0.056 -12.272  -2.283  0.00  0.00    -0.042 A 
ATOM     20  C   UNL     1      -1.034 -12.098  -1.450  0.00  0.00    +0.004 A 
ATOM     21  C   UNL     1      -2.209 -12.781  -1.699  0.00  0.00    +0.000 A 
ATOM     22  C   UNL     1      -2.292 -13.646  -2.774  0.00  0.00    +0.000 A 
ATOM     23  C   UNL     1      -1.201 -13.824  -3.603  0.00  0.00    +0.000 A 
ATOM     24  C   UNL     1      -0.027 -13.137  -3.358  0.00  0.00    +0.004 A 
ENDBRANCH  18  19
ENDBRANCH   9  18
ENDBRANCH   1  10
BRANCH   4  25
ATOM     25  S   UNL     1       1.220  -2.782  -1.734  0.00  0.00    -0.080 S 
BRANCH  25  26
ATOM     26  C   UNL     1       1.228  -2.186  -0.020  0.00  0.00    +0.112 C 
BRANCH  26  27
ATOM     27  C   UNL     1       1.208  -0.679  -0.013  0.00  0.00    -0.037 A 
ATOM     28  C   UNL     1       0.002  -0.004   0.002  0.00  0.00    +0.005 A 
ATOM     29  C   UNL     1      -0.017   1.378   0.010  0.00  0.00    +0.015 A 
ATOM     30  C   UNL     1       1.172   2.086   0.002  0.00  0.00    +0.018 A 
ATOM     31  C   UNL     1       2.379   1.410  -0.013  0.00  0.00    +0.015 A 
ATOM     32  C   UNL     1       2.396   0.028  -0.020  0.00  0.00    +0.005 A 
ATOM     33 BR   UNL     1       1.147   3.976   0.013  0.00  0.00    -0.050 Br
ENDBRANCH  26  27
ENDBRANCH  25  26
ENDBRANCH   4  25
TORSDOF 8
