REMARK  Name = ZINC35677621
REMARK  6 active torsions:
REMARK  status: ('A' for Active; 'I' for Inactive)
REMARK    1  A    between atoms: C_1  and  C_2
REMARK    2  A    between atoms: C_2  and  O_3
REMARK    3  A    between atoms: O_3  and  C_4
REMARK    4  A    between atoms: C_6  and  C_12
REMARK    5  A    between atoms: C_9  and  O_10
REMARK    6  A    between atoms: C_24  and  O_26
REMARK                            x       y       z     vdW  Elec       q    Type
REMARK                         _______ _______ _______ _____ _____    ______ ____
ROOT
ATOM      1  C   UNL     1       0.655  -4.954  -0.019  0.00  0.00    +0.224 C 
ATOM      2  N   UNL     1       0.308  -6.215  -0.698  0.00  0.00    -0.313 N 
ATOM      3  C   UNL     1       0.382  -6.208  -2.073  0.00  0.00    +0.080 A 
ATOM      4  C   UNL     1       1.209  -5.315  -2.765  0.00  0.00    +0.068 A 
ATOM      5  C   UNL     1       1.172  -5.417  -4.212  0.00  0.00    -0.023 A 
ATOM      6  C   UNL     1       0.341  -6.373  -4.687  0.00  0.00    -0.005 A 
ATOM      7  S   UNL     1      -0.369  -7.113  -3.242  0.00  0.00    -0.078 S 
ATOM      8  C   UNL     1       0.089  -6.716  -6.122  0.00  0.00    +0.043 C 
ATOM      9  C   UNL     1       0.630  -5.574  -6.994  0.00  0.00    +0.005 C 
ATOM     10  C   UNL     1       2.045  -5.221  -6.526  0.00  0.00    +0.005 C 
ATOM     11  C   UNL     1       1.986  -4.543  -5.155  0.00  0.00    +0.037 C 
ATOM     12  C   UNL     1       2.031  -4.377  -1.958  0.00  0.00    +0.220 C 
ATOM     13  N   UNL     1       1.754  -4.269  -0.688  0.00  0.00    -0.223 NA
ATOM     14  H   UNL     1       0.043  -7.007  -0.204  0.00  0.00    +0.149 HD
ENDROOT
BRANCH   1  17
ATOM     15  C   UNL     1      -1.498  -1.849   0.006  0.00  0.00    +0.163 A 
ATOM     16  C   UNL     1      -0.389  -2.680  -0.003  0.00  0.00    +0.056 A 
ATOM     17  C   UNL     1      -0.553  -4.052  -0.009  0.00  0.00    -0.001 A 
ATOM     18  C   UNL     1      -1.822  -4.600  -0.006  0.00  0.00    +0.025 A 
ATOM     19  C   UNL     1      -2.934  -3.777   0.003  0.00  0.00    +0.059 A 
ATOM     20  C   UNL     1      -2.776  -2.400   0.016  0.00  0.00    +0.172 A 
ATOM     21  I   UNL     1      -4.855  -4.612   0.007  0.00  0.00    -0.040 I 
BRANCH  20  22
ATOM     22  O   UNL     1      -3.868  -1.589   0.030  0.00  0.00    -0.503 OA
ATOM     23  H   UNL     1      -4.192  -1.350  -0.849  0.00  0.00    +0.292 HD
ENDBRANCH  20  22
BRANCH  15  24
ATOM     24  O   UNL     1      -1.339  -0.499   0.012  0.00  0.00    -0.489 OA
BRANCH  24  26
ATOM     25  C   UNL     1      -0.019   1.526   0.010  0.00  0.00    +0.048 C 
ATOM     26  C   UNL     1       0.002  -0.004   0.002  0.00  0.00    +0.226 C 
ENDBRANCH  24  26
ENDBRANCH  15  24
ENDBRANCH   1  17
BRANCH  12  27
ATOM     27  O   UNL     1       3.032  -3.662  -2.520  0.00  0.00    -0.492 OA
ATOM     28  H   UNL     1       3.499  -3.084  -1.901  0.00  0.00    +0.294 HD
ENDBRANCH  12  27
TORSDOF 5
