REMARK  Name = ZINC09430680
REMARK  6 active torsions:
REMARK  status: ('A' for Active; 'I' for Inactive)
REMARK    1  A    between atoms: C_1  and  C_2
REMARK    2  A    between atoms: C_8  and  N_10
REMARK    3  A    between atoms: C_11  and  C_13
REMARK    4  A    between atoms: C_13  and  N_14
REMARK    5  A    between atoms: C_17  and  S_25
REMARK    6  A    between atoms: S_25  and  N_28
REMARK                            x       y       z     vdW  Elec       q    Type
REMARK                         _______ _______ _______ _____ _____    ______ ____
ROOT
ATOM      1  N   UNL     1      -2.430   0.977   0.019  0.00  0.00    -0.256 N 
ATOM      2  C   UNL     1      -2.974   0.518  -1.189  0.00  0.00    +0.081 A 
ATOM      3  C   UNL     1      -2.295   0.699  -2.384  0.00  0.00    +0.055 A 
ATOM      4  C   UNL     1      -2.846   0.235  -3.564  0.00  0.00    +0.107 A 
ATOM      5  C   UNL     1      -4.069  -0.411  -3.554  0.00  0.00    +0.032 A 
ATOM      6  C   UNL     1      -4.748  -0.599  -2.364  0.00  0.00    +0.049 A 
ATOM      7  C   UNL     1      -4.203  -0.138  -1.179  0.00  0.00    +0.143 A 
ATOM      8  O   UNL     1      -4.857  -0.314   0.000  0.00  0.00    -0.481 OA
ATOM      9  C   UNL     1      -4.046  -0.505   1.163  0.00  0.00    +0.325 C 
ATOM     10  C   UNL     1      -2.940   0.518   1.183  0.00  0.00    +0.258 C 
ATOM     11  O   UNL     1      -2.509   0.928   2.240  0.00  0.00    -0.271 OA
ENDROOT
BRANCH   4  12
ATOM     12  S   UNL     1      -1.989   0.469  -5.086  0.00  0.00    +0.061 S 
ATOM     13  O   UNL     1      -0.614   0.616  -4.758  0.00  0.00    -0.153 OA
ATOM     14  O   UNL     1      -2.456  -0.537  -5.974  0.00  0.00    -0.153 OA
BRANCH  12  15
ATOM     15  N   UNL     1      -2.485   1.920  -5.710  0.00  0.00    -0.177 NA
ATOM     16  C   UNL     1      -3.628   1.939  -6.596  0.00  0.00    +0.109 C 
ATOM     17  C   UNL     1      -3.166   1.735  -8.054  0.00  0.00    +0.017 C 
ATOM     18  C   UNL     1      -2.463   2.932  -8.539  0.00  0.00    +0.001 C 
ATOM     19  C   UNL     1      -1.182   3.260  -7.777  0.00  0.00    +0.001 C 
ATOM     20  C   UNL     1      -1.522   4.071  -6.551  0.00  0.00    +0.017 C 
ATOM     21  C   UNL     1      -1.739   3.140  -5.345  0.00  0.00    +0.109 C 
ENDBRANCH  12  15
ENDBRANCH   4  12
BRANCH   1  22
ATOM     22  C   UNL     1      -1.330   1.944   0.019  0.00  0.00    +0.209 C 
BRANCH  22  24
ATOM     23  N   UNL     1       1.143   1.898   0.001  0.00  0.00    -0.311 N 
ATOM     24  C   UNL     1      -0.014   1.209   0.009  0.00  0.00    +0.231 C 
ATOM     25  O   UNL     1       0.002  -0.004   0.002  0.00  0.00    -0.274 OA
ATOM     26  H   UNL     1       1.130   2.868   0.007  0.00  0.00    +0.149 HD
BRANCH  23  33
ATOM     27  C   UNL     1       3.141   2.423   2.032  0.00  0.00    +0.009 C 
ATOM     28  C   UNL     1       3.511   2.072   0.589  0.00  0.00    +0.006 C 
ATOM     29  C   UNL     1       3.635   3.357  -0.232  0.00  0.00    +0.005 C 
ATOM     30  C   UNL     1       4.005   3.006  -1.675  0.00  0.00    +0.000 C 
ATOM     31  C   UNL     1       2.916   2.117  -2.279  0.00  0.00    +0.002 C 
ATOM     32  C   UNL     1       2.792   0.832  -1.457  0.00  0.00    +0.022 C 
ATOM     33  C   UNL     1       2.422   1.183  -0.015  0.00  0.00    +0.076 C 
ENDBRANCH  23  33
ENDBRANCH  22  24
ENDBRANCH   1  22
TORSDOF 5
