REMARK  Name = ZINC63386214
REMARK  3 active torsions:
REMARK  status: ('A' for Active; 'I' for Inactive)
REMARK    1  A    between atoms: C_1  and  C_2
REMARK    2  A    between atoms: C_2  and  C_3
REMARK    3  A    between atoms: C_16  and  C_19
REMARK                            x       y       z     vdW  Elec       q    Type
REMARK                         _______ _______ _______ _____ _____    ______ ____
ROOT
ATOM      1  C   UNL     1       0.643  -0.312  -1.257  0.00  0.00    -0.067 C 
ATOM      2  C   UNL     1       0.773  -1.836  -1.076  0.00  0.00    +0.018 C 
ATOM      3  C   UNL     1       1.320  -2.365  -2.379  0.00  0.00    -0.041 C 
ATOM      4  C   UNL     1       2.322  -3.185  -2.662  0.00  0.00    -0.001 A 
ATOM      5  C   UNL     1       3.194  -4.003  -1.804  0.00  0.00    +0.010 A 
ATOM      6  C   UNL     1       4.158  -4.721  -2.440  0.00  0.00    +0.001 A 
ATOM      7  C   UNL     1       4.340  -4.706  -3.827  0.00  0.00    +0.002 A 
ATOM      8  C   UNL     1       3.577  -3.991  -4.692  0.00  0.00    +0.026 A 
ATOM      9  C   UNL     1       2.523  -3.205  -4.144  0.00  0.00    +0.043 A 
ATOM     10  N   UNL     1       1.634  -2.460  -4.734  0.00  0.00    -0.379 N 
ATOM     11  C   UNL     1       0.722  -1.943  -3.717  0.00  0.00    +0.097 C 
ATOM     12  C   UNL     1       0.658  -0.415  -3.689  0.00  0.00    -0.003 C 
ATOM     13  N   UNL     1      -0.090  -0.009  -2.489  0.00  0.00    +0.387 N 
ATOM     14  H   UNL     1      -0.975  -0.493  -2.471  0.00  0.00    -0.085 HD
ATOM     15  H   UNL     1       1.586  -2.279  -5.686  0.00  0.00    +0.160 HD
ATOM     16  H   UNL     1      -0.262   0.984  -2.532  0.00  0.00    -0.085 HD
ENDROOT
BRANCH  12  17
ATOM     17  C   UNL     1       2.054   0.151  -3.639  0.00  0.00    +0.070 A 
ATOM     18  H   UNL     1       4.812   0.014  -1.921  0.00  0.00    +0.173 HD
ATOM     19  C   UNL     1       2.476   1.071  -4.590  0.00  0.00    +0.259 A 
ATOM     20  O   UNL     1       1.648   1.464  -5.560  0.00  0.00    -0.267 OA
ATOM     21  N   UNL     1       3.740   1.567  -4.524  0.00  0.00    -0.275 N 
ATOM     22  C   UNL     1       4.579   1.174  -3.548  0.00  0.00    +0.329 A 
ATOM     23  O   UNL     1       5.705   1.631  -3.508  0.00  0.00    -0.247 OA
ATOM     24  N   UNL     1       4.191   0.284  -2.616  0.00  0.00    -0.275 N 
ATOM     25  C   UNL     1       2.935  -0.235  -2.638  0.00  0.00    +0.259 A 
ATOM     26  O   UNL     1       2.554  -1.114  -1.707  0.00  0.00    -0.267 OA
ATOM     27  H   UNL     1       4.040   2.210  -5.186  0.00  0.00    +0.173 HD
ENDBRANCH  12  17
BRANCH   1  29
ATOM     28  C   UNL     1      -0.125   1.804  -0.171  0.00  0.00    +0.002 C 
ATOM     29  C   UNL     1      -0.110   0.277  -0.062  0.00  0.00    -0.019 C 
ENDBRANCH   1  29
TORSDOF 2
