REMARK  Name = ZINC22023114
REMARK  8 active torsions:
REMARK  status: ('A' for Active; 'I' for Inactive)
REMARK    1  A    between atoms: C_1  and  C_2
REMARK    2  A    between atoms: C_2  and  C_3
REMARK    3  A    between atoms: C_2  and  C_4
REMARK    4  A    between atoms: C_4  and  C_5
REMARK    5  A    between atoms: C_9  and  N_25
REMARK    6  A    between atoms: C_10  and  C_14
REMARK    7  A    between atoms: C_14  and  C_16
REMARK    8  A    between atoms: C_19  and  N_22
REMARK                            x       y       z     vdW  Elec       q    Type
REMARK                         _______ _______ _______ _____ _____    ______ ____
ROOT
ATOM      1  C   UNL     1      -0.758   2.099   1.201  0.00  0.00    +0.043 A 
ATOM      2  C   UNL     1      -0.128   3.000   2.047  0.00  0.00    +0.024 A 
ATOM      3  C   UNL     1      -0.756   3.440   3.188  0.00  0.00    +0.014 A 
ATOM      4  C   UNL     1      -2.056   2.960   3.485  0.00  0.00    +0.029 A 
ATOM      5  C   UNL     1      -2.905   3.282   4.621  0.00  0.00    +0.052 A 
ATOM      6  C   UNL     1      -4.148   2.684   4.698  0.00  0.00    +0.083 A 
ATOM      7  S   UNL     1      -4.208   1.667   3.237  0.00  0.00    -0.064 S 
ATOM      8  C   UNL     1      -2.611   2.046   2.560  0.00  0.00    +0.111 A 
ATOM      9  N   UNL     1      -1.970   1.659   1.478  0.00  0.00    -0.244 NA
ENDROOT
BRANCH   5  10
ATOM     10  N   UNL     1      -2.478   4.165   5.599  0.00  0.00    -0.356 N 
ATOM     11  H   UNL     1      -3.132   4.399   6.452  0.00  0.00    +0.142 HD
ATOM     12  H   UNL     1      -1.486   4.633   5.523  0.00  0.00    +0.142 HD
ENDBRANCH   5  10
BRANCH   6  13
ATOM     13  C   UNL     1      -5.136   2.842   5.698  0.00  0.00    +0.202 C 
ATOM     14  O   UNL     1      -4.890   3.488   6.702  0.00  0.00    -0.286 OA
BRANCH  13  15
ATOM     15  C   UNL     1      -6.469   2.223   5.525  0.00  0.00    +0.023 A 
ATOM     16  C   UNL     1      -7.255   1.928   6.641  0.00  0.00    +0.014 A 
ATOM     17  C   UNL     1      -8.499   1.357   6.472  0.00  0.00    +0.033 A 
ATOM     18  C   UNL     1      -8.963   1.065   5.202  0.00  0.00    +0.126 A 
ATOM     19  C   UNL     1      -8.187   1.349   4.092  0.00  0.00    +0.033 A 
ATOM     20  C   UNL     1      -6.944   1.926   4.247  0.00  0.00    +0.014 A 
BRANCH  18  21
ATOM     21  N   UNL     1     -10.297   0.446   5.029  0.00  0.00    +0.056 N 
ATOM     22  O   UNL     1     -10.709   0.188   3.912  0.00  0.00    -0.126 OA
ATOM     23  O   UNL     1     -10.983   0.195   6.003  0.00  0.00    -0.126 OA
ENDBRANCH  18  21
ENDBRANCH  13  15
ENDBRANCH   6  13
BRANCH   1  24
ATOM     24  C   UNL     1      -0.057   1.627  -0.046  0.00  0.00    +0.058 C 
BRANCH  24  26
ATOM     25  C   UNL     1      -1.423  -0.463  -0.149  0.00  0.00    +0.007 C 
ATOM     26  C   UNL     1      -0.002   0.098  -0.051  0.00  0.00    -0.011 C 
ATOM     27  C   UNL     1       0.818  -0.379  -1.252  0.00  0.00    +0.007 C 
ENDBRANCH  24  26
ENDBRANCH   1  24
TORSDOF 6
