REMARK  Name = ZINC63187828
REMARK  13 active torsions:
REMARK  status: ('A' for Active; 'I' for Inactive)
REMARK    1  A    between atoms: C_1  and  C_2
REMARK    2  A    between atoms: C_3  and  C_36
REMARK    3  A    between atoms: N_9  and  C_33
REMARK    4  A    between atoms: C_10  and  S_12
REMARK    5  A    between atoms: S_12  and  C_13
REMARK    6  A    between atoms: C_13  and  C_14
REMARK    7  A    between atoms: N_16  and  C_17
REMARK    8  A    between atoms: C_17  and  C_19
REMARK    9  A    between atoms: C_17  and  C_29
REMARK   10  A    between atoms: C_19  and  C_20
REMARK   11  A    between atoms: C_29  and  O_31
REMARK   12  A    between atoms: O_31  and  C_32
REMARK   13  A    between atoms: C_33  and  C_34
REMARK                            x       y       z     vdW  Elec       q    Type
REMARK                         _______ _______ _______ _____ _____    ______ ____
ROOT
ATOM      1  C   UNL     1       0.134  -6.293   5.056  0.00  0.00    +0.224 C 
ATOM      2  O   UNL     1       0.140  -5.970   6.225  0.00  0.00    -0.275 OA
ATOM      3  N   UNL     1       0.149  -7.597   4.716  0.00  0.00    -0.301 N 
ATOM      4  H   UNL     1       0.143  -7.854   3.780  0.00  0.00    +0.150 HD
ENDROOT
BRANCH   1   5
ATOM      5  C   UNL     1       0.110  -5.234   3.983  0.00  0.00    +0.173 C 
BRANCH   5   6
ATOM      6  S   UNL     1       0.095  -3.592   4.753  0.00  0.00    -0.078 S 
BRANCH   6  16
ATOM      7  C   UNL     1      -0.018   1.503   0.010  0.00  0.00    +0.045 C 
ATOM      8  C   UNL     1       0.002  -0.004   0.002  0.00  0.00    -0.026 A 
ATOM      9  C   UNL     1       0.006  -0.676  -1.159  0.00  0.00    -0.008 A 
ATOM     10  S   UNL     1       0.031  -2.384  -0.648  0.00  0.00    -0.073 S 
ATOM     11  C   UNL     1       0.036  -2.146   1.110  0.00  0.00    +0.117 A 
ATOM     12  C   UNL     1       0.024  -0.746   1.251  0.00  0.00    +0.075 A 
ATOM     13  C   UNL     1       0.030  -0.255   2.595  0.00  0.00    +0.263 A 
ATOM     14  O   UNL     1       0.015   0.944   2.815  0.00  0.00    -0.267 OA
ATOM     15  N   UNL     1       0.051  -1.135   3.613  0.00  0.00    -0.283 N 
ATOM     16  C   UNL     1       0.067  -2.481   3.386  0.00  0.00    +0.173 A 
ATOM     17  N   UNL     1       0.052  -2.960   2.159  0.00  0.00    -0.216 NA
ATOM     18  C   UNL     1      -0.009  -0.120  -2.559  0.00  0.00    +0.052 C 
BRANCH  15  19
ATOM     19  C   UNL     1       0.057  -0.638   4.992  0.00  0.00    +0.154 C 
BRANCH  19  20
ATOM     20  C   UNL     1      -1.361  -0.487   5.478  0.00  0.00    -0.013 C 
ATOM     21  C   UNL     1      -1.744  -1.085   6.579  0.00  0.00    +0.005 C 
ENDBRANCH  19  20
ENDBRANCH  15  19
ENDBRANCH   6  16
ENDBRANCH   5   6
ENDBRANCH   1   5
BRANCH   3  22
ATOM     22  C   UNL     1       0.172  -8.625   5.759  0.00  0.00    +0.186 C 
BRANCH  22  23
ATOM     23  C   UNL     1       1.595  -8.870   6.190  0.00  0.00    +0.328 C 
ATOM     24  O   UNL     1       2.497  -8.250   5.679  0.00  0.00    -0.249 OA
BRANCH  23  25
ATOM     25  O   UNL     1       1.860  -9.778   7.143  0.00  0.00    -0.467 OA
ATOM     26  C   UNL     1       3.231  -9.959   7.502  0.00  0.00    +0.280 C 
ENDBRANCH  23  25
ENDBRANCH  22  23
BRANCH  22  27
ATOM     27  C   UNL     1      -0.425  -9.922   5.209  0.00  0.00    +0.067 C 
BRANCH  27  28
ATOM     28  C   UNL     1      -1.883  -9.709   4.892  0.00  0.00    -0.039 C 
ATOM     29  C   UNL     1      -2.415  -9.386   3.691  0.00  0.00    -0.001 A 
ATOM     30  C   UNL     1      -1.819  -9.145   2.372  0.00  0.00    +0.010 A 
ATOM     31  C   UNL     1      -2.627  -8.831   1.334  0.00  0.00    +0.001 A 
ATOM     32  C   UNL     1      -4.017  -8.731   1.487  0.00  0.00    +0.002 A 
ATOM     33  C   UNL     1      -4.638  -8.939   2.667  0.00  0.00    +0.026 A 
ATOM     34  C   UNL     1      -3.885  -9.275   3.826  0.00  0.00    +0.043 A 
ATOM     35  N   UNL     1      -4.248  -9.519   5.062  0.00  0.00    -0.380 N 
ATOM     36  C   UNL     1      -3.048  -9.820   5.851  0.00  0.00    +0.144 C 
ATOM     37  H   UNL     1      -5.157  -9.508   5.398  0.00  0.00    +0.160 HD
ENDBRANCH  27  28
ENDBRANCH  22  27
ENDBRANCH   3  22
TORSDOF 10
