REMARK  Name = ZINC09187488
REMARK  10 active torsions:
REMARK  status: ('A' for Active; 'I' for Inactive)
REMARK    1  A    between atoms: C_1  and  C_2
REMARK    2  A    between atoms: C_5  and  N_8
REMARK    3  A    between atoms: N_8  and  C_9
REMARK    4  A    between atoms: C_10  and  C_35
REMARK    5  A    between atoms: C_15  and  S_18
REMARK    6  A    between atoms: S_18  and  C_19
REMARK    7  A    between atoms: C_19  and  C_20
REMARK    8  A    between atoms: N_22  and  C_23
REMARK    9  A    between atoms: C_31  and  C_33
REMARK   10  A    between atoms: C_31  and  C_34
REMARK                            x       y       z     vdW  Elec       q    Type
REMARK                         _______ _______ _______ _____ _____    ______ ____
ROOT
ATOM      1  C   UNL     1      -3.140  -3.291   1.608  0.00  0.00    +0.129 A 
ATOM      2  C   UNL     1      -3.359  -1.986   1.184  0.00  0.00    +0.094 A 
ATOM      3  C   UNL     1      -2.264  -1.178   0.771  0.00  0.00    -0.015 A 
ATOM      4  C   UNL     1      -1.011  -1.683   0.797  0.00  0.00    +0.027 A 
ATOM      5  C   UNL     1      -0.804  -3.016   1.229  0.00  0.00    +0.169 A 
ATOM      6  N   UNL     1      -1.870  -3.794   1.625  0.00  0.00    -0.256 N 
ATOM      7  C   UNL     1      -1.339  -5.005   1.975  0.00  0.00    +0.198 A 
ATOM      8  N   UNL     1      -0.041  -4.926   1.790  0.00  0.00    -0.122 NA
ATOM      9  N   UNL     1       0.279  -3.760   1.352  0.00  0.00    -0.128 NA
ATOM     10  C   UNL     1       0.184  -0.864   0.386  0.00  0.00    +0.199 C 
ATOM     11  O   UNL     1      -0.230   0.287  -0.349  0.00  0.00    -0.369 OA
ATOM     12  C   UNL     1      -1.245   1.044   0.321  0.00  0.00    +0.068 C 
ATOM     13  C   UNL     1      -2.540   0.230   0.310  0.00  0.00    +0.071 C 
ATOM     14  C   UNL     1      -1.464   2.371  -0.408  0.00  0.00    +0.041 C 
ATOM     15  C   UNL     1      -0.818   1.313   1.765  0.00  0.00    +0.041 C 
ENDROOT
BRANCH   1  16
ATOM     16  N   UNL     1      -4.197  -4.072   2.007  0.00  0.00    -0.299 N 
ATOM     17  H   UNL     1      -4.477  -4.071   2.935  0.00  0.00    +0.154 HD
BRANCH  16  22
ATOM     18  C   UNL     1      -6.922  -7.303  -1.775  0.00  0.00    +0.044 C 
ATOM     19  C   UNL     1      -6.198  -6.445  -0.770  0.00  0.00    -0.050 A 
ATOM     20  C   UNL     1      -6.677  -6.344   0.524  0.00  0.00    +0.005 A 
ATOM     21  C   UNL     1      -6.016  -5.558   1.447  0.00  0.00    +0.023 A 
ATOM     22  C   UNL     1      -4.868  -4.869   1.075  0.00  0.00    +0.032 A 
ATOM     23  C   UNL     1      -4.393  -4.968  -0.226  0.00  0.00    +0.023 A 
ATOM     24  C   UNL     1      -5.056  -5.760  -1.143  0.00  0.00    +0.005 A 
ENDBRANCH  16  22
ENDBRANCH   1  16
BRANCH   2  25
ATOM     25  C   UNL     1      -4.689  -1.455   1.164  0.00  0.00    +0.103 C 
ATOM     26  N   UNL     1      -5.743  -1.033   1.147  0.00  0.00    -0.191 NA
ENDBRANCH   2  25
BRANCH   7  27
ATOM     27  S   UNL     1      -2.228  -6.407   2.564  0.00  0.00    -0.076 S 
BRANCH  27  28
ATOM     28  C   UNL     1      -0.948  -7.668   2.808  0.00  0.00    +0.173 C 
BRANCH  28  29
ATOM     29  C   UNL     1      -1.593  -8.967   3.218  0.00  0.00    +0.227 C 
ATOM     30  O   UNL     1      -2.783  -9.006   3.449  0.00  0.00    -0.275 OA
ATOM     31  N   UNL     1      -0.848 -10.085   3.327  0.00  0.00    -0.285 N 
ATOM     32  H   UNL     1       0.116 -10.037   3.230  0.00  0.00    +0.155 HD
BRANCH  31  33
ATOM     33  C   UNL     1      -1.466 -11.315   3.579  0.00  0.00    +0.033 A 
ATOM     34  C   UNL     1      -2.726 -11.580   3.061  0.00  0.00    +0.023 A 
ATOM     35  C   UNL     1      -3.330 -12.798   3.307  0.00  0.00    +0.002 A 
ATOM     36  C   UNL     1      -2.686 -13.748   4.078  0.00  0.00    +0.000 A 
ATOM     37  C   UNL     1      -1.433 -13.484   4.601  0.00  0.00    +0.002 A 
ATOM     38  C   UNL     1      -0.821 -12.271   4.354  0.00  0.00    +0.023 A 
ENDBRANCH  31  33
ENDBRANCH  28  29
ENDBRANCH  27  28
ENDBRANCH   7  27
TORSDOF 7
