REMARK  Name = ZINC04959402
REMARK  6 active torsions:
REMARK  status: ('A' for Active; 'I' for Inactive)
REMARK    1  A    between atoms: C_1  and  O_2
REMARK    2  A    between atoms: O_2  and  C_3
REMARK    3  A    between atoms: C_6  and  O_28
REMARK    4  A    between atoms: C_7  and  C_9
REMARK    5  A    between atoms: C_20  and  N_25
REMARK    6  A    between atoms: O_28  and  C_29
REMARK                            x       y       z     vdW  Elec       q    Type
REMARK                         _______ _______ _______ _____ _____    ______ ____
ROOT
ATOM      1  C   UNL     1       1.552   3.304   0.460  0.00  0.00    +0.109 C 
ATOM      2  C   UNL     1       1.493   1.859  -0.002  0.00  0.00    +0.029 C 
ATOM      3  C   UNL     1       1.976   0.789   0.986  0.00  0.00    +0.033 C 
ATOM      4  C   UNL     1       1.127  -0.416   0.575  0.00  0.00    -0.030 C 
ATOM      5  C   UNL     1       0.002  -0.004   0.002  0.00  0.00    -0.023 C 
ATOM      6  C   UNL     1      -0.018   1.481   0.010  0.00  0.00    +0.049 C 
ATOM      7  C   UNL     1      -0.691   2.261  -1.050  0.00  0.00    -0.017 A 
ATOM      8  C   UNL     1      -1.747   1.760  -1.781  0.00  0.00    +0.038 A 
ATOM      9  C   UNL     1      -2.354   2.535  -2.751  0.00  0.00    +0.127 A 
ATOM     10  C   UNL     1      -1.903   3.821  -2.992  0.00  0.00    +0.034 A 
ATOM     11  C   UNL     1      -0.842   4.328  -2.271  0.00  0.00    +0.025 A 
ATOM     12  C   UNL     1      -0.220   3.555  -1.298  0.00  0.00    +0.032 A 
ATOM     13  N   UNL     1       0.866   4.087  -0.591  0.00  0.00    -0.336 N 
ATOM     14  H   UNL     1       1.173   4.984  -0.794  0.00  0.00    +0.147 HD
ENDROOT
BRANCH   1  19
ATOM     15  C   UNL     1       4.886   4.916  -0.293  0.00  0.00    +0.121 A 
ATOM     16  C   UNL     1       5.621   4.572   0.832  0.00  0.00    +0.049 A 
ATOM     17  C   UNL     1       5.039   3.821   1.834  0.00  0.00    +0.049 A 
ATOM     18  C   UNL     1       3.718   3.413   1.717  0.00  0.00    +0.125 A 
ATOM     19  C   UNL     1       2.986   3.752   0.589  0.00  0.00    +0.018 A 
ATOM     20  C   UNL     1       3.568   4.504  -0.413  0.00  0.00    +0.054 A 
BRANCH  15  22
ATOM     21  C   UNL     1       6.821   6.045  -1.091  0.00  0.00    +0.277 C 
ATOM     22  O   UNL     1       5.460   5.656  -1.280  0.00  0.00    -0.495 OA
ENDBRANCH  15  22
BRANCH  18  23
ATOM     23  O   UNL     1       3.144   2.677   2.706  0.00  0.00    -0.495 OA
ATOM     24  C   UNL     1       3.957   2.365   3.838  0.00  0.00    +0.277 C 
ENDBRANCH  18  23
ENDBRANCH   1  19
BRANCH   9  25
ATOM     25  N   UNL     1      -3.487   1.990  -3.533  0.00  0.00    +0.056 N 
ATOM     26  O   UNL     1      -3.884   0.859  -3.321  0.00  0.00    -0.126 OA
ATOM     27  O   UNL     1      -4.021   2.673  -4.388  0.00  0.00    -0.126 OA
ENDBRANCH   9  25
TORSDOF 4
