REMARK  Name = ZINC39574951
REMARK  8 active torsions:
REMARK  status: ('A' for Active; 'I' for Inactive)
REMARK    1  A    between atoms: C_1  and  C_2
REMARK    2  A    between atoms: C_3  and  C_29
REMARK    3  A    between atoms: C_4  and  C_16
REMARK    4  A    between atoms: C_10  and  C_14
REMARK    5  A    between atoms: C_10  and  C_15
REMARK    6  A    between atoms: C_21  and  C_22
REMARK    7  A    between atoms: C_29  and  O_31
REMARK    8  A    between atoms: O_31  and  C_32
REMARK                            x       y       z     vdW  Elec       q    Type
REMARK                         _______ _______ _______ _____ _____    ______ ____
ROOT
ATOM      1  C   UNL     1       0.328   1.516   0.247  0.00  0.00    +0.061 C 
ATOM      2  C   UNL     1       0.192   0.022   0.107  0.00  0.00    +0.015 C 
ATOM      3  C   UNL     1      -1.028  -0.542   0.127  0.00  0.00    +0.062 C 
ATOM      4  C   UNL     1      -1.202  -2.027  -0.000  0.00  0.00    +0.077 C 
ATOM      5  C   UNL     1       0.040  -2.672  -0.561  0.00  0.00    +0.021 C 
ATOM      6  C   UNL     1       1.220  -2.016  -0.556  0.00  0.00    +0.016 C 
ATOM      7  N   UNL     1       1.309  -0.751  -0.044  0.00  0.00    -0.321 N 
ATOM      8  C   UNL     1       2.466  -2.652  -1.121  0.00  0.00    +0.058 C 
ATOM      9  C   UNL     1       2.395  -4.170  -0.941  0.00  0.00    -0.023 C 
ATOM     10  C   UNL     1       1.135  -4.685  -1.646  0.00  0.00    +0.086 C 
ATOM     11  C   UNL     1      -0.065  -3.972  -1.087  0.00  0.00    +0.162 C 
ATOM     12  O   UNL     1      -1.145  -4.529  -1.089  0.00  0.00    -0.292 OA
ATOM     13  C   UNL     1       3.633  -4.820  -1.560  0.00  0.00    +0.011 C 
ATOM     14  C   UNL     1       2.323  -4.508   0.550  0.00  0.00    +0.011 C 
ATOM     15  H   UNL     1       2.175  -0.401   0.218  0.00  0.00    +0.152 HD
ENDROOT
BRANCH   4  16
ATOM     16  C   UNL     1      -1.494  -2.618   1.381  0.00  0.00    +0.095 C 
ATOM     17  C   UNL     1      -0.544  -2.050   2.416  0.00  0.00    +0.118 C 
ATOM     18  N   UNL     1      -1.282  -1.432   3.280  0.00  0.00    -0.161 NA
ATOM     19  N   UNL     1      -2.636  -1.501   2.969  0.00  0.00    -0.153 NA
ATOM     20  C   UNL     1      -2.859  -2.179   1.873  0.00  0.00    +0.080 C 
BRANCH  20  21
ATOM     21  C   UNL     1      -4.160  -2.456   1.245  0.00  0.00    -0.001 A 
ATOM     22  C   UNL     1      -4.224  -3.186   0.053  0.00  0.00    +0.012 A 
ATOM     23  C   UNL     1      -5.446  -3.442  -0.529  0.00  0.00    +0.039 A 
ATOM     24  C   UNL     1      -6.611  -2.979   0.063  0.00  0.00    +0.123 A 
ATOM     25  C   UNL     1      -6.554  -2.255   1.245  0.00  0.00    +0.039 A 
ATOM     26  C   UNL     1      -5.339  -1.996   1.841  0.00  0.00    +0.012 A 
ATOM     27  F   UNL     1      -7.806  -3.233  -0.513  0.00  0.00    -0.205 F 
ENDBRANCH  20  21
ENDBRANCH   4  16
BRANCH   3  28
ATOM     28  C   UNL     1      -2.170   0.281   0.270  0.00  0.00    +0.337 C 
ATOM     29  O   UNL     1      -2.043   1.486   0.374  0.00  0.00    -0.245 OA
BRANCH  28  30
ATOM     30  O   UNL     1      -3.401  -0.272   0.291  0.00  0.00    -0.465 OA
ATOM     31  C   UNL     1      -4.509   0.618   0.439  0.00  0.00    +0.280 C 
ENDBRANCH  28  30
ENDBRANCH   3  28
TORSDOF 4
