REMARK  Name = ZINC13127696
REMARK  9 active torsions:
REMARK  status: ('A' for Active; 'I' for Inactive)
REMARK    1  A    between atoms: C_1  and  C_2
REMARK    2  A    between atoms: C_5  and  N_8
REMARK    3  A    between atoms: C_9  and  C_34
REMARK    4  A    between atoms: C_10  and  N_14
REMARK    5  A    between atoms: C_11  and  C_13
REMARK    6  A    between atoms: C_15  and  C_17
REMARK    7  A    between atoms: C_17  and  N_65
REMARK    8  A    between atoms: N_21  and  S_24
REMARK    9  A    between atoms: S_24  and  C_27
REMARK                            x       y       z     vdW  Elec       q    Type
REMARK                         _______ _______ _______ _____ _____    ______ ____
ROOT
ATOM      1  C   UNL     1      -0.684   3.662  -0.184  0.00  0.00    +0.019 C 
ENDROOT
BRANCH   1   8
ATOM      2  C   UNL     1      -3.065   3.998   0.057  0.00  0.00    -0.077 C 
ATOM      3  C   UNL     1      -4.087   5.061   0.025  0.00  0.00    -0.001 C 
ATOM      4  C   UNL     1      -4.634   5.218  -1.416  0.00  0.00    +0.107 C 
ATOM      5  N   UNL     1      -3.606   5.783  -2.264  0.00  0.00    -0.178 NA
ATOM      6  C   UNL     1      -2.624   4.955  -2.995  0.00  0.00    +0.091 C 
ATOM      7  C   UNL     1      -2.098   3.800  -2.123  0.00  0.00    -0.061 C 
ATOM      8  N   UNL     1      -1.883   4.293  -0.771  0.00  0.00    +0.386 N 
ATOM      9  H   UNL     1      -1.742   5.309  -0.804  0.00  0.00    -0.081 HD
BRANCH   5  10
ATOM     10  S   UNL     1      -3.527   7.429  -2.422  0.00  0.00    +0.061 S 
ATOM     11  O   UNL     1      -2.875   7.688  -3.659  0.00  0.00    -0.153 OA
ATOM     12  O   UNL     1      -4.824   7.929  -2.126  0.00  0.00    -0.153 OA
BRANCH  10  13
ATOM     13  C   UNL     1      -2.457   8.024  -1.155  0.00  0.00    +0.106 A 
ATOM     14  C   UNL     1      -2.975   8.378   0.077  0.00  0.00    +0.031 A 
ATOM     15  C   UNL     1      -2.136   8.839   1.073  0.00  0.00    +0.040 A 
ATOM     16  C   UNL     1      -0.777   8.957   0.834  0.00  0.00    +0.124 A 
ATOM     17  C   UNL     1      -0.260   8.607  -0.402  0.00  0.00    +0.040 A 
ATOM     18  C   UNL     1      -1.101   8.141  -1.395  0.00  0.00    +0.031 A 
ATOM     19  F   UNL     1       0.043   9.413   1.806  0.00  0.00    -0.205 F 
ENDBRANCH  10  13
ENDBRANCH   5  10
ENDBRANCH   1   8
BRANCH   1  21
ATOM     20  N   UNL     1       0.183   1.390   0.271  0.00  0.00    -0.284 N 
ATOM     21  C   UNL     1      -0.810   2.160  -0.217  0.00  0.00    +0.201 C 
ATOM     22  O   UNL     1      -1.805   1.645  -0.683  0.00  0.00    -0.278 OA
ATOM     23  H   UNL     1       0.970   1.802   0.660  0.00  0.00    +0.155 HD
BRANCH  20  26
ATOM     24  N   UNL     1       0.509  -2.123  -0.201  0.00  0.00    -0.235 N 
ATOM     25  C   UNL     1       0.982  -0.856  -0.354  0.00  0.00    +0.063 A 
ATOM     26  C   UNL     1       0.080  -0.012   0.209  0.00  0.00    +0.078 A 
ATOM     27  C   UNL     1      -0.970  -0.787   0.726  0.00  0.00    +0.082 A 
ATOM     28  N   UNL     1      -0.715  -2.046   0.476  0.00  0.00    -0.170 NA
ATOM     29  C   UNL     1      -2.185  -0.259   1.443  0.00  0.00    +0.069 C 
ATOM     30  C   UNL     1       2.271  -0.462  -1.028  0.00  0.00    +0.068 C 
BRANCH  24  35
ATOM     31  C   UNL     1       3.047  -6.875  -1.986  0.00  0.00    +0.044 C 
ATOM     32  C   UNL     1       2.373  -5.613  -1.512  0.00  0.00    -0.050 A 
ATOM     33  C   UNL     1       3.122  -4.609  -0.926  0.00  0.00    +0.005 A 
ATOM     34  C   UNL     1       2.507  -3.451  -0.491  0.00  0.00    +0.028 A 
ATOM     35  C   UNL     1       1.136  -3.296  -0.642  0.00  0.00    +0.066 A 
ATOM     36  C   UNL     1       0.386  -4.309  -1.226  0.00  0.00    +0.028 A 
ATOM     37  C   UNL     1       1.007  -5.462  -1.663  0.00  0.00    +0.005 A 
ENDBRANCH  24  35
ENDBRANCH  20  26
ENDBRANCH   1  21
TORSDOF 6
