REMARK  Name = ZINC09271282
REMARK  18 active torsions:
REMARK  status: ('A' for Active; 'I' for Inactive)
REMARK    1  A    between atoms: C_1  and  C_2
REMARK    2  A    between atoms: C_2  and  C_3
REMARK    3  A    between atoms: C_6  and  C_9
REMARK    4  A    between atoms: C_12  and  C_13
REMARK    5  A    between atoms: C_12  and  O_25
REMARK    6  A    between atoms: C_16  and  O_20
REMARK    7  A    between atoms: C_17  and  C_19
REMARK    8  A    between atoms: O_20  and  C_21
REMARK    9  A    between atoms: C_21  and  C_22
REMARK   10  A    between atoms: C_22  and  C_23
REMARK   11  A    between atoms: C_22  and  C_24
REMARK   12  A    between atoms: N_30  and  C_31
REMARK   13  A    between atoms: C_31  and  C_32
REMARK   14  A    between atoms: C_32  and  N_76
REMARK   15  A    between atoms: C_33  and  C_34
REMARK   16  A    between atoms: C_33  and  N_76
REMARK   17  A    between atoms: C_35  and  C_36
REMARK   18  A    between atoms: C_35  and  N_76
REMARK                            x       y       z     vdW  Elec       q    Type
REMARK                         _______ _______ _______ _____ _____    ______ ____
ROOT
ATOM      1  C   UNL     1       1.471  -6.318  -0.216  0.00  0.00    +0.144 C 
ATOM      2  C   UNL     1       1.289  -4.827  -0.049  0.00  0.00    +0.071 C 
ATOM      3  C   UNL     1       0.094  -4.146   0.078  0.00  0.00    +0.133 C 
ATOM      4  C   UNL     1       2.578  -4.274  -0.044  0.00  0.00    +0.249 C 
ATOM      5  O   UNL     1       2.848  -3.093   0.074  0.00  0.00    -0.282 OA
ATOM      6  C   UNL     1       3.558  -5.381  -0.209  0.00  0.00    +0.288 C 
ATOM      7  O   UNL     1       4.764  -5.244  -0.246  0.00  0.00    -0.266 OA
ATOM      8  N   UNL     1       2.914  -6.556  -0.311  0.00  0.00    -0.285 N 
ENDROOT
BRANCH   3   9
ATOM      9  C   UNL     1       0.093  -2.683   0.232  0.00  0.00    +0.017 A 
ATOM     10  C   UNL     1       0.750  -1.877  -0.706  0.00  0.00    +0.015 A 
ATOM     11  C   UNL     1       0.747  -0.510  -0.558  0.00  0.00    +0.046 A 
ATOM     12  C   UNL     1       0.093   0.073   0.522  0.00  0.00    +0.123 A 
ATOM     13  C   UNL     1      -0.556  -0.722   1.460  0.00  0.00    -0.008 A 
ATOM     14  C   UNL     1      -0.564  -2.091   1.317  0.00  0.00    +0.018 A 
ATOM     15  C   UNL     1      -1.258  -0.084   2.631  0.00  0.00    +0.047 C 
BRANCH  12  16
ATOM     16  O   UNL     1       0.092   1.423   0.664  0.00  0.00    -0.491 OA
BRANCH  16  17
ATOM     17  C   UNL     1       0.783   2.180  -0.332  0.00  0.00    +0.232 C 
BRANCH  17  18
ATOM     18  C   UNL     1       0.674   3.671  -0.005  0.00  0.00    +0.020 C 
ATOM     19  C   UNL     1       1.408   3.961   1.305  0.00  0.00    +0.010 C 
ATOM     20  C   UNL     1       1.304   4.488  -1.135  0.00  0.00    +0.010 C 
ENDBRANCH  17  18
ENDBRANCH  16  17
ENDBRANCH  12  16
ENDBRANCH   3   9
BRANCH   1  24
ATOM     21  C   UNL     1      -0.140  -8.375   3.164  0.00  0.00    -0.048 A 
ATOM     22  C   UNL     1      -0.857  -8.317   1.983  0.00  0.00    +0.004 A 
ATOM     23  C   UNL     1      -0.336  -7.651   0.890  0.00  0.00    +0.006 A 
ATOM     24  C   UNL     1       0.902  -7.043   0.977  0.00  0.00    -0.022 A 
ATOM     25  C   UNL     1       1.622  -7.106   2.155  0.00  0.00    +0.006 A 
ATOM     26  C   UNL     1       1.098  -7.767   3.251  0.00  0.00    +0.004 A 
BRANCH  21  28
ATOM     27  C   UNL     1      -0.271 -10.567   4.316  0.00  0.00    +0.009 C 
ATOM     28  C   UNL     1      -0.708  -9.101   4.356  0.00  0.00    +0.032 C 
ENDBRANCH  21  28
ENDBRANCH   1  24
BRANCH   3  29
ATOM     29  O   UNL     1      -1.074  -4.823   0.061  0.00  0.00    -0.506 OA
ATOM     30  H   UNL     1      -1.834  -4.181   0.165  0.00  0.00    +0.292 HD
ENDBRANCH   3  29
BRANCH   8  31
ATOM     31  C   UNL     1       3.551  -7.864  -0.483  0.00  0.00    +0.090 C 
BRANCH  31  32
ATOM     32  C   UNL     1       3.836  -8.477   0.889  0.00  0.00    -0.060 C 
BRANCH  32  33
ATOM     33  N   UNL     1       4.458  -9.804   0.699  0.00  0.00    +0.380 N 
ATOM     34  H   UNL     1       3.877 -10.356   0.058  0.00  0.00    -0.082 HD
BRANCH  33  35
ATOM     35  C   UNL     1       5.806  -9.650   0.113  0.00  0.00    -0.082 C 
ATOM     36  C   UNL     1       6.719  -8.873   1.064  0.00  0.00    -0.017 C 
ENDBRANCH  33  35
BRANCH  33  37
ATOM     37  C   UNL     1       4.548 -10.511   1.994  0.00  0.00    -0.082 C 
ATOM     38  C   UNL     1       4.855 -11.986   1.729  0.00  0.00    -0.017 C 
ENDBRANCH  33  37
ENDBRANCH  32  33
ENDBRANCH  31  32
ENDBRANCH   8  31
TORSDOF 12
