REMARK  Name = ZINC59890938
REMARK  10 active torsions:
REMARK  status: ('A' for Active; 'I' for Inactive)
REMARK    1  A    between atoms: C_1  and  C_2
REMARK    2  A    between atoms: C_7  and  C_9
REMARK    3  A    between atoms: C_7  and  N_30
REMARK    4  A    between atoms: C_9  and  N_10
REMARK    5  A    between atoms: C_11  and  C_13
REMARK    6  A    between atoms: C_16  and  N_19
REMARK    7  A    between atoms: N_19  and  S_20
REMARK    8  A    between atoms: S_20  and  C_23
REMARK    9  A    between atoms: N_30  and  C_31
REMARK   10  A    between atoms: N_30  and  C_32
REMARK                            x       y       z     vdW  Elec       q    Type
REMARK                         _______ _______ _______ _____ _____    ______ ____
ROOT
ATOM      1  C   UNL     1       1.300  -6.037   3.069  0.00  0.00    +0.037 A 
ATOM      2  C   UNL     1       0.839  -6.576   1.864  0.00  0.00    +0.015 A 
ATOM      3  C   UNL     1       0.749  -7.940   1.712  0.00  0.00    +0.025 A 
ATOM      4  C   UNL     1       1.116  -8.785   2.756  0.00  0.00    +0.048 A 
ATOM      5  C   UNL     1       1.575  -8.252   3.958  0.00  0.00    +0.025 A 
ATOM      6  C   UNL     1       1.673  -6.888   4.114  0.00  0.00    +0.015 A 
ENDROOT
BRANCH   1   8
ATOM      7  N   UNL     1       1.038  -3.756   2.228  0.00  0.00    -0.313 N 
ATOM      8  C   UNL     1       1.398  -4.575   3.236  0.00  0.00    +0.244 C 
ATOM      9  O   UNL     1       1.803  -4.108   4.283  0.00  0.00    -0.270 OA
ATOM     10  H   UNL     1       0.714  -4.128   1.393  0.00  0.00    +0.149 HD
BRANCH   7  11
ATOM     11  C   UNL     1       1.135  -2.304   2.393  0.00  0.00    +0.092 C 
BRANCH  11  17
ATOM     12  C   UNL     1       0.421   2.101   0.144  0.00  0.00    +0.007 C 
ATOM     13  C   UNL     1       0.467   0.585  -0.063  0.00  0.00    -0.015 C 
ATOM     14  C   UNL     1      -0.887   0.100  -0.584  0.00  0.00    +0.003 C 
ATOM     15  C   UNL     1      -0.840  -1.415  -0.790  0.00  0.00    -0.001 C 
ATOM     16  C   UNL     1      -0.530  -2.103   0.541  0.00  0.00    -0.010 C 
ATOM     17  C   UNL     1       0.825  -1.617   1.062  0.00  0.00    -0.050 C 
ATOM     18  C   UNL     1       0.778  -0.102   1.269  0.00  0.00    -0.007 C 
BRANCH  17  19
ATOM     19  N   UNL     1       1.871  -1.946   0.086  0.00  0.00    +0.381 N 
ATOM     20  C   UNL     1       3.187  -1.611   0.646  0.00  0.00    -0.096 C 
ATOM     21  C   UNL     1       1.821  -3.381  -0.221  0.00  0.00    -0.096 C 
ATOM     22  H   UNL     1       1.721  -1.416  -0.760  0.00  0.00    -0.082 HD
ENDBRANCH  17  19
ENDBRANCH  11  17
ENDBRANCH   7  11
ENDBRANCH   1   8
BRANCH   4  23
ATOM     23  N   UNL     1       1.023 -10.163   2.599  0.00  0.00    -0.216 N 
ATOM     24  H   UNL     1       0.233 -10.553   2.193  0.00  0.00    +0.174 HD
BRANCH  23  25
ATOM     25  S   UNL     1       2.262 -11.139   3.104  0.00  0.00    +0.072 S 
ATOM     26  O   UNL     1       2.539 -10.779   4.451  0.00  0.00    -0.150 OA
ATOM     27  O   UNL     1       1.915 -12.464   2.726  0.00  0.00    -0.150 OA
BRANCH  25  28
ATOM     28  C   UNL     1       3.686 -10.702   2.163  0.00  0.00    +0.109 A 
ATOM     29  C   UNL     1       3.884 -11.255   0.912  0.00  0.00    +0.031 A 
ATOM     30  C   UNL     1       5.000 -10.914   0.173  0.00  0.00    +0.040 A 
ATOM     31  C   UNL     1       5.921 -10.017   0.686  0.00  0.00    +0.124 A 
ATOM     32  C   UNL     1       5.723  -9.463   1.940  0.00  0.00    +0.040 A 
ATOM     33  C   UNL     1       4.603  -9.803   2.675  0.00  0.00    +0.031 A 
ATOM     34  F   UNL     1       7.013  -9.682  -0.035  0.00  0.00    -0.205 F 
ENDBRANCH  25  28
ENDBRANCH  23  25
ENDBRANCH   4  23
TORSDOF 7
