REMARK  Name = ZINC33362280
REMARK  5 active torsions:
REMARK  status: ('A' for Active; 'I' for Inactive)
REMARK    1  A    between atoms: C_3  and  O_14
REMARK    2  A    between atoms: C_6  and  C_7
REMARK    3  A    between atoms: N_8  and  N_9
REMARK    4  A    between atoms: O_14  and  C_15
REMARK    5  A    between atoms: C_15  and  C_16
REMARK                            x       y       z     vdW  Elec       q    Type
REMARK                         _______ _______ _______ _____ _____    ______ ____
ROOT
ATOM      1  C   UNL     1      -0.017   1.393   0.010  0.00  0.00    +0.013 A 
ATOM      2  C   UNL     1       1.169   2.096   0.002  0.00  0.00    +0.047 A 
ATOM      3  C   UNL     1       2.380   1.419  -0.013  0.00  0.00    +0.135 A 
ATOM      4  C   UNL     1       2.405   0.030  -0.021  0.00  0.00    +0.060 A 
ATOM      5  C   UNL     1       1.224  -0.682  -0.014  0.00  0.00    +0.028 A 
ATOM      6  C   UNL     1       0.002  -0.004   0.002  0.00  0.00    -0.004 A 
ATOM      7 BR   UNL     1       4.059  -0.886  -0.043  0.00  0.00    -0.046 Br
ENDROOT
BRANCH   6   8
ATOM      8  C   UNL     1      -1.263  -0.761   0.011  0.00  0.00    +0.140 C 
ATOM      9  N   UNL     1      -1.244  -2.058   0.003  0.00  0.00    -0.179 NA
BRANCH   9  10
ATOM     10  N   UNL     1      -2.446  -2.777   0.011  0.00  0.00    -0.249 N 
ATOM     11  C   UNL     1      -2.425  -4.147   0.004  0.00  0.00    +0.187 C 
ATOM     12  N   UNL     1      -3.569  -4.830   0.012  0.00  0.00    -0.370 N 
ATOM     13  N   UNL     1      -1.261  -4.795  -0.011  0.00  0.00    -0.370 N 
ATOM     14  H   UNL     1      -3.293  -2.305   0.022  0.00  0.00    +0.192 HD
ATOM     15  H   UNL     1      -4.416  -4.358   0.022  0.00  0.00    +0.159 HD
ATOM     16  H   UNL     1      -0.429  -4.297  -0.017  0.00  0.00    +0.159 HD
ATOM     17  H   UNL     1      -1.246  -5.765  -0.017  0.00  0.00    +0.159 HD
ATOM     18  H   UNL     1      -3.554  -5.800   0.006  0.00  0.00    +0.159 HD
ENDBRANCH   9  10
ENDBRANCH   6   8
BRANCH   3  19
ATOM     19  O   UNL     1       3.546   2.117  -0.020  0.00  0.00    -0.486 OA
BRANCH  19  20
ATOM     20  C   UNL     1       3.449   3.543  -0.012  0.00  0.00    +0.266 C 
BRANCH  20  21
ATOM     21  C   UNL     1       4.832   4.141  -0.022  0.00  0.00    +0.008 A 
ATOM     22  C   UNL     1       5.941   3.316  -0.043  0.00  0.00    +0.010 A 
ATOM     23  C   UNL     1       7.210   3.863  -0.052  0.00  0.00    +0.020 A 
ATOM     24  C   UNL     1       7.371   5.238  -0.041  0.00  0.00    +0.042 A 
ATOM     25  C   UNL     1       6.262   6.063  -0.020  0.00  0.00    +0.040 A 
ATOM     26  C   UNL     1       4.992   5.515  -0.016  0.00  0.00    +0.049 A 
ATOM     27 CL   UNL     1       3.599   6.550   0.003  0.00  0.00    -0.083 Cl
ATOM     28 CL   UNL     1       8.965   5.925  -0.052  0.00  0.00    -0.083 Cl
ENDBRANCH  20  21
ENDBRANCH  19  20
ENDBRANCH   3  19
TORSDOF 5
