REMARK  Name = ZINC11855652
REMARK  6 active torsions:
REMARK  status: ('A' for Active; 'I' for Inactive)
REMARK    1  A    between atoms: C_1  and  C_2
REMARK    2  A    between atoms: C_2  and  C_3
REMARK    3  A    between atoms: C_2  and  C_4
REMARK    4  A    between atoms: C_13  and  N_22
REMARK    5  A    between atoms: C_15  and  C_17
REMARK    6  A    between atoms: C_23  and  C_25
REMARK                            x       y       z     vdW  Elec       q    Type
REMARK                         _______ _______ _______ _____ _____    ______ ____
ROOT
ATOM      1  C   UNL     1       0.129  10.539   1.345  0.00  0.00    +0.053 A 
ATOM      2  C   UNL     1      -0.208  11.229   0.217  0.00  0.00    +0.093 A 
ATOM      3  C   UNL     1      -0.136  10.574  -1.026  0.00  0.00    +0.253 A 
ATOM      4  O   UNL     1      -0.429  11.160  -2.056  0.00  0.00    -0.268 OA
ATOM      5  N   UNL     1       0.271   9.287  -1.059  0.00  0.00    -0.291 N 
ATOM      6  H   UNL     1       0.332   8.817  -1.905  0.00  0.00    +0.172 HD
ATOM      7  C   UNL     1       0.590   8.650   0.100  0.00  0.00    +0.234 A 
ATOM      8  N   UNL     1       0.519   9.269   1.259  0.00  0.00    -0.217 NA
ATOM      9  N   UNL     1       1.000   7.332   0.058  0.00  0.00    -0.185 N 
ATOM     10  C   UNL     1       2.294   6.895   0.017  0.00  0.00    +0.132 A 
ATOM     11  C   UNL     1       2.270   5.539  -0.015  0.00  0.00    +0.074 A 
ATOM     12  C   UNL     1       0.919   5.131   0.007  0.00  0.00    +0.102 A 
ATOM     13  N   UNL     1       0.164   6.209   0.045  0.00  0.00    -0.162 NA
ENDROOT
BRANCH  12  14
ATOM     14  C   UNL     1       0.436   3.734  -0.015  0.00  0.00    +0.039 A 
ATOM     15  C   UNL     1      -0.851   3.266   0.004  0.00  0.00    +0.018 A 
ATOM     16  C   UNL     1      -1.061   1.905  -0.029  0.00  0.00    +0.008 A 
ATOM     17  C   UNL     1       0.009   1.071  -0.068  0.00  0.00    +0.046 A 
ATOM     18  S   UNL     1       1.377   2.218  -0.073  0.00  0.00    -0.095 S 
ENDBRANCH  12  14
BRANCH  10  19
ATOM     19  N   UNL     1       3.433   7.697   0.010  0.00  0.00    -0.269 N 
ATOM     20  C   UNL     1       4.655   7.134   0.096  0.00  0.00    +0.230 C 
ATOM     21  O   UNL     1       4.762   5.929   0.179  0.00  0.00    -0.274 OA
ATOM     22  H   UNL     1       3.347   8.661  -0.057  0.00  0.00    +0.156 HD
BRANCH  20  23
ATOM     23  C   UNL     1       5.887   8.002   0.088  0.00  0.00    +0.142 C 
ATOM     24  C   UNL     1       5.927   8.795  -1.190  0.00  0.00    +0.011 A 
ATOM     25  C   UNL     1       5.117   9.909  -1.323  0.00  0.00    +0.008 A 
ATOM     26  C   UNL     1       5.139  10.650  -2.489  0.00  0.00    +0.001 A 
ATOM     27  C   UNL     1       5.971  10.279  -3.529  0.00  0.00    +0.004 A 
ATOM     28  C   UNL     1       6.781   9.172  -3.401  0.00  0.00    +0.046 A 
ATOM     29  C   UNL     1       6.763   8.424  -2.230  0.00  0.00    +0.133 A 
ATOM     30  O   UNL     1       7.566   7.338  -2.125  0.00  0.00    -0.455 OA
ATOM     31  C   UNL     1       7.885   6.845  -0.904  0.00  0.00    +0.133 A 
ATOM     32  C   UNL     1       7.108   7.131   0.206  0.00  0.00    +0.011 A 
ATOM     33  C   UNL     1       7.454   6.613   1.442  0.00  0.00    +0.008 A 
ATOM     34  C   UNL     1       8.571   5.811   1.572  0.00  0.00    +0.001 A 
ATOM     35  C   UNL     1       9.350   5.524   0.465  0.00  0.00    +0.004 A 
ATOM     36  C   UNL     1       9.009   6.038  -0.770  0.00  0.00    +0.046 A 
ENDBRANCH  20  23
ENDBRANCH  10  19
BRANCH   1  38
ATOM     37  C   UNL     1      -0.923  10.464   3.589  0.00  0.00    +0.014 C 
ATOM     38  C   UNL     1       0.060  11.216   2.690  0.00  0.00    +0.032 C 
ATOM     39  C   UNL     1       1.448  11.210   3.335  0.00  0.00    +0.014 C 
ENDBRANCH   1  38
TORSDOF 4
