REMARK  Name = ZINC09129941
REMARK  9 active torsions:
REMARK  status: ('A' for Active; 'I' for Inactive)
REMARK    1  A    between atoms: C_1  and  C_2
REMARK    2  A    between atoms: C_2  and  C_4
REMARK    3  A    between atoms: C_2  and  C_5
REMARK    4  A    between atoms: C_8  and  C_21
REMARK    5  A    between atoms: N_23  and  C_24
REMARK    6  A    between atoms: C_26  and  O_32
REMARK    7  A    between atoms: C_29  and  O_30
REMARK    8  A    between atoms: O_30  and  C_31
REMARK    9  A    between atoms: O_32  and  C_33
REMARK                            x       y       z     vdW  Elec       q    Type
REMARK                         _______ _______ _______ _____ _____    ______ ____
ROOT
ATOM      1  C   UNL     1       2.651   5.226  -0.455  0.00  0.00    -0.067 C 
ATOM      2  C   UNL     1       2.282   5.647   0.991  0.00  0.00    -0.003 C 
ATOM      3  C   UNL     1       1.407   4.469   1.483  0.00  0.00    +0.076 C 
ATOM      4  C   UNL     1       0.889   3.804   0.202  0.00  0.00    +0.049 C 
ATOM      5  C   UNL     1       1.308   2.360   0.136  0.00  0.00    -0.027 A 
ATOM      6  C   UNL     1       2.533   1.731   0.116  0.00  0.00    +0.019 A 
ATOM      7  C   UNL     1       2.601   0.350   0.049  0.00  0.00    +0.018 A 
ATOM      8  C   UNL     1       1.436  -0.395   0.003  0.00  0.00    +0.017 A 
ATOM      9  C   UNL     1       0.207   0.231   0.022  0.00  0.00    +0.024 A 
ATOM     10  C   UNL     1       0.130   1.621   0.089  0.00  0.00    +0.036 A 
ATOM     11  N   UNL     1      -0.976   2.472   0.125  0.00  0.00    -0.286 N 
ATOM     12  C   UNL     1      -0.618   3.768   0.185  0.00  0.00    +0.211 C 
ATOM     13  O   UNL     1      -1.364   4.724   0.223  0.00  0.00    -0.277 OA
ATOM     14 BR   UNL     1       4.282  -0.516   0.022  0.00  0.00    -0.050 Br
ATOM     15  H   UNL     1      -1.896   2.166   0.107  0.00  0.00    +0.155 HD
ATOM     16  N   UNL     1       1.423   4.561  -0.920  0.00  0.00    +0.394 N 
ATOM     17  H   UNL     1       1.641   3.929  -1.699  0.00  0.00    -0.083 HD
ATOM     18  H   UNL     1       0.740   5.262  -1.229  0.00  0.00    -0.083 HD
ENDROOT
BRANCH   3  19
ATOM     19  C   UNL     1       2.237   3.497   2.280  0.00  0.00    +0.220 C 
ATOM     20  O   UNL     1       3.445   3.501   2.174  0.00  0.00    -0.275 OA
ATOM     21  N   UNL     1       1.636   2.622   3.112  0.00  0.00    -0.282 N 
ATOM     22  H   UNL     1       0.668   2.562   3.136  0.00  0.00    +0.155 HD
BRANCH  21  23
ATOM     23  C   UNL     1       2.410   1.800   3.941  0.00  0.00    +0.079 A 
ATOM     24  C   UNL     1       3.724   2.139   4.226  0.00  0.00    +0.072 A 
ATOM     25  C   UNL     1       4.488   1.323   5.046  0.00  0.00    +0.122 A 
ATOM     26  C   UNL     1       3.938   0.169   5.583  0.00  0.00    +0.049 A 
ATOM     27  C   UNL     1       2.628  -0.172   5.301  0.00  0.00    +0.051 A 
ATOM     28  C   UNL     1       1.859   0.642   4.487  0.00  0.00    +0.141 A 
BRANCH  28  29
ATOM     29  O   UNL     1       0.568   0.309   4.214  0.00  0.00    -0.493 OA
ATOM     30  C   UNL     1       0.069  -0.891   4.807  0.00  0.00    +0.277 C 
ENDBRANCH  28  29
BRANCH  25  31
ATOM     31  O   UNL     1       5.777   1.655   5.325  0.00  0.00    -0.495 OA
ATOM     32  C   UNL     1       6.505   0.769   6.178  0.00  0.00    +0.277 C 
ENDBRANCH  25  31
ENDBRANCH  21  23
ENDBRANCH   3  19
BRANCH   1  34
ATOM     33  C   UNL     1       3.225   6.018  -2.753  0.00  0.00    +0.005 C 
ATOM     34  C   UNL     1       2.979   6.453  -1.307  0.00  0.00    -0.031 C 
ATOM     35  C   UNL     1       1.805   7.434  -1.262  0.00  0.00    +0.005 C 
ENDBRANCH   1  34
TORSDOF 5
