REMARK  Name = ZINC33051008
REMARK  9 active torsions:
REMARK  status: ('A' for Active; 'I' for Inactive)
REMARK    1  A    between atoms: C_1  and  C_2
REMARK    2  A    between atoms: C_2  and  C_3
REMARK    3  A    between atoms: N_6  and  C_8
REMARK    4  A    between atoms: C_19  and  C_32
REMARK    5  A    between atoms: N_25  and  C_26
REMARK    6  A    between atoms: C_26  and  C_27
REMARK    7  A    between atoms: C_27  and  O_29
REMARK    8  A    between atoms: O_29  and  C_30
REMARK    9  A    between atoms: C_30  and  C_31
REMARK                            x       y       z     vdW  Elec       q    Type
REMARK                         _______ _______ _______ _____ _____    ______ ____
ROOT
ATOM      1  C   UNL     1      -4.505   5.615   0.748  0.00  0.00    +0.070 A 
ATOM      2  C   UNL     1      -4.941   4.638  -0.141  0.00  0.00    +0.036 A 
ATOM      3  C   UNL     1      -3.862   3.868  -0.468  0.00  0.00    +0.146 A 
ATOM      4  N   UNL     1      -2.784   4.364   0.168  0.00  0.00    -0.215 N 
ATOM      5  N   UNL     1      -3.217   5.455   0.941  0.00  0.00    -0.169 NA
ATOM      6  N   UNL     1      -4.015   2.736  -1.276  0.00  0.00    -0.303 N 
ATOM      7  C   UNL     1      -3.283   2.304  -2.329  0.00  0.00    +0.093 A 
ATOM      8  C   UNL     1      -3.905   1.223  -2.852  0.00  0.00    +0.020 A 
ATOM      9  C   UNL     1      -5.053   0.972  -2.068  0.00  0.00    +0.025 A 
ATOM     10  C   UNL     1      -5.081   1.891  -1.090  0.00  0.00    +0.050 A 
ATOM     11  C   UNL     1      -6.058   2.035   0.040  0.00  0.00    +0.155 C 
ATOM     12  N   UNL     1      -6.947   3.205  -0.155  0.00  0.00    -0.269 N 
ATOM     13  C   UNL     1      -6.311   4.422  -0.713  0.00  0.00    +0.151 C 
ATOM     14  C   UNL     1      -8.257   3.164   0.158  0.00  0.00    +0.304 C 
ATOM     15  O   UNL     1      -8.742   2.147   0.613  0.00  0.00    -0.253 OA
ATOM     16  N   UNL     1      -9.030   4.252  -0.035  0.00  0.00    -0.289 N 
ATOM     17  H   UNL     1      -8.591   5.172  -0.447  0.00  0.00    +0.151 HD
ENDROOT
BRANCH  11  18
ATOM     18  C   UNL     1      -5.298   2.205   1.329  0.00  0.00    -0.021 A 
ATOM     19  C   UNL     1      -4.142   1.478   1.550  0.00  0.00    +0.008 A 
ATOM     20  C   UNL     1      -3.440   1.637   2.730  0.00  0.00    +0.038 A 
ATOM     21  C   UNL     1      -3.901   2.514   3.696  0.00  0.00    +0.123 A 
ATOM     22  C   UNL     1      -5.062   3.237   3.477  0.00  0.00    +0.038 A 
ATOM     23  C   UNL     1      -5.759   3.081   2.293  0.00  0.00    +0.008 A 
ATOM     24  F   UNL     1      -3.220   2.665   4.853  0.00  0.00    -0.205 F 
ENDBRANCH  11  18
BRANCH   4  25
ATOM     25  C   UNL     1      -1.471   3.884   0.071  0.00  0.00    +0.068 A 
ATOM     26  C   UNL     1      -1.236   2.523  -0.074  0.00  0.00    +0.028 A 
ATOM     27  C   UNL     1       0.060   2.053  -0.163  0.00  0.00    +0.002 A 
ATOM     28  C   UNL     1       1.122   2.938  -0.119  0.00  0.00    +0.000 A 
ATOM     29  C   UNL     1       0.891   4.294   0.019  0.00  0.00    +0.002 A 
ATOM     30  C   UNL     1      -0.402   4.770   0.114  0.00  0.00    +0.028 A 
ENDBRANCH   4  25
BRANCH   1  32
ATOM     31  C   UNL     1      -5.381   7.921   0.491  0.00  0.00    +0.010 C 
ATOM     32  C   UNL     1      -5.365   6.678   1.383  0.00  0.00    +0.054 C 
ENDBRANCH   1  32
BRANCH  16  33
ATOM     33  C   UNL     1     -10.454   4.208   0.305  0.00  0.00    +0.226 C 
BRANCH  33  34
ATOM     34  C   UNL     1     -11.085   5.541  -0.003  0.00  0.00    +0.324 C 
ATOM     35  O   UNL     1     -10.415   6.436  -0.460  0.00  0.00    -0.249 OA
BRANCH  34  36
ATOM     36  O   UNL     1     -12.393   5.734   0.229  0.00  0.00    -0.464 OA
BRANCH  36  37
ATOM     37  C   UNL     1     -12.934   7.043  -0.091  0.00  0.00    +0.229 C 
ATOM     38  C   UNL     1     -14.427   7.073   0.239  0.00  0.00    +0.048 C 
ENDBRANCH  36  37
ENDBRANCH  34  36
ENDBRANCH  33  34
ENDBRANCH  16  33
TORSDOF 7
