REMARK  Name = ZINC44324450
REMARK  11 active torsions:
REMARK  status: ('A' for Active; 'I' for Inactive)
REMARK    1  A    between atoms: C_1  and  O_2
REMARK    2  A    between atoms: O_2  and  C_3
REMARK    3  A    between atoms: C_9  and  C_15
REMARK    4  A    between atoms: C_12  and  O_13
REMARK    5  A    between atoms: O_13  and  C_14
REMARK    6  A    between atoms: C_15  and  CA_16
REMARK    7  A    between atoms: CA_16  and  C_18
REMARK    8  A    between atoms: CA_16  and  N_21
REMARK    9  A    between atoms: C_22  and  O_24
REMARK   10  A    between atoms: O_24  and  C_25
REMARK   11  A    between atoms: C_25  and  C_26
REMARK                            x       y       z     vdW  Elec       q    Type
REMARK                         _______ _______ _______ _____ _____    ______ ____
ROOT
ATOM      1  CA  UNL     1      -1.990  -1.762   0.671  0.00  0.00    +0.193 C 
ENDROOT
BRANCH   1   2
ATOM      2  N   UNL     1      -1.923  -0.792  -0.424  0.00  0.00    -0.267 N 
ATOM      3  C   UNL     1      -3.004  -0.574  -1.199  0.00  0.00    +0.401 C 
ATOM      4  O   UNL     1      -4.035  -1.183  -0.989  0.00  0.00    -0.226 OA
ATOM      5  H   UNL     1      -1.100  -0.306  -0.592  0.00  0.00    +0.153 HD
BRANCH   3   6
ATOM      6  O   UNL     1      -2.942   0.318  -2.206  0.00  0.00    -0.449 OA
BRANCH   6   7
ATOM      7  C   UNL     1      -4.126   0.498  -2.986  0.00  0.00    +0.246 C 
BRANCH   7   8
ATOM      8  C   UNL     1      -3.865   1.542  -4.074  0.00  0.00    +0.088 C 
ATOM      9  C   UNL     1      -3.683   2.905  -3.452  0.00  0.00    -0.029 A 
ATOM     10  C   UNL     1      -2.761   3.396  -2.552  0.00  0.00    +0.005 A 
ATOM     11  C   UNL     1      -2.828   4.716  -2.143  0.00  0.00    +0.000 A 
ATOM     12  C   UNL     1      -3.818   5.546  -2.636  0.00  0.00    +0.001 A 
ATOM     13  C   UNL     1      -4.744   5.063  -3.538  0.00  0.00    +0.009 A 
ATOM     14  C   UNL     1      -4.683   3.733  -3.955  0.00  0.00    -0.014 A 
ATOM     15  C   UNL     1      -5.534   2.964  -4.897  0.00  0.00    -0.014 A 
ATOM     16  C   UNL     1      -5.064   1.656  -4.983  0.00  0.00    -0.029 A 
ATOM     17  C   UNL     1      -5.696   0.743  -5.801  0.00  0.00    +0.005 A 
ATOM     18  C   UNL     1      -6.800   1.124  -6.542  0.00  0.00    +0.000 A 
ATOM     19  C   UNL     1      -7.274   2.422  -6.463  0.00  0.00    +0.001 A 
ATOM     20  C   UNL     1      -6.649   3.341  -5.647  0.00  0.00    +0.009 A 
ENDBRANCH   7   8
ENDBRANCH   6   7
ENDBRANCH   3   6
ENDBRANCH   1   2
BRANCH   1  21
ATOM     21  C   UNL     1      -2.585  -1.104   1.890  0.00  0.00    +0.376 C 
ATOM     22  O   UNL     1      -2.426   0.090   2.076  0.00  0.00    -0.244 OA
ATOM     23  OXT UNL     1      -3.225  -1.766   2.689  0.00  0.00    -0.244 OA
ENDBRANCH   1  21
BRANCH   1  24
ATOM     24  C   UNL     1      -0.581  -2.261   0.998  0.00  0.00    +0.070 C 
BRANCH  24  31
ATOM     25  C   UNL     1      -1.325  -5.013   0.496  0.00  0.00    +0.128 A 
ATOM     26  C   UNL     1      -1.683  -6.310   0.261  0.00  0.00    +0.046 A 
ATOM     27  C   UNL     1      -1.170  -7.007  -0.829  0.00  0.00    +0.004 A 
ATOM     28  C   UNL     1      -0.297  -6.417  -1.692  0.00  0.00    +0.012 A 
ATOM     29  C   UNL     1       0.096  -5.085  -1.485  0.00  0.00    +0.028 A 
ATOM     30  C   UNL     1      -0.427  -4.370  -0.380  0.00  0.00    +0.031 A 
ATOM     31  C   UNL     1      -0.038  -3.035  -0.176  0.00  0.00    -0.034 A 
ATOM     32  C   UNL     1       0.831  -2.444  -1.041  0.00  0.00    +0.008 A 
ATOM     33  C   UNL     1       1.344  -3.142  -2.132  0.00  0.00    +0.046 A 
ATOM     34  C   UNL     1       0.998  -4.444  -2.358  0.00  0.00    +0.128 A 
BRANCH  25  36
ATOM     35  C   UNL     1      -2.737  -5.063   2.407  0.00  0.00    +0.277 C 
ATOM     36  O   UNL     1      -1.834  -4.345   1.564  0.00  0.00    -0.494 OA
ENDBRANCH  25  36
BRANCH  34  37
ATOM     37  O   UNL     1       1.507  -5.111  -3.426  0.00  0.00    -0.495 OA
ATOM     38  C   UNL     1       2.415  -4.394  -4.266  0.00  0.00    +0.277 C 
ENDBRANCH  34  37
ENDBRANCH  24  31
ENDBRANCH   1  24
TORSDOF 9
