REMARK  Name = ZINC11791350
REMARK  9 active torsions:
REMARK  status: ('A' for Active; 'I' for Inactive)
REMARK    1  A    between atoms: C_3  and  N_20
REMARK    2  A    between atoms: C_6  and  C_7
REMARK    3  A    between atoms: N_9  and  C_10
REMARK    4  A    between atoms: C_10  and  C_11
REMARK    5  A    between atoms: C_23  and  N_68
REMARK    6  A    between atoms: C_26  and  C_27
REMARK    7  A    between atoms: C_26  and  N_68
REMARK    8  A    between atoms: C_27  and  C_28
REMARK    9  A    between atoms: C_28  and  N_29
REMARK                            x       y       z     vdW  Elec       q    Type
REMARK                         _______ _______ _______ _____ _____    ______ ____
ROOT
ATOM      1  C   UNL     1     -12.411  -0.019   4.564  0.00  0.00    +0.015 A 
ATOM      2  C   UNL     1     -11.109   0.382   4.372  0.00  0.00    +0.024 A 
ATOM      3  C   UNL     1     -10.077  -0.551   4.424  0.00  0.00    +0.030 A 
ATOM      4  C   UNL     1     -10.359  -1.893   4.666  0.00  0.00    +0.024 A 
ATOM      5  C   UNL     1     -11.659  -2.299   4.865  0.00  0.00    +0.015 A 
ATOM      6  C   UNL     1     -12.697  -1.365   4.812  0.00  0.00    +0.037 A 
ENDROOT
BRANCH   3   7
ATOM      7  N   UNL     1      -8.762  -0.143   4.229  0.00  0.00    -0.330 N 
ATOM      8  C   UNL     1      -7.838  -1.280   4.326  0.00  0.00    +0.103 C 
ATOM      9  C   UNL     1      -6.395  -0.775   4.252  0.00  0.00    +0.003 C 
ATOM     10  C   UNL     1      -6.186  -0.035   2.928  0.00  0.00    -0.069 C 
ATOM     11  C   UNL     1      -7.193   1.115   2.831  0.00  0.00    +0.003 C 
ATOM     12  C   UNL     1      -8.612   0.555   2.946  0.00  0.00    +0.103 C 
BRANCH  10  13
ATOM     13  N   UNL     1      -4.814   0.506   2.886  0.00  0.00    +0.381 N 
ATOM     14  H   UNL     1      -4.179  -0.146   3.361  0.00  0.00    -0.086 HD
ATOM     15  H   UNL     1      -4.793   1.414   3.364  0.00  0.00    -0.086 HD
BRANCH  13  16
ATOM     16  C   UNL     1      -4.376   0.681   1.488  0.00  0.00    -0.081 C 
BRANCH  16  17
ATOM     17  C   UNL     1      -2.952   1.242   1.476  0.00  0.00    -0.000 C 
BRANCH  17  18
ATOM     18  C   UNL     1      -2.490   1.427   0.029  0.00  0.00    +0.106 C 
BRANCH  18  19
ATOM     19  N   UNL     1      -1.127   1.963   0.018  0.00  0.00    -0.302 N 
ATOM     20  C   UNL     1      -0.800   3.394   0.017  0.00  0.00    +0.108 C 
ATOM     21  C   UNL     1       0.685   3.479   0.433  0.00  0.00    +0.028 C 
ATOM     22  C   UNL     1       1.214   2.092   0.002  0.00  0.00    +0.097 C 
ATOM     23  C   UNL     1      -0.014   1.209   0.009  0.00  0.00    +0.216 C 
ATOM     24  O   UNL     1       0.002  -0.004   0.002  0.00  0.00    -0.276 OA
ENDBRANCH  18  19
ENDBRANCH  17  18
ENDBRANCH  16  17
ENDBRANCH  13  16
ENDBRANCH  10  13
ENDBRANCH   3   7
BRANCH   6  25
ATOM     25  C   UNL     1     -14.092  -1.798   5.019  0.00  0.00    +0.244 C 
ATOM     26  O   UNL     1     -14.994  -0.985   4.973  0.00  0.00    -0.270 OA
ATOM     27  N   UNL     1     -14.366  -3.096   5.258  0.00  0.00    -0.307 N 
ATOM     28  H   UNL     1     -13.646  -3.745   5.295  0.00  0.00    +0.149 HD
BRANCH  27  29
ATOM     29  C   UNL     1     -15.752  -3.526   5.463  0.00  0.00    +0.140 C 
BRANCH  29  30
ATOM     30  C   UNL     1     -15.785  -5.012   5.710  0.00  0.00    -0.027 A 
ATOM     31  C   UNL     1     -15.920  -5.885   4.646  0.00  0.00    +0.009 A 
ATOM     32  C   UNL     1     -15.945  -7.250   4.867  0.00  0.00    +0.050 A 
ATOM     33  C   UNL     1     -15.847  -7.745   6.157  0.00  0.00    +0.166 A 
ATOM     34  C   UNL     1     -15.717  -6.865   7.229  0.00  0.00    +0.167 A 
ATOM     35  C   UNL     1     -15.686  -5.500   7.000  0.00  0.00    +0.054 A 
ATOM     36  O   UNL     1     -15.640  -7.591   8.383  0.00  0.00    -0.453 OA
ATOM     37  C   UNL     1     -16.134  -8.901   8.046  0.00  0.00    +0.466 C 
ATOM     38  O   UNL     1     -15.852  -9.022   6.639  0.00  0.00    -0.453 OA
ENDBRANCH  29  30
ENDBRANCH  27  29
ENDBRANCH   6  25
TORSDOF 9
