REMARK  Name = ZINC13983592
REMARK  13 active torsions:
REMARK  status: ('A' for Active; 'I' for Inactive)
REMARK    1  A    between atoms: C_1  and  C_2
REMARK    2  A    between atoms: C_2  and  C_3
REMARK    3  A    between atoms: C_3  and  C_5
REMARK    4  A    between atoms: C_3  and  C_6
REMARK    5  A    between atoms: C_9  and  O_12
REMARK    6  A    between atoms: O_12  and  C_13
REMARK    7  A    between atoms: C_13  and  C_14
REMARK    8  A    between atoms: N_16  and  N_17
REMARK    9  A    between atoms: N_17  and  C_18
REMARK   10  A    between atoms: C_18  and  N_20
REMARK   11  A    between atoms: C_21  and  C_23
REMARK   12  A    between atoms: C_26  and  O_30
REMARK   13  A    between atoms: O_30  and  C_31
REMARK                            x       y       z     vdW  Elec       q    Type
REMARK                         _______ _______ _______ _____ _____    ______ ____
ROOT
ATOM      1  N   UNL     1       3.478   1.933  -0.021  0.00  0.00    -0.245 N 
ATOM      2  H   UNL     1       4.324   1.459  -0.031  0.00  0.00    +0.172 HD
ENDROOT
BRANCH   1   5
ATOM      3  C   UNL     1       4.617   4.023  -0.020  0.00  0.00    +0.267 C 
ATOM      4  O   UNL     1       5.675   3.431  -0.034  0.00  0.00    -0.271 OA
ATOM      5  N   UNL     1       3.459   3.334  -0.013  0.00  0.00    -0.232 N 
ATOM      6  H   UNL     1       2.612   3.807  -0.002  0.00  0.00    +0.173 HD
BRANCH   3   7
ATOM      7  C   UNL     1       4.596   5.530  -0.012  0.00  0.00    +0.326 C 
BRANCH   7   8
ATOM      8  O   UNL     1       5.937   6.025  -0.022  0.00  0.00    -0.483 OA
BRANCH   8  12
ATOM      9  C   UNL     1       6.422  10.122  -0.005  0.00  0.00    -0.044 A 
ATOM     10  C   UNL     1       7.530   9.296  -0.020  0.00  0.00    +0.007 A 
ATOM     11  C   UNL     1       7.370   7.923  -0.026  0.00  0.00    +0.046 A 
ATOM     12  C   UNL     1       6.096   7.374  -0.017  0.00  0.00    +0.121 A 
ATOM     13  C   UNL     1       4.986   8.206  -0.007  0.00  0.00    +0.046 A 
ATOM     14  C   UNL     1       5.151   9.577   0.005  0.00  0.00    +0.007 A 
BRANCH   9  15
ATOM     15  C   UNL     1       6.599  11.618   0.002  0.00  0.00    +0.016 C 
ATOM     16  C   UNL     1       5.931  12.216  -1.238  0.00  0.00    +0.012 C 
BRANCH  15  18
ATOM     17  C   UNL     1       6.242  13.704   1.330  0.00  0.00    +0.004 C 
ATOM     18  C   UNL     1       5.955  12.203   1.260  0.00  0.00    +0.004 C 
ENDBRANCH  15  18
ENDBRANCH   9  15
ENDBRANCH   8  12
ENDBRANCH   7   8
ENDBRANCH   3   7
ENDBRANCH   1   5
BRANCH   1  19
ATOM     19  C   UNL     1       2.320   1.243  -0.013  0.00  0.00    +0.153 C 
ATOM     20  S   UNL     1       2.343  -0.469  -0.023  0.00  0.00    -0.017 S 
BRANCH  19  21
ATOM     21  N   UNL     1       1.143   1.901   0.001  0.00  0.00    -0.263 N 
ATOM     22  C   UNL     1      -0.014   1.211   0.009  0.00  0.00    +0.250 C 
ATOM     23  O   UNL     1       0.002  -0.004   0.002  0.00  0.00    -0.270 OA
ATOM     24  H   UNL     1       1.130   2.871   0.007  0.00  0.00    +0.157 HD
BRANCH  22  25
ATOM     25  C   UNL     1      -1.302   1.931   0.019  0.00  0.00    +0.038 A 
ATOM     26  C   UNL     1      -1.323   3.329   0.032  0.00  0.00    +0.017 A 
ATOM     27  C   UNL     1      -2.526   3.998   0.035  0.00  0.00    +0.047 A 
ATOM     28  C   UNL     1      -3.720   3.285   0.037  0.00  0.00    +0.134 A 
ATOM     29  C   UNL     1      -3.704   1.895   0.030  0.00  0.00    +0.060 A 
ATOM     30  C   UNL     1      -2.504   1.218   0.021  0.00  0.00    +0.032 A 
ATOM     31 BR   UNL     1      -5.331   0.932   0.032  0.00  0.00    -0.046 Br
BRANCH  28  32
ATOM     32  O   UNL     1      -4.904   3.949   0.046  0.00  0.00    -0.494 OA
ATOM     33  C   UNL     1      -4.848   5.376   0.053  0.00  0.00    +0.277 C 
ENDBRANCH  28  32
ENDBRANCH  22  25
ENDBRANCH  19  21
ENDBRANCH   1  19
TORSDOF 10
