REMARK  Name = ZINC40548388
REMARK  6 active torsions:
REMARK  status: ('A' for Active; 'I' for Inactive)
REMARK    1  A    between atoms: C_1  and  C_2
REMARK    2  A    between atoms: C_4  and  C_35
REMARK    3  A    between atoms: C_5  and  O_34
REMARK    4  A    between atoms: C_6  and  C_8
REMARK    5  A    between atoms: N_16  and  C_26
REMARK    6  A    between atoms: C_17  and  C_19
REMARK                            x       y       z     vdW  Elec       q    Type
REMARK                         _______ _______ _______ _____ _____    ______ ____
ROOT
ATOM      1  C   UNL     1      -0.206  -3.111   2.774  0.00  0.00    +0.102 A 
ATOM      2  C   UNL     1       0.030  -2.391   3.950  0.00  0.00    +0.035 A 
ATOM      3  C   UNL     1       0.079  -3.329   4.963  0.00  0.00    +0.126 A 
ATOM      4  N   UNL     1      -0.124  -4.542   4.367  0.00  0.00    -0.272 N 
ATOM      5  H   UNL     1      -0.144  -5.394   4.830  0.00  0.00    +0.189 HD
ATOM      6  N   UNL     1      -0.291  -4.385   3.102  0.00  0.00    -0.173 NA
ATOM      7  C   UNL     1       0.326  -2.635   6.231  0.00  0.00    +0.266 C 
ATOM      8  O   UNL     1       0.424  -3.180   7.314  0.00  0.00    -0.268 OA
ATOM      9  N   UNL     1       0.429  -1.309   6.027  0.00  0.00    -0.280 N 
ATOM     10  C   UNL     1       0.253  -1.049   4.593  0.00  0.00    +0.142 C 
ENDROOT
BRANCH   1  16
ATOM     11  C   UNL     1       1.437  -0.058  -0.818  0.00  0.00    +0.044 C 
ATOM     12  C   UNL     1       0.445  -1.077  -0.321  0.00  0.00    -0.049 A 
ATOM     13  C   UNL     1      -0.595  -1.483  -1.139  0.00  0.00    +0.010 A 
ATOM     14  C   UNL     1      -1.510  -2.417  -0.692  0.00  0.00    -0.008 A 
ATOM     15  C   UNL     1      -1.391  -2.952   0.581  0.00  0.00    +0.129 A 
ATOM     16  C   UNL     1      -0.341  -2.544   1.409  0.00  0.00    +0.044 A 
ATOM     17  C   UNL     1       0.579  -1.607   0.947  0.00  0.00    +0.017 A 
ATOM     18  C   UNL     1      -2.640  -2.854  -1.589  0.00  0.00    +0.047 C 
BRANCH  15  19
ATOM     19  O   UNL     1      -2.290  -3.869   1.022  0.00  0.00    -0.506 OA
ATOM     20  H   UNL     1      -2.045  -4.785   0.829  0.00  0.00    +0.292 HD
ENDBRANCH  15  19
ENDBRANCH   1  16
BRANCH  10  21
ATOM     21  C   UNL     1      -0.944  -0.162   4.369  0.00  0.00    -0.022 A 
ATOM     22  C   UNL     1      -2.114  -0.390   5.069  0.00  0.00    +0.007 A 
ATOM     23  C   UNL     1      -3.212   0.424   4.864  0.00  0.00    +0.015 A 
ATOM     24  C   UNL     1      -3.141   1.467   3.958  0.00  0.00    +0.018 A 
ATOM     25  C   UNL     1      -1.970   1.695   3.258  0.00  0.00    +0.015 A 
ATOM     26  C   UNL     1      -0.871   0.884   3.467  0.00  0.00    +0.007 A 
ATOM     27 BR   UNL     1      -4.643   2.580   3.677  0.00  0.00    -0.050 Br
ENDBRANCH  10  21
BRANCH   9  28
ATOM     28  C   UNL     1       0.674  -0.298   7.059  0.00  0.00    +0.100 C 
ATOM     29  C   UNL     1      -0.453  -0.352   8.105  0.00  0.00    +0.047 C 
ATOM     30  C   UNL     1      -0.014   0.494   9.334  0.00  0.00    +0.168 C 
ATOM     31  S   UNL     1       1.761   0.015   9.457  0.00  0.00    -0.029 S 
ATOM     32  O   UNL     1       1.882  -1.084  10.349  0.00  0.00    -0.174 OA
ATOM     33  O   UNL     1       2.540   1.183   9.676  0.00  0.00    -0.174 OA
ATOM     34  C   UNL     1       2.036  -0.577   7.739  0.00  0.00    +0.188 C 
ENDBRANCH   9  28
TORSDOF 4
