REMARK  Name = ZINC05759195
REMARK  5 active torsions:
REMARK  status: ('A' for Active; 'I' for Inactive)
REMARK    1  A    between atoms: C_1  and  C_2
REMARK    2  A    between atoms: C_4  and  C_19
REMARK    3  A    between atoms: C_13  and  O_15
REMARK    4  A    between atoms: C_22  and  O_25
REMARK    5  A    between atoms: O_25  and  C_26
REMARK                            x       y       z     vdW  Elec       q    Type
REMARK                         _______ _______ _______ _____ _____    ______ ____
ROOT
ATOM      1  C   UNL     1       3.929  -0.448  -4.462  0.00  0.00    +0.015 C 
ATOM      2  C   UNL     1       3.935  -1.977  -4.520  0.00  0.00    +0.066 C 
ATOM      3  C   UNL     1       2.500  -2.502  -4.429  0.00  0.00    +0.061 C 
ATOM      4  C   UNL     1       1.767  -2.201  -5.712  0.00  0.00    +0.006 A 
ATOM      5  C   UNL     1       0.381  -2.247  -5.713  0.00  0.00    +0.057 A 
ATOM      6  C   UNL     1      -0.327  -1.981  -6.870  0.00  0.00    +0.167 A 
ATOM      7  C   UNL     1       0.356  -1.664  -8.043  0.00  0.00    +0.170 A 
ATOM      8  C   UNL     1       1.738  -1.617  -8.040  0.00  0.00    +0.095 A 
ATOM      9  C   UNL     1       2.448  -1.884  -6.874  0.00  0.00    +0.131 A 
ATOM     10  O   UNL     1       3.805  -1.823  -6.914  0.00  0.00    -0.463 OA
ATOM     11  C   UNL     1       4.534  -2.442  -5.853  0.00  0.00    +0.308 C 
ATOM     12  O   UNL     1      -0.557  -1.448  -9.034  0.00  0.00    -0.452 OA
ATOM     13  C   UNL     1      -1.812  -1.232  -8.362  0.00  0.00    +0.466 C 
ATOM     14  O   UNL     1      -1.669  -1.961  -7.128  0.00  0.00    -0.453 OA
ENDROOT
BRANCH   3  15
ATOM     15  C   UNL     1       1.793  -1.832  -3.279  0.00  0.00    -0.039 A 
ATOM     16  C   UNL     1       1.614  -2.513  -2.088  0.00  0.00    +0.008 A 
ATOM     17  C   UNL     1       0.966  -1.901  -1.032  0.00  0.00    +0.046 A 
ATOM     18  C   UNL     1       0.495  -0.603  -1.167  0.00  0.00    +0.120 A 
ATOM     19  C   UNL     1       0.671   0.075  -2.364  0.00  0.00    +0.046 A 
ATOM     20  C   UNL     1       1.325  -0.538  -3.415  0.00  0.00    +0.008 A 
BRANCH  18  21
ATOM     21  O   UNL     1      -0.142   0.000  -0.130  0.00  0.00    -0.495 OA
ATOM     22  C   UNL     1      -0.600   1.338  -0.340  0.00  0.00    +0.277 C 
ENDBRANCH  18  21
ENDBRANCH   3  15
BRANCH  11  23
ATOM     23  O   UNL     1       4.425  -3.863  -5.960  0.00  0.00    -0.358 OA
ATOM     24  H   UNL     1       4.786  -4.224  -6.781  0.00  0.00    +0.214 HD
ENDBRANCH  11  23
TORSDOF 3
