REMARK  Name = ZINC01956423
REMARK  13 active torsions:
REMARK  status: ('A' for Active; 'I' for Inactive)
REMARK    1  A    between atoms: C_1  and  C_2
REMARK    2  A    between atoms: C_2  and  O_3
REMARK    3  A    between atoms: O_3  and  C_4
REMARK    4  A    between atoms: C_4  and  C_6
REMARK    5  A    between atoms: C_7  and  C_26
REMARK    6  A    between atoms: C_10  and  N_11
REMARK    7  A    between atoms: C_12  and  C_14
REMARK    8  A    between atoms: C_14  and  C_15
REMARK    9  A    between atoms: C_15  and  C_16
REMARK   10  A    between atoms: C_16  and  O_17
REMARK   11  A    between atoms: O_17  and  C_18
REMARK   12  A    between atoms: C_22  and  C_25
REMARK   13  A    between atoms: C_23  and  C_24
REMARK                            x       y       z     vdW  Elec       q    Type
REMARK                         _______ _______ _______ _____ _____    ______ ____
ROOT
ATOM      1  C   UNL     1      -0.671   1.529  -7.400  0.00  0.00    +0.095 A 
ATOM      2  C   UNL     1      -1.552   2.132  -8.381  0.00  0.00    +0.005 A 
ATOM      3  C   UNL     1      -2.599   2.851  -7.901  0.00  0.00    +0.056 A 
ATOM      4  S   UNL     1      -2.413   2.718  -6.136  0.00  0.00    -0.080 S 
ATOM      5  C   UNL     1      -0.983   1.745  -6.064  0.00  0.00    +0.086 A 
ENDROOT
BRANCH   2   6
ATOM      6  C   UNL     1      -1.321   1.972  -9.837  0.00  0.00    -0.016 A 
ATOM      7  C   UNL     1      -0.063   2.234 -10.378  0.00  0.00    +0.009 A 
ATOM      8  C   UNL     1       0.148   2.078 -11.733  0.00  0.00    +0.016 A 
ATOM      9  C   UNL     1      -0.889   1.673 -12.556  0.00  0.00    +0.018 A 
ATOM     10  C   UNL     1      -2.142   1.418 -12.024  0.00  0.00    +0.016 A 
ATOM     11  C   UNL     1      -2.362   1.565 -10.670  0.00  0.00    +0.009 A 
ATOM     12 BR   UNL     1      -0.595   1.470 -14.412  0.00  0.00    -0.050 Br
ENDBRANCH   2   6
BRANCH   5  13
ATOM     13  N   UNL     1      -0.312   1.286  -4.941  0.00  0.00    -0.279 N 
ATOM     14  C   UNL     1      -0.765   1.598  -3.711  0.00  0.00    +0.218 C 
ATOM     15  O   UNL     1      -1.760   2.282  -3.587  0.00  0.00    -0.275 OA
ATOM     16  H   UNL     1       0.590   0.666  -5.054  0.00  0.00    +0.155 HD
BRANCH  14  17
ATOM     17  C   UNL     1      -0.037   1.099  -2.490  0.00  0.00    +0.099 C 
BRANCH  17  18
ATOM     18  C   UNL     1      -0.753   1.593  -1.232  0.00  0.00    +0.050 C 
BRANCH  18  19
ATOM     19  C   UNL     1      -0.013   1.086   0.008  0.00  0.00    +0.229 C 
BRANCH  19  20
ATOM     20  O   UNL     1      -0.682   1.547   1.184  0.00  0.00    -0.492 OA
BRANCH  20  21
ATOM     21  C   UNL     1      -0.149   1.182   2.380  0.00  0.00    +0.124 A 
ATOM     22  C   UNL     1       0.994   0.397   2.421  0.00  0.00    +0.046 A 
ATOM     23  C   UNL     1       1.534   0.028   3.637  0.00  0.00    +0.004 A 
ATOM     24  C   UNL     1       0.935   0.440   4.814  0.00  0.00    +0.004 A 
ATOM     25  C   UNL     1      -0.203   1.222   4.776  0.00  0.00    -0.044 A 
ATOM     26  C   UNL     1      -0.744   1.599   3.561  0.00  0.00    -0.006 A 
ATOM     27  C   UNL     1      -1.982   2.457   3.520  0.00  0.00    +0.048 C 
ATOM     28  C   UNL     1      -0.853   1.670   6.060  0.00  0.00    +0.044 C 
ENDBRANCH  20  21
ENDBRANCH  19  20
ENDBRANCH  18  19
ENDBRANCH  17  18
ENDBRANCH  14  17
ENDBRANCH   5  13
BRANCH   1  29
ATOM     29  C   UNL     1       0.490   0.733  -7.798  0.00  0.00    +0.342 C 
ATOM     30  O   UNL     1       0.377  -0.467  -7.963  0.00  0.00    -0.245 OA
BRANCH  29  31
ATOM     31  O   UNL     1       1.686   1.329  -7.982  0.00  0.00    -0.461 OA
BRANCH  31  33
ATOM     32  C   UNL     1       4.057   1.325  -8.537  0.00  0.00    +0.048 C 
ATOM     33  C   UNL     1       2.793   0.477  -8.377  0.00  0.00    +0.229 C 
ENDBRANCH  31  33
ENDBRANCH  29  31
ENDBRANCH   1  29
TORSDOF 10
