REMARK  Name = ZINC39678439
REMARK  7 active torsions:
REMARK  status: ('A' for Active; 'I' for Inactive)
REMARK    1  A    between atoms: C_4  and  C_34
REMARK    2  A    between atoms: C_5  and  C_7
REMARK    3  A    between atoms: C_11  and  C_20
REMARK    4  A    between atoms: N_22  and  C_23
REMARK    5  A    between atoms: C_23  and  C_24
REMARK    6  A    between atoms: C_28  and  O_30
REMARK    7  A    between atoms: O_30  and  C_31
REMARK                            x       y       z     vdW  Elec       q    Type
REMARK                         _______ _______ _______ _____ _____    ______ ____
ROOT
ATOM      1  C   UNL     1       1.357  -2.449  -0.128  0.00  0.00    +0.247 C 
ATOM      2  O   UNL     1       2.359  -3.126  -0.246  0.00  0.00    -0.270 OA
ATOM      3  N   UNL     1       0.156  -3.043   0.019  0.00  0.00    -0.296 N 
ATOM      4  C   UNL     1      -1.176  -2.396   0.082  0.00  0.00    +0.121 C 
ATOM      5  C   UNL     1      -2.104  -3.335  -0.720  0.00  0.00    +0.100 C 
ATOM      6  C   UNL     1      -1.414  -4.709  -0.667  0.00  0.00    -0.004 C 
ATOM      7  C   UNL     1      -0.131  -4.492   0.149  0.00  0.00    +0.115 C 
ATOM      8  C   UNL     1      -1.063  -5.178  -2.076  0.00  0.00    -0.010 C 
ATOM      9  C   UNL     1      -0.429  -6.571  -2.001  0.00  0.00    -0.082 C 
ATOM     10  N   UNL     1      -1.371  -7.505  -1.372  0.00  0.00    +0.379 N 
ATOM     11  C   UNL     1      -1.631  -7.097   0.013  0.00  0.00    -0.082 C 
ATOM     12  C   UNL     1      -2.315  -5.727   0.024  0.00  0.00    -0.010 C 
ATOM     13  H   UNL     1      -2.237  -7.507  -1.889  0.00  0.00    -0.086 HD
ATOM     14  H   UNL     1      -0.976  -8.434  -1.379  0.00  0.00    -0.086 HD
ENDROOT
BRANCH   1  19
ATOM     15  C   UNL     1       0.807   1.165   0.736  0.00  0.00    +0.001 A 
ATOM     16  C   UNL     1       1.636   1.790  -0.180  0.00  0.00    +0.001 A 
ATOM     17  C   UNL     1       2.374   1.040  -1.077  0.00  0.00    +0.013 A 
ATOM     18  C   UNL     1       2.288  -0.337  -1.066  0.00  0.00    +0.067 A 
ATOM     19  C   UNL     1       1.454  -0.974  -0.146  0.00  0.00    +0.049 A 
ATOM     20  C   UNL     1       0.712  -0.211   0.758  0.00  0.00    +0.013 A 
BRANCH  18  21
ATOM     21  C   UNL     1       3.093  -1.153  -2.046  0.00  0.00    +0.418 C 
ATOM     22  F   UNL     1       3.844  -0.297  -2.858  0.00  0.00    -0.166 F 
ATOM     23  F   UNL     1       3.952  -2.006  -1.347  0.00  0.00    -0.166 F 
ATOM     24  F   UNL     1       2.228  -1.911  -2.842  0.00  0.00    -0.166 F 
ENDBRANCH  18  21
ENDBRANCH   1  19
BRANCH   5  25
ATOM     25  C   UNL     1      -2.225  -2.861  -2.146  0.00  0.00    +0.218 C 
ATOM     26  O   UNL     1      -1.306  -2.266  -2.667  0.00  0.00    -0.275 OA
ATOM     27  N   UNL     1      -3.355  -3.099  -2.841  0.00  0.00    -0.311 N 
ATOM     28  H   UNL     1      -4.090  -3.575  -2.424  0.00  0.00    +0.149 HD
BRANCH  27  29
ATOM     29  C   UNL     1      -3.473  -2.638  -4.227  0.00  0.00    +0.139 C 
BRANCH  29  30
ATOM     30  C   UNL     1      -4.822  -3.027  -4.773  0.00  0.00    -0.027 A 
ATOM     31  C   UNL     1      -4.987  -4.247  -5.402  0.00  0.00    +0.005 A 
ATOM     32  C   UNL     1      -6.224  -4.606  -5.904  0.00  0.00    +0.004 A 
ATOM     33  C   UNL     1      -7.299  -3.747  -5.778  0.00  0.00    +0.046 A 
ATOM     34  C   UNL     1      -7.136  -2.523  -5.147  0.00  0.00    +0.127 A 
ATOM     35  C   UNL     1      -5.895  -2.167  -4.639  0.00  0.00    +0.051 A 
BRANCH  34  36
ATOM     36  O   UNL     1      -8.191  -1.676  -5.022  0.00  0.00    -0.434 OA
BRANCH  36  37
ATOM     37  C   UNL     1      -9.440  -2.111  -5.563  0.00  0.00    +0.541 C 
ATOM     38  F   UNL     1      -9.300  -2.336  -6.937  0.00  0.00    -0.166 F 
ATOM     39  F   UNL     1      -9.833  -3.297  -4.934  0.00  0.00    -0.166 F 
ENDBRANCH  36  37
ENDBRANCH  34  36
ENDBRANCH  29  30
ENDBRANCH  27  29
ENDBRANCH   5  25
TORSDOF 7
