REMARK  Name = ZINC08846384
REMARK  7 active torsions:
REMARK  status: ('A' for Active; 'I' for Inactive)
REMARK    1  A    between atoms: C_4  and  C_8
REMARK    2  A    between atoms: C_8  and  O_9
REMARK    3  A    between atoms: O_9  and  C_10
REMARK    4  A    between atoms: C_13  and  C_16
REMARK    5  A    between atoms: C_19  and  C_30
REMARK    6  A    between atoms: C_25  and  N_29
REMARK    7  A    between atoms: C_26  and  C_27
REMARK                            x       y       z     vdW  Elec       q    Type
REMARK                         _______ _______ _______ _____ _____    ______ ____
ROOT
ATOM      1  C   UNL     1       9.135  -3.734   1.938  0.00  0.00    +0.102 C 
ATOM      2  C   UNL     1       8.860  -4.912   2.837  0.00  0.00    +0.054 A 
ATOM      3  C   UNL     1       8.166  -6.093   2.560  0.00  0.00    +0.100 A 
ATOM      4  N   UNL     1       8.178  -6.836   3.650  0.00  0.00    -0.171 NA
ATOM      5  N   UNL     1       8.881  -6.145   4.649  0.00  0.00    -0.246 N 
ATOM      6  H   UNL     1       9.043  -6.457   5.553  0.00  0.00    +0.192 HD
ATOM      7  C   UNL     1       9.291  -4.969   4.131  0.00  0.00    +0.223 A 
ATOM      8  O   UNL     1      10.004  -3.970   4.710  0.00  0.00    -0.423 OA
ATOM      9  C   UNL     1      10.522  -3.023   3.902  0.00  0.00    +0.200 C 
ATOM     10  C   UNL     1      10.166  -2.860   2.607  0.00  0.00    +0.098 C 
ENDROOT
BRANCH   3  11
ATOM     11  C   UNL     1       7.529  -6.449   1.268  0.00  0.00    +0.003 A 
ATOM     12  C   UNL     1       8.190  -6.190   0.068  0.00  0.00    +0.013 A 
ATOM     13  C   UNL     1       7.594  -6.523  -1.131  0.00  0.00    +0.039 A 
ATOM     14  C   UNL     1       6.341  -7.114  -1.144  0.00  0.00    +0.123 A 
ATOM     15  C   UNL     1       5.681  -7.373   0.046  0.00  0.00    +0.039 A 
ATOM     16  C   UNL     1       6.271  -7.048   1.250  0.00  0.00    +0.013 A 
ATOM     17  F   UNL     1       5.761  -7.437  -2.320  0.00  0.00    -0.205 F 
ENDBRANCH   3  11
BRANCH   1  21
ATOM     18  C   UNL     1       5.534  -1.512   1.335  0.00  0.00    +0.121 A 
ATOM     19  C   UNL     1       6.241  -1.999   0.245  0.00  0.00    +0.046 A 
ATOM     20  C   UNL     1       7.405  -2.717   0.443  0.00  0.00    +0.008 A 
ATOM     21  C   UNL     1       7.865  -2.950   1.726  0.00  0.00    -0.034 A 
ATOM     22  C   UNL     1       7.162  -2.466   2.813  0.00  0.00    +0.008 A 
ATOM     23  C   UNL     1       6.001  -1.743   2.621  0.00  0.00    +0.046 A 
BRANCH  18  24
ATOM     24  O   UNL     1       4.389  -0.806   1.143  0.00  0.00    -0.487 OA
BRANCH  24  25
ATOM     25  C   UNL     1       3.969  -0.607  -0.208  0.00  0.00    +0.268 C 
BRANCH  25  29
ATOM     26  C   UNL     1       0.344   1.657  -0.254  0.00  0.00    +0.004 A 
ATOM     27  C   UNL     1       1.563   2.306  -0.294  0.00  0.00    +0.039 A 
ATOM     28  C   UNL     1       2.738   1.574  -0.280  0.00  0.00    +0.131 A 
ATOM     29  C   UNL     1       2.690   0.192  -0.224  0.00  0.00    +0.043 A 
ATOM     30  C   UNL     1       1.469  -0.457  -0.184  0.00  0.00    +0.050 A 
ATOM     31  C   UNL     1       0.296   0.277  -0.199  0.00  0.00    +0.020 A 
ATOM     32 CL   UNL     1       1.409  -2.190  -0.114  0.00  0.00    -0.083 Cl
ATOM     33  F   UNL     1       3.930   2.208  -0.320  0.00  0.00    -0.205 F 
ENDBRANCH  25  29
ENDBRANCH  24  25
ENDBRANCH  18  24
ENDBRANCH   1  21
BRANCH   9  34
ATOM     34  N   UNL     1      11.467  -2.174   4.424  0.00  0.00    -0.328 N 
ATOM     35  H   UNL     1      11.743  -2.266   5.349  0.00  0.00    +0.145 HD
ATOM     36  H   UNL     1      11.858  -1.483   3.867  0.00  0.00    +0.145 HD
ENDBRANCH   9  34
BRANCH  10  37
ATOM     37  C   UNL     1      10.790  -1.821   1.844  0.00  0.00    +0.101 C 
ATOM     38  N   UNL     1      11.284  -0.997   1.239  0.00  0.00    -0.191 NA
ENDBRANCH  10  37
TORSDOF 7
