REMARK  Name = ZINC20587765
REMARK  5 active torsions:
REMARK  status: ('A' for Active; 'I' for Inactive)
REMARK    1  A    between atoms: C_1  and  C_2
REMARK    2  A    between atoms: C_2  and  C_3
REMARK    3  A    between atoms: C_3  and  C_4
REMARK    4  A    between atoms: C_3  and  C_5
REMARK    5  A    between atoms: C_3  and  N_6
REMARK                            x       y       z     vdW  Elec       q    Type
REMARK                         _______ _______ _______ _____ _____    ______ ____
ROOT
ATOM      1  N   UNL     1      -0.003  -0.803  -1.091  0.00  0.00    -0.214 N 
ATOM      2  C   UNL     1       0.002  -0.004   0.002  0.00  0.00    +0.221 A 
ATOM      3  N   UNL     1       0.022  -0.791   1.056  0.00  0.00    -0.101 NA
ATOM      4  N   UNL     1       0.036  -2.024   0.696  0.00  0.00    -0.022 NA
ATOM      5  N   UNL     1       0.025  -2.116  -0.590  0.00  0.00    -0.043 NA
ATOM      6  S   UNL     1      -0.022   1.758   0.012  0.00  0.00    -0.008 SA
ENDROOT
BRANCH   1   7
ATOM      7  C   UNL     1      -0.029  -0.387  -2.496  0.00  0.00    +0.062 C 
ATOM      8  C   UNL     1      -1.294   0.431  -2.762  0.00  0.00    +0.036 C 
ATOM      9  C   UNL     1       1.204   0.466  -2.799  0.00  0.00    +0.036 C 
BRANCH   7  11
ATOM     10  C   UNL     1      -0.053  -1.192  -4.861  0.00  0.00    +0.006 C 
ATOM     11  C   UNL     1      -0.025  -1.626  -3.394  0.00  0.00    +0.026 C 
ENDBRANCH   7  11
ENDBRANCH   1   7
TORSDOF 2
