REMARK  Name = ZINC48356431
REMARK  9 active torsions:
REMARK  status: ('A' for Active; 'I' for Inactive)
REMARK    1  A    between atoms: C_1  and  C_2
REMARK    2  A    between atoms: C_2  and  C_4
REMARK    3  A    between atoms: C_2  and  N_13
REMARK    4  A    between atoms: N_16  and  C_17
REMARK    5  A    between atoms: C_20  and  N_23
REMARK    6  A    between atoms: C_24  and  C_26
REMARK    7  A    between atoms: C_26  and  C_27
REMARK    8  A    between atoms: C_27  and  C_28
REMARK    9  A    between atoms: C_27  and  C_29
REMARK                            x       y       z     vdW  Elec       q    Type
REMARK                         _______ _______ _______ _____ _____    ______ ____
ROOT
ATOM      1  N   UNL     1       2.605  -0.638  -2.309  0.00  0.00    -0.290 N 
ATOM      2  C   UNL     1       1.928  -0.758  -3.468  0.00  0.00    +0.304 C 
ATOM      3  O   UNL     1       2.501  -0.593  -4.528  0.00  0.00    -0.252 OA
ATOM      4  N   UNL     1       0.615  -1.061  -3.453  0.00  0.00    -0.269 N 
ATOM      5  H   UNL     1       2.148  -0.770  -1.464  0.00  0.00    +0.151 HD
ATOM      6  H   UNL     1       0.172  -1.258  -2.613  0.00  0.00    +0.156 HD
ENDROOT
BRANCH   4   7
ATOM      7  C   UNL     1      -0.112  -1.090  -4.651  0.00  0.00    +0.035 A 
ATOM      8  C   UNL     1      -1.436  -0.672  -4.671  0.00  0.00    +0.025 A 
ATOM      9  C   UNL     1      -2.151  -0.702  -5.851  0.00  0.00    +0.025 A 
ATOM     10  C   UNL     1      -1.547  -1.148  -7.019  0.00  0.00    +0.033 A 
ATOM     11  C   UNL     1      -0.222  -1.565  -6.999  0.00  0.00    +0.025 A 
ATOM     12  C   UNL     1       0.495  -1.531  -5.820  0.00  0.00    +0.025 A 
BRANCH  10  13
ATOM     13  N   UNL     1      -2.273  -1.178  -8.216  0.00  0.00    -0.285 N 
ATOM     14  C   UNL     1      -3.189  -0.224  -8.473  0.00  0.00    +0.217 C 
ATOM     15  O   UNL     1      -3.446   0.612  -7.632  0.00  0.00    -0.275 OA
ATOM     16  H   UNL     1      -2.116  -1.886  -8.861  0.00  0.00    +0.155 HD
BRANCH  14  17
ATOM     17  C   UNL     1      -3.896  -0.196  -9.804  0.00  0.00    +0.099 C 
BRANCH  17  18
ATOM     18  C   UNL     1      -4.877   0.978  -9.836  0.00  0.00    -0.008 C 
ATOM     19  C   UNL     1      -5.503   1.081 -11.228  0.00  0.00    +0.008 C 
ATOM     20  C   UNL     1      -5.978   0.750  -8.798  0.00  0.00    +0.008 C 
ENDBRANCH  17  18
ENDBRANCH  14  17
ENDBRANCH  10  13
ENDBRANCH   4   7
BRANCH   1  22
ATOM     21  C   UNL     1       4.849  -1.591  -2.501  0.00  0.00    +0.036 C 
ATOM     22  C   UNL     1       4.033  -0.309  -2.326  0.00  0.00    +0.137 C 
BRANCH  22  23
ATOM     23  C   UNL     1       4.411   0.353  -1.026  0.00  0.00    +0.126 A 
ATOM     24  C   UNL     1       5.245   1.395  -0.911  0.00  0.00    +0.055 A 
ATOM     25  C   UNL     1       5.318   1.704   0.522  0.00  0.00    +0.020 A 
ATOM     26  C   UNL     1       5.998   2.655   1.281  0.00  0.00    +0.011 A 
ATOM     27  C   UNL     1       5.845   2.675   2.640  0.00  0.00    +0.001 A 
ATOM     28  C   UNL     1       5.017   1.755   3.266  0.00  0.00    +0.004 A 
ATOM     29  C   UNL     1       4.336   0.807   2.532  0.00  0.00    +0.047 A 
ATOM     30  C   UNL     1       4.478   0.770   1.151  0.00  0.00    +0.135 A 
ATOM     31  O   UNL     1       3.955  -0.011   0.185  0.00  0.00    -0.458 OA
ENDBRANCH  22  23
ENDBRANCH   1  22
TORSDOF 6
