REMARK  Name = ZINC59303409
REMARK  5 active torsions:
REMARK  status: ('A' for Active; 'I' for Inactive)
REMARK    1  A    between atoms: C_1  and  C_2
REMARK    2  A    between atoms: C_3  and  C_12
REMARK    3  A    between atoms: N_10  and  C_11
REMARK    4  A    between atoms: N_13  and  N_14
REMARK    5  A    between atoms: N_17  and  C_18
REMARK                            x       y       z     vdW  Elec       q    Type
REMARK                         _______ _______ _______ _____ _____    ______ ____
ROOT
ATOM      1  C   UNL     1       0.018  -0.315  -2.511  0.00  0.00    +0.140 C 
ATOM      2  N   UNL     1       0.018  -1.176  -3.483  0.00  0.00    -0.186 NA
ENDROOT
BRANCH   1   5
ATOM      3  C   UNL     1       0.024   1.503   0.011  0.00  0.00    +0.064 C 
ATOM      4  C   UNL     1       0.044  -0.004   0.002  0.00  0.00    +0.025 A 
ATOM      5  C   UNL     1       0.042  -0.781  -1.114  0.00  0.00    +0.023 A 
ATOM      6  C   UNL     1       0.067  -2.180  -0.653  0.00  0.00    +0.009 A 
ATOM      7  C   UNL     1       0.076  -3.413  -1.303  0.00  0.00    +0.010 A 
ATOM      8  C   UNL     1       0.100  -4.567  -0.570  0.00  0.00    +0.001 A 
ATOM      9  C   UNL     1       0.116  -4.520   0.817  0.00  0.00    +0.002 A 
ATOM     10  C   UNL     1       0.107  -3.311   1.478  0.00  0.00    +0.026 A 
ATOM     11  C   UNL     1       0.083  -2.125   0.750  0.00  0.00    +0.050 A 
ATOM     12  N   UNL     1       0.073  -0.795   1.112  0.00  0.00    -0.346 N 
ATOM     13  C   UNL     1       0.090  -0.302   2.492  0.00  0.00    +0.149 C 
ENDBRANCH   1   5
BRANCH   2  14
ATOM     14  N   UNL     1      -0.004  -0.733  -4.811  0.00  0.00    -0.191 N 
ATOM     15  C   UNL     1      -0.004  -1.626  -5.820  0.00  0.00    +0.323 C 
ATOM     16  O   UNL     1      -0.024  -1.242  -6.974  0.00  0.00    -0.251 OA
ATOM     17  N   UNL     1       0.018  -2.947  -5.551  0.00  0.00    -0.268 N 
ATOM     18  H   UNL     1      -0.020   0.218  -5.005  0.00  0.00    +0.179 HD
ATOM     19  H   UNL     1       0.102  -3.253  -4.634  0.00  0.00    +0.156 HD
BRANCH  17  20
ATOM     20  C   UNL     1      -0.079  -3.876  -6.593  0.00  0.00    +0.035 A 
ATOM     21  C   UNL     1      -0.762  -5.069  -6.400  0.00  0.00    +0.024 A 
ATOM     22  C   UNL     1      -0.856  -5.984  -7.431  0.00  0.00    +0.017 A 
ATOM     23  C   UNL     1      -0.271  -5.712  -8.654  0.00  0.00    +0.018 A 
ATOM     24  C   UNL     1       0.411  -4.524  -8.849  0.00  0.00    +0.017 A 
ATOM     25  C   UNL     1       0.503  -3.603  -7.824  0.00  0.00    +0.024 A 
ATOM     26 BR   UNL     1      -0.401  -6.967 -10.063  0.00  0.00    -0.050 Br
ENDBRANCH  17  20
ENDBRANCH   2  14
TORSDOF 3
