REMARK  Name = ZINC09741603
REMARK  4 active torsions:
REMARK  status: ('A' for Active; 'I' for Inactive)
REMARK    1  A    between atoms: C_4  and  C_7
REMARK    2  A    between atoms: C_7  and  N_8
REMARK    3  A    between atoms: C_17  and  C_19
REMARK    4  A    between atoms: C_30  and  C_32
REMARK                            x       y       z     vdW  Elec       q    Type
REMARK                         _______ _______ _______ _____ _____    ______ ____
ROOT
ATOM      1  N   UNL     1       2.099   1.725   2.817  0.00  0.00    -0.224 N 
ATOM      2  C   UNL     1       1.192   1.499   3.790  0.00  0.00    +0.275 A 
ATOM      3  O   UNL     1       0.036   1.238   3.515  0.00  0.00    -0.266 OA
ATOM      4  C   UNL     1       1.633   1.575   5.190  0.00  0.00    +0.050 A 
ATOM      5  C   UNL     1       0.777   1.360   6.265  0.00  0.00    +0.014 A 
ATOM      6  C   UNL     1       1.269   1.450   7.549  0.00  0.00    +0.001 A 
ATOM      7  C   UNL     1       2.605   1.754   7.778  0.00  0.00    +0.001 A 
ATOM      8  C   UNL     1       3.470   1.971   6.726  0.00  0.00    +0.011 A 
ATOM      9  C   UNL     1       2.994   1.884   5.422  0.00  0.00    +0.020 A 
ATOM     10  C   UNL     1       3.850   2.102   4.245  0.00  0.00    +0.154 A 
ATOM     11  N   UNL     1       3.328   1.998   3.047  0.00  0.00    -0.163 NA
ENDROOT
BRANCH  10  12
ATOM     12  C   UNL     1       5.280   2.427   4.411  0.00  0.00    +0.268 C 
ATOM     13  O   UNL     1       5.794   2.364   5.511  0.00  0.00    -0.268 OA
ATOM     14  N   UNL     1       6.016   2.795   3.343  0.00  0.00    -0.280 N 
ATOM     15  C   UNL     1       5.396   3.032   2.035  0.00  0.00    +0.144 C 
ATOM     16  C   UNL     1       5.958   4.294   1.429  0.00  0.00    -0.027 A 
ATOM     17  C   UNL     1       5.322   4.813   0.309  0.00  0.00    +0.005 A 
ATOM     18  C   UNL     1       5.795   5.958  -0.297  0.00  0.00    +0.000 A 
ATOM     19  C   UNL     1       6.911   6.594   0.215  0.00  0.00    +0.000 A 
ATOM     20  C   UNL     1       7.541   6.082   1.330  0.00  0.00    +0.004 A 
ATOM     21  C   UNL     1       7.063   4.931   1.946  0.00  0.00    -0.040 A 
ATOM     22  C   UNL     1       7.786   4.446   3.175  0.00  0.00    +0.067 C 
ATOM     23  C   UNL     1       7.473   2.980   3.445  0.00  0.00    +0.167 C 
BRANCH  23  24
ATOM     24  C   UNL     1       7.939   2.610   4.830  0.00  0.00    +0.231 C 
ATOM     25  O   UNL     1       7.618   1.545   5.313  0.00  0.00    -0.274 OA
ATOM     26  N   UNL     1       8.711   3.463   5.531  0.00  0.00    -0.328 N 
ATOM     27  H   UNL     1       8.968   4.315   5.145  0.00  0.00    +0.145 HD
ATOM     28  H   UNL     1       9.011   3.224   6.422  0.00  0.00    +0.145 HD
ENDBRANCH  23  24
ENDBRANCH  10  12
BRANCH   1  29
ATOM     29  C   UNL     1       1.655   1.647   1.424  0.00  0.00    +0.182 C 
BRANCH  29  33
ATOM     30  C   UNL     1       0.337   5.499   0.130  0.00  0.00    +0.000 A 
ATOM     31  C   UNL     1       1.660   5.132  -0.028  0.00  0.00    +0.000 A 
ATOM     32  C   UNL     1       2.087   3.886   0.391  0.00  0.00    +0.005 A 
ATOM     33  C   UNL     1       1.190   3.006   0.968  0.00  0.00    -0.026 A 
ATOM     34  C   UNL     1      -0.133   3.373   1.127  0.00  0.00    +0.005 A 
ATOM     35  C   UNL     1      -0.560   4.619   0.707  0.00  0.00    +0.000 A 
ENDBRANCH  29  33
ENDBRANCH   1  29
TORSDOF 4
