REMARK  Name = ZINC36027440
REMARK  12 active torsions:
REMARK  status: ('A' for Active; 'I' for Inactive)
REMARK    1  A    between atoms: C_1  and  C_2
REMARK    2  A    between atoms: C_2  and  N_3
REMARK    3  A    between atoms: N_3  and  C_4
REMARK    4  A    between atoms: N_3  and  C_6
REMARK    5  A    between atoms: C_4  and  C_5
REMARK    6  A    between atoms: C_6  and  C_7
REMARK    7  A    between atoms: C_7  and  N_8
REMARK    8  A    between atoms: C_11  and  C_30
REMARK    9  A    between atoms: N_17  and  S_20
REMARK   10  A    between atoms: S_20  and  C_23
REMARK   11  A    between atoms: C_30  and  C_31
REMARK   12  A    between atoms: C_30  and  C_32
REMARK                            x       y       z     vdW  Elec       q    Type
REMARK                         _______ _______ _______ _____ _____    ______ ____
ROOT
ATOM      1  N   UNL     1      -0.634  -3.572   1.056  0.00  0.00    -0.315 N 
ATOM      2  C   UNL     1      -1.666  -4.358   1.428  0.00  0.00    +0.201 C 
ATOM      3  O   UNL     1      -2.751  -3.970   1.808  0.00  0.00    -0.277 OA
ATOM      4  C   UNL     1      -1.243  -5.804   1.289  0.00  0.00    +0.022 C 
ATOM      5  N   UNL     1       0.237  -5.758   1.201  0.00  0.00    +0.401 N 
ATOM      6  C   UNL     1       0.496  -4.410   0.648  0.00  0.00    +0.006 C 
ATOM      7  C   UNL     1       1.798  -3.859   1.226  0.00  0.00    +0.023 C 
ATOM      8  C   UNL     1       2.038  -2.446   0.681  0.00  0.00    +0.109 C 
ATOM      9  N   UNL     1       1.990  -2.491  -0.787  0.00  0.00    -0.177 NA
ATOM     10  C   UNL     1       0.808  -3.073  -1.438  0.00  0.00    +0.109 C 
ATOM     11  C   UNL     1       0.579  -4.480  -0.876  0.00  0.00    +0.023 C 
ATOM     12  H   UNL     1       0.651  -5.858   2.116  0.00  0.00    -0.082 HD
ATOM     13  H   UNL     1       0.579  -6.470   0.573  0.00  0.00    -0.082 HD
ENDROOT
BRANCH   9  14
ATOM     14  S   UNL     1       3.244  -1.898  -1.690  0.00  0.00    +0.061 S 
ATOM     15  O   UNL     1       2.706  -1.565  -2.963  0.00  0.00    -0.153 OA
ATOM     16  O   UNL     1       3.918  -0.948  -0.876  0.00  0.00    -0.153 OA
BRANCH  14  17
ATOM     17  C   UNL     1       4.372  -3.226  -1.953  0.00  0.00    +0.106 A 
ATOM     18  C   UNL     1       5.393  -3.454  -1.049  0.00  0.00    +0.030 A 
ATOM     19  C   UNL     1       6.278  -4.495  -1.254  0.00  0.00    +0.022 A 
ATOM     20  C   UNL     1       6.142  -5.310  -2.364  0.00  0.00    +0.041 A 
ATOM     21  C   UNL     1       5.120  -5.082  -3.268  0.00  0.00    +0.022 A 
ATOM     22  C   UNL     1       4.232  -4.043  -3.059  0.00  0.00    +0.030 A 
ATOM     23 CL   UNL     1       7.253  -6.619  -2.622  0.00  0.00    -0.084 Cl
ENDBRANCH  14  17
ENDBRANCH   9  14
BRANCH   4  24
ATOM     24  C   UNL     1      -1.681  -6.607   2.515  0.00  0.00    -0.023 C 
ATOM     25  C   UNL     1      -3.207  -6.575   2.627  0.00  0.00    +0.006 C 
ATOM     26  C   UNL     1      -1.212  -8.056   2.369  0.00  0.00    +0.006 C 
ENDBRANCH   4  24
BRANCH   1  27
ATOM     27  C   UNL     1      -0.645  -2.107   1.054  0.00  0.00    +0.087 C 
BRANCH  27  28
ATOM     28  C   UNL     1      -0.185  -1.592   2.419  0.00  0.00    -0.060 C 
BRANCH  28  29
ATOM     29  N   UNL     1      -0.067  -0.128   2.376  0.00  0.00    +0.380 N 
ATOM     30  H   UNL     1       0.545   0.137   1.619  0.00  0.00    -0.082 HD
BRANCH  29  32
ATOM     31  C   UNL     1      -1.254   1.977   1.980  0.00  0.00    -0.017 C 
ATOM     32  C   UNL     1      -1.394   0.465   2.164  0.00  0.00    -0.082 C 
ENDBRANCH  29  32
BRANCH  29  33
ATOM     33  C   UNL     1       0.489   0.356   3.647  0.00  0.00    -0.082 C 
ATOM     34  C   UNL     1       1.925  -0.148   3.801  0.00  0.00    -0.017 C 
ENDBRANCH  29  33
ENDBRANCH  28  29
ENDBRANCH  27  28
ENDBRANCH   1  27
TORSDOF 8
