REMARK  Name = ZINC64034056
REMARK  11 active torsions:
REMARK  status: ('A' for Active; 'I' for Inactive)
REMARK    1  A    between atoms: C_1  and  C_2
REMARK    2  A    between atoms: C_2  and  O_3
REMARK    3  A    between atoms: O_3  and  C_4
REMARK    4  A    between atoms: C_7  and  C_10
REMARK    5  A    between atoms: C_10  and  C_11
REMARK    6  A    between atoms: C_13  and  C_18
REMARK    7  A    between atoms: C_20  and  O_33
REMARK    8  A    between atoms: C_22  and  O_32
REMARK    9  A    between atoms: C_24  and  O_31
REMARK   10  A    between atoms: C_26  and  C_29
REMARK   11  A    between atoms: C_29  and  O_30
REMARK                            x       y       z     vdW  Elec       q    Type
REMARK                         _______ _______ _______ _____ _____    ______ ____
ROOT
ATOM      1  C   UNL     1      -1.955  -6.287   1.562  0.00  0.00    -0.024 A 
ATOM      2  C   UNL     1      -3.179  -6.640   2.098  0.00  0.00    +0.011 A 
ATOM      3  C   UNL     1      -3.250  -7.163   3.376  0.00  0.00    -0.016 A 
ATOM      4  C   UNL     1      -2.096  -7.334   4.118  0.00  0.00    +0.008 A 
ATOM      5  C   UNL     1      -0.872  -6.981   3.583  0.00  0.00    +0.020 A 
ATOM      6  C   UNL     1      -0.800  -6.463   2.302  0.00  0.00    +0.044 A 
ATOM      7 CL   UNL     1       0.739  -6.026   1.627  0.00  0.00    -0.083 Cl
ENDROOT
BRANCH   3   8
ATOM      8  C   UNL     1      -4.585  -7.547   3.960  0.00  0.00    +0.180 C 
ATOM      9  C   UNL     1      -4.778  -9.061   3.841  0.00  0.00    +0.179 C 
ATOM     10  C   UNL     1      -6.109  -9.451   4.490  0.00  0.00    +0.177 C 
ATOM     11  C   UNL     1      -6.112  -8.977   5.947  0.00  0.00    +0.176 C 
ATOM     12  C   UNL     1      -5.868  -7.466   5.985  0.00  0.00    +0.175 C 
ATOM     13  O   UNL     1      -4.629  -7.169   5.338  0.00  0.00    -0.361 OA
BRANCH  11  14
ATOM     14  O   UNL     1      -7.377  -9.272   6.543  0.00  0.00    -0.386 OA
ATOM     15  H   UNL     1      -7.599 -10.214   6.549  0.00  0.00    +0.210 HD
ENDBRANCH  11  14
BRANCH  10  16
ATOM     16  O   UNL     1      -7.186  -8.832   3.783  0.00  0.00    -0.386 OA
ATOM     17  H   UNL     1      -8.061  -9.036   4.141  0.00  0.00    +0.210 HD
ENDBRANCH  10  16
BRANCH   9  18
ATOM     18  O   UNL     1      -4.791  -9.434   2.462  0.00  0.00    -0.386 OA
ATOM     19  H   UNL     1      -4.910 -10.382   2.311  0.00  0.00    +0.210 HD
ENDBRANCH   9  18
BRANCH  12  20
ATOM     20  C   UNL     1      -7.007  -6.747   5.261  0.00  0.00    +0.190 C 
BRANCH  20  21
ATOM     21  O   UNL     1      -6.861  -5.335   5.427  0.00  0.00    -0.392 OA
ATOM     22  H   UNL     1      -7.551  -4.814   4.992  0.00  0.00    +0.210 HD
ENDBRANCH  20  21
ENDBRANCH  12  20
ENDBRANCH   3   8
BRANCH   1  23
ATOM     23  C   UNL     1      -1.879  -5.717   0.169  0.00  0.00    +0.071 C 
BRANCH  23  27
ATOM     24  C   UNL     1      -1.500  -1.466   0.389  0.00  0.00    +0.121 A 
ATOM     25  C   UNL     1      -0.366  -2.265   0.375  0.00  0.00    +0.046 A 
ATOM     26  C   UNL     1      -0.491  -3.639   0.304  0.00  0.00    +0.007 A 
ATOM     27  C   UNL     1      -1.745  -4.218   0.247  0.00  0.00    -0.043 A 
ATOM     28  C   UNL     1      -2.877  -3.424   0.260  0.00  0.00    +0.007 A 
ATOM     29  C   UNL     1      -2.757  -2.050   0.337  0.00  0.00    +0.046 A 
BRANCH  24  30
ATOM     30  O   UNL     1      -1.380  -0.114   0.459  0.00  0.00    -0.492 OA
BRANCH  30  32
ATOM     31  C   UNL     1      -0.119   1.944   0.585  0.00  0.00    +0.048 C 
ATOM     32  C   UNL     1      -0.054   0.417   0.509  0.00  0.00    +0.225 C 
ENDBRANCH  30  32
ENDBRANCH  24  30
ENDBRANCH  23  27
ENDBRANCH   1  23
TORSDOF 10
