REMARK  Name = ZINC39709608
REMARK  6 active torsions:
REMARK  status: ('A' for Active; 'I' for Inactive)
REMARK    1  A    between atoms: C_7  and  C_10
REMARK    2  A    between atoms: C_10  and  C_11
REMARK    3  A    between atoms: C_11  and  N_12
REMARK    4  A    between atoms: C_13  and  C_15
REMARK    5  A    between atoms: C_21  and  C_32
REMARK    6  A    between atoms: C_24  and  C_28
REMARK                            x       y       z     vdW  Elec       q    Type
REMARK                         _______ _______ _______ _____ _____    ______ ____
ROOT
ATOM      1  C   UNL     1      -4.966   7.612  -2.127  0.00  0.00    +0.155 C 
ATOM      2  C   UNL     1      -3.867   8.704  -2.149  0.00  0.00    +0.030 C 
ATOM      3  C   UNL     1      -4.099   9.425  -3.483  0.00  0.00    +0.019 C 
ATOM      4  N   UNL     1      -2.877   9.861  -4.151  0.00  0.00    +0.397 N 
ATOM      5  C   UNL     1      -3.265  10.522  -5.411  0.00  0.00    -0.000 C 
ATOM      6  C   UNL     1      -4.056   9.569  -6.306  0.00  0.00    +0.021 C 
ATOM      7  C   UNL     1      -5.245   8.969  -5.538  0.00  0.00    +0.174 C 
ATOM      8  N   UNL     1      -4.735   8.368  -4.317  0.00  0.00    -0.245 NA
ATOM      9  N   UNL     1      -5.699   7.751  -3.417  0.00  0.00    -0.243 NA
ATOM     10  H   UNL     1      -2.380  10.513  -3.562  0.00  0.00    -0.082 HD
ATOM     11  H   UNL     1      -5.995   6.851  -3.764  0.00  0.00    +0.142 HD
ATOM     12  H   UNL     1      -2.292   9.064  -4.348  0.00  0.00    -0.082 HD
ENDROOT
BRANCH   5  13
ATOM     13  C   UNL     1      -4.116  11.726  -5.098  0.00  0.00    +0.091 A 
ATOM     14  C   UNL     1      -4.068  12.449  -3.965  0.00  0.00    +0.043 A 
ATOM     15  C   UNL     1      -5.030  13.477  -4.095  0.00  0.00    +0.041 A 
ATOM     16  C   UNL     1      -5.608  13.320  -5.299  0.00  0.00    +0.195 A 
ATOM     17  O   UNL     1      -5.046  12.261  -5.905  0.00  0.00    -0.469 OA
ENDBRANCH   5  13
BRANCH   1  19
ATOM     18  N   UNL     1      -3.939   5.772  -0.832  0.00  0.00    -0.314 N 
ATOM     19  C   UNL     1      -4.341   6.245  -2.028  0.00  0.00    +0.231 C 
ATOM     20  O   UNL     1      -4.199   5.569  -3.026  0.00  0.00    -0.274 OA
ATOM     21  H   UNL     1      -4.052   6.312  -0.034  0.00  0.00    +0.149 HD
BRANCH  18  22
ATOM     22  C   UNL     1      -3.330   4.443  -0.736  0.00  0.00    +0.109 C 
BRANCH  22  23
ATOM     23  C   UNL     1      -2.967   4.152   0.722  0.00  0.00    +0.056 C 
BRANCH  23  30
ATOM     24  C   UNL     1       1.411   2.579   0.144  0.00  0.00    +0.001 A 
ATOM     25  C   UNL     1       1.524   1.210   0.340  0.00  0.00    +0.002 A 
ATOM     26  C   UNL     1       0.420   0.453   0.667  0.00  0.00    +0.026 A 
ATOM     27  C   UNL     1      -0.822   1.066   0.805  0.00  0.00    +0.047 A 
ATOM     28  N   UNL     1      -2.079   0.600   1.116  0.00  0.00    -0.360 N 
ATOM     29  C   UNL     1      -2.972   1.638   1.120  0.00  0.00    +0.087 A 
ATOM     30  C   UNL     1      -2.342   2.784   0.820  0.00  0.00    -0.021 A 
ATOM     31  C   UNL     1      -0.930   2.455   0.606  0.00  0.00    +0.003 A 
ATOM     32  C   UNL     1       0.202   3.202   0.279  0.00  0.00    +0.010 A 
ATOM     33  H   UNL     1      -2.300  -0.325   1.303  0.00  0.00    +0.165 HD
ENDBRANCH  23  30
ENDBRANCH  22  23
ENDBRANCH  18  22
ENDBRANCH   1  19
BRANCH   7  34
ATOM     34  C   UNL     1      -6.242  10.072  -5.177  0.00  0.00    +0.406 C 
ATOM     35  F   UNL     1      -6.598  10.775  -6.333  0.00  0.00    -0.169 F 
ATOM     36  F   UNL     1      -7.385   9.500  -4.609  0.00  0.00    -0.169 F 
ATOM     37  F   UNL     1      -5.654  10.950  -4.260  0.00  0.00    -0.169 F 
ENDBRANCH   7  34
TORSDOF 6
