REMARK  Name = ZINC38872777
REMARK  7 active torsions:
REMARK  status: ('A' for Active; 'I' for Inactive)
REMARK    1  A    between atoms: C_3  and  C_6
REMARK    2  A    between atoms: C_8  and  C_11
REMARK    3  A    between atoms: C_11  and  N_12
REMARK    4  A    between atoms: C_15  and  C_18
REMARK    5  A    between atoms: N_20  and  C_21
REMARK    6  A    between atoms: C_21  and  C_22
REMARK    7  A    between atoms: C_22  and  C_23
REMARK                            x       y       z     vdW  Elec       q    Type
REMARK                         _______ _______ _______ _____ _____    ______ ____
ROOT
ATOM      1  N   UNL     1       7.781   1.178  -1.461  0.00  0.00    +0.386 N 
ATOM      2  C   UNL     1       7.804   2.496  -2.107  0.00  0.00    -0.077 C 
ATOM      3  C   UNL     1       8.192   2.340  -3.579  0.00  0.00    -0.006 C 
ATOM      4  C   UNL     1       9.580   1.700  -3.671  0.00  0.00    +0.071 C 
ATOM      5  C   UNL     1       9.563   0.360  -2.930  0.00  0.00    -0.006 C 
ATOM      6  C   UNL     1       9.125   0.589  -1.482  0.00  0.00    -0.077 C 
ATOM      7  H   UNL     1       7.142   0.574  -1.957  0.00  0.00    -0.081 HD
ENDROOT
BRANCH   4   8
ATOM      8  C   UNL     1       9.935   1.472  -5.117  0.00  0.00    +0.216 C 
ATOM      9  O   UNL     1       9.156   1.789  -5.990  0.00  0.00    -0.276 OA
ATOM     10  N   UNL     1      11.119   0.915  -5.441  0.00  0.00    -0.315 N 
ATOM     11  H   UNL     1      11.742   0.660  -4.743  0.00  0.00    +0.149 HD
BRANCH  10  12
ATOM     12  C   UNL     1      11.464   0.693  -6.847  0.00  0.00    +0.108 C 
BRANCH  12  13
ATOM     13  C   UNL     1      12.851   0.053  -6.937  0.00  0.00    +0.049 C 
BRANCH  13  14
ATOM     14  C   UNL     1      13.206  -0.175  -8.384  0.00  0.00    -0.072 C 
ATOM     15  C   UNL     1      13.915   0.726  -8.985  0.00  0.00    -0.028 C 
ATOM     16  C   UNL     1      14.337   0.644 -10.422  0.00  0.00    +0.027 C 
ATOM     17  C   UNL     1      14.192  -0.791 -10.933  0.00  0.00    +0.004 C 
ATOM     18  C   UNL     1      12.794  -1.300 -10.561  0.00  0.00    +0.005 C 
ATOM     19  C   UNL     1      12.721  -1.436  -9.037  0.00  0.00    +0.030 C 
ENDBRANCH  13  14
ENDBRANCH  12  13
ENDBRANCH  10  12
ENDBRANCH   4   8
BRANCH   1  20
ATOM     20  C   UNL     1       7.333   1.324  -0.070  0.00  0.00    +0.022 C 
BRANCH  20  23
ATOM     21  C   UNL     1       3.738   1.826  -0.024  0.00  0.00    +0.209 A 
ATOM     22  N   UNL     1       4.846   1.060  -0.044  0.00  0.00    -0.192 NA
ATOM     23  C   UNL     1       5.908   1.813  -0.049  0.00  0.00    +0.211 A 
ATOM     24  O   UNL     1       5.522   3.095  -0.032  0.00  0.00    -0.340 OA
ATOM     25  N   UNL     1       4.102   3.087  -0.022  0.00  0.00    -0.056 NA
BRANCH  21  28
ATOM     26  C   UNL     1      -0.016   1.355   0.009  0.00  0.00    +0.008 A 
ATOM     27  C   UNL     1       1.176   2.042   0.002  0.00  0.00    +0.019 A 
ATOM     28  C   UNL     1       2.346   1.330  -0.013  0.00  0.00    +0.060 A 
ATOM     29  S   UNL     1       1.753  -0.354  -0.017  0.00  0.00    -0.093 S 
ATOM     30  C   UNL     1       0.002  -0.004   0.002  0.00  0.00    +0.046 A 
ENDBRANCH  21  28
ENDBRANCH  20  23
ENDBRANCH   1  20
TORSDOF 7
