REMARK  Name = ZINC39560753
REMARK  9 active torsions:
REMARK  status: ('A' for Active; 'I' for Inactive)
REMARK    1  A    between atoms: C_1  and  C_2
REMARK    2  A    between atoms: N_4  and  C_5
REMARK    3  A    between atoms: C_5  and  C_6
REMARK    4  A    between atoms: C_6  and  N_7
REMARK    5  A    between atoms: N_7  and  C_8
REMARK    6  A    between atoms: C_11  and  C_33
REMARK    7  A    between atoms: C_27  and  C_29
REMARK    8  A    between atoms: C_29  and  O_31
REMARK    9  A    between atoms: O_31  and  C_32
REMARK                            x       y       z     vdW  Elec       q    Type
REMARK                         _______ _______ _______ _____ _____    ______ ____
ROOT
ATOM      1  C   UNL     1      -0.330  -5.680  -3.669  0.00  0.00    -0.068 C 
ATOM      2  C   UNL     1       0.891  -4.916  -4.189  0.00  0.00    +0.008 C 
ATOM      3  C   UNL     1       1.015  -5.121  -5.701  0.00  0.00    +0.087 C 
ATOM      4  N   UNL     1       1.148  -6.555  -5.988  0.00  0.00    -0.274 NA
ATOM      5  C   UNL     1      -0.048  -7.291  -5.551  0.00  0.00    +0.106 C 
ATOM      6  C   UNL     1      -0.195  -7.161  -4.034  0.00  0.00    +0.009 C 
ATOM      7  C   UNL     1       0.127  -8.742  -5.925  0.00  0.00    +0.063 C 
ATOM      8  N   UNL     1      -0.532  -9.783  -5.482  0.00  0.00    -0.250 NA
ATOM      9  C   UNL     1      -0.061 -10.890  -6.073  0.00  0.00    +0.068 C 
ATOM     10  C   UNL     1      -0.438 -12.225  -5.931  0.00  0.00    +0.028 C 
ATOM     11  C   UNL     1       0.255 -13.183  -6.700  0.00  0.00    -0.002 C 
ATOM     12  C   UNL     1       1.237 -12.880  -7.542  0.00  0.00    -0.022 C 
ATOM     13  C   UNL     1       1.752 -11.492  -7.799  0.00  0.00    +0.064 C 
ATOM     14  C   UNL     1       0.987 -10.504  -6.963  0.00  0.00    -0.013 C 
ATOM     15  C   UNL     1       1.093  -9.171  -6.863  0.00  0.00    -0.017 C 
ATOM     16  C   UNL     1       2.022  -8.217  -7.572  0.00  0.00    +0.067 C 
ATOM     17  C   UNL     1       1.462  -6.798  -7.399  0.00  0.00    +0.172 C 
ENDROOT
BRANCH   3  18
ATOM     18  C   UNL     1       2.231  -4.391  -6.210  0.00  0.00    -0.030 A 
ATOM     19  C   UNL     1       3.485  -4.956  -6.071  0.00  0.00    +0.005 A 
ATOM     20  C   UNL     1       4.600  -4.286  -6.537  0.00  0.00    +0.000 A 
ATOM     21  C   UNL     1       4.462  -3.051  -7.143  0.00  0.00    +0.000 A 
ATOM     22  C   UNL     1       3.208  -2.487  -7.283  0.00  0.00    +0.000 A 
ATOM     23  C   UNL     1       2.092  -3.159  -6.820  0.00  0.00    +0.005 A 
ENDBRANCH   3  18
BRANCH   1  24
ATOM     24  N   UNL     1      -0.411  -5.540  -2.209  0.00  0.00    +0.382 N 
ATOM     25  H   UNL     1       0.458  -5.839  -1.794  0.00  0.00    -0.085 HD
ATOM     26  H   UNL     1      -1.166  -6.110  -1.858  0.00  0.00    -0.085 HD
BRANCH  24  27
ATOM     27  C   UNL     1      -0.659  -4.133  -1.865  0.00  0.00    -0.063 C 
BRANCH  27  28
ATOM     28  C   UNL     1      -0.743  -3.987  -0.345  0.00  0.00    +0.085 C 
BRANCH  28  32
ATOM     29  C   UNL     1      -1.357  -0.773   1.643  0.00  0.00    +0.109 C 
ATOM     30  C   UNL     1      -1.103  -2.216   1.290  0.00  0.00    +0.210 C 
ATOM     31  O   UNL     1      -0.999  -3.046   2.168  0.00  0.00    -0.276 OA
ATOM     32  N   UNL     1      -0.991  -2.584  -0.002  0.00  0.00    -0.317 N 
ATOM     33  H   UNL     1      -1.073  -1.921  -0.704  0.00  0.00    +0.149 HD
ENDBRANCH  28  32
ENDBRANCH  27  28
ENDBRANCH  24  27
ENDBRANCH   1  24
BRANCH  17  34
ATOM     34  C   UNL     1       0.208  -6.652  -8.223  0.00  0.00    +0.325 C 
ATOM     35  O   UNL     1      -0.806  -7.214  -7.885  0.00  0.00    -0.249 OA
BRANCH  34  36
ATOM     36  O   UNL     1       0.219  -5.896  -9.332  0.00  0.00    -0.467 OA
ATOM     37  C   UNL     1      -1.005  -5.802 -10.065  0.00  0.00    +0.280 C 
ENDBRANCH  34  36
ENDBRANCH  17  34
TORSDOF 7
