REMARK  Name = ZINC09666552
REMARK  6 active torsions:
REMARK  status: ('A' for Active; 'I' for Inactive)
REMARK    1  A    between atoms: C_4  and  N_7
REMARK    2  A    between atoms: C_13  and  S_17
REMARK    3  A    between atoms: S_17  and  C_18
REMARK    4  A    between atoms: C_18  and  C_19
REMARK    5  A    between atoms: N_21  and  C_22
REMARK    6  A    between atoms: C_23  and  C_27
REMARK                            x       y       z     vdW  Elec       q    Type
REMARK                         _______ _______ _______ _____ _____    ______ ____
ROOT
ATOM      1  N   UNL     1       1.163   3.485   0.010  0.00  0.00    -0.194 N 
ATOM      2  C   UNL     1       2.066   4.263   0.646  0.00  0.00    +0.284 A 
ATOM      3  O   UNL     1       3.023   3.888   1.303  0.00  0.00    -0.265 OA
ATOM      4  C   UNL     1       1.665   5.642   0.386  0.00  0.00    +0.106 A 
ATOM      5  C   UNL     1       2.145   6.886   0.738  0.00  0.00    +0.037 A 
ATOM      6  N   UNL     1       1.482   7.978   0.327  0.00  0.00    -0.323 N 
ATOM      7  C   UNL     1       0.365   7.854  -0.472  0.00  0.00    +0.172 A 
ATOM      8  N   UNL     1      -0.136   6.706  -0.845  0.00  0.00    -0.202 NA
ATOM      9  C   UNL     1       0.451   5.548  -0.452  0.00  0.00    +0.190 A 
ATOM     10  N   UNL     1       0.208   4.276  -0.634  0.00  0.00    -0.143 NA
ATOM     11  C   UNL     1       1.864   9.350   0.691  0.00  0.00    +0.124 C 
ATOM     12  C   UNL     1       3.368   9.483   0.912  0.00  0.00    +0.022 C 
ATOM     13  C   UNL     1       3.666   9.253   2.398  0.00  0.00    +0.002 C 
ATOM     14  C   UNL     1       3.208   7.849   2.785  0.00  0.00    +0.006 C 
ATOM     15  C   UNL     1       3.402   6.950   1.561  0.00  0.00    +0.054 C 
ENDROOT
BRANCH   1  19
ATOM     16  C   UNL     1       1.208  -0.681  -0.013  0.00  0.00    +0.000 A 
ATOM     17  C   UNL     1       0.002  -0.004   0.002  0.00  0.00    +0.002 A 
ATOM     18  C   UNL     1      -0.017   1.377   0.010  0.00  0.00    +0.028 A 
ATOM     19  C   UNL     1       1.178   2.086   0.002  0.00  0.00    +0.069 A 
ATOM     20  C   UNL     1       2.388   1.403  -0.012  0.00  0.00    +0.028 A 
ATOM     21  C   UNL     1       2.399   0.022  -0.020  0.00  0.00    +0.002 A 
ENDBRANCH   1  19
BRANCH   7  22
ATOM     22  S   UNL     1      -0.433   9.326  -1.019  0.00  0.00    -0.078 S 
BRANCH  22  23
ATOM     23  C   UNL     1      -1.782   8.610  -1.990  0.00  0.00    +0.173 C 
BRANCH  23  24
ATOM     24  C   UNL     1      -2.624   9.716  -2.573  0.00  0.00    +0.228 C 
ATOM     25  O   UNL     1      -2.340  10.874  -2.354  0.00  0.00    -0.275 OA
ATOM     26  N   UNL     1      -3.692   9.417  -3.339  0.00  0.00    -0.278 N 
ATOM     27  H   UNL     1      -3.919   8.491  -3.514  0.00  0.00    +0.155 HD
BRANCH  26  28
ATOM     28  C   UNL     1      -4.467  10.436  -3.876  0.00  0.00    +0.089 A 
ATOM     29  C   UNL     1      -5.591  10.330  -4.685  0.00  0.00    +0.080 A 
ATOM     30  C   UNL     1      -6.210  11.565  -5.102  0.00  0.00    +0.028 A 
ATOM     31  C   UNL     1      -5.642  12.710  -4.681  0.00  0.00    +0.048 A 
ATOM     32  S   UNL     1      -4.263  12.147  -3.705  0.00  0.00    -0.081 S 
BRANCH  29  33
ATOM     33  C   UNL     1      -6.112   9.057  -5.083  0.00  0.00    +0.102 C 
ATOM     34  N   UNL     1      -6.525   8.047  -5.399  0.00  0.00    -0.191 NA
ENDBRANCH  29  33
ENDBRANCH  26  28
ENDBRANCH  23  24
ENDBRANCH  22  23
ENDBRANCH   7  22
TORSDOF 6
