REMARK  Name = ZINC32527845
REMARK  13 active torsions:
REMARK  status: ('A' for Active; 'I' for Inactive)
REMARK    1  A    between atoms: C_1  and  C_2
REMARK    2  A    between atoms: C_2  and  O_3
REMARK    3  A    between atoms: O_3  and  C_4
REMARK    4  A    between atoms: C_4  and  C_6
REMARK    5  A    between atoms: C_7  and  C_32
REMARK    6  A    between atoms: C_8  and  C_31
REMARK    7  A    between atoms: C_10  and  N_11
REMARK    8  A    between atoms: C_12  and  C_14
REMARK    9  A    between atoms: C_14  and  C_16
REMARK   10  A    between atoms: C_14  and  N_17
REMARK   11  A    between atoms: C_21  and  C_30
REMARK   12  A    between atoms: C_24  and  O_28
REMARK   13  A    between atoms: O_28  and  C_29
REMARK                            x       y       z     vdW  Elec       q    Type
REMARK                         _______ _______ _______ _____ _____    ______ ____
ROOT
ATOM      1  N   UNL     1       2.105   3.572  -1.427  0.00  0.00    -0.278 N 
ATOM      2  C   UNL     1       3.196   4.185  -0.926  0.00  0.00    +0.240 C 
ATOM      3  O   UNL     1       4.303   3.788  -1.221  0.00  0.00    -0.273 OA
ATOM      4  H   UNL     1       1.100   3.932  -1.159  0.00  0.00    +0.155 HD
ENDROOT
BRANCH   1   9
ATOM      5  C   UNL     1       1.254   1.734  -2.893  0.00  0.00    +0.091 A 
ATOM      6  C   UNL     1       1.693   0.651  -3.741  0.00  0.00    -0.025 A 
ATOM      7  C   UNL     1       3.019   0.466  -3.865  0.00  0.00    -0.008 A 
ATOM      8  S   UNL     1       3.710   1.748  -2.841  0.00  0.00    -0.078 S 
ATOM      9  C   UNL     1       2.249   2.489  -2.280  0.00  0.00    +0.086 A 
ATOM     10  C   UNL     1       3.746  -0.575  -4.677  0.00  0.00    +0.052 C 
ATOM     11  C   UNL     1       0.706  -0.236  -4.456  0.00  0.00    +0.045 C 
BRANCH   5  12
ATOM     12  C   UNL     1      -0.166   2.026  -2.692  0.00  0.00    +0.342 C 
ATOM     13  O   UNL     1      -0.775   1.494  -1.783  0.00  0.00    -0.245 OA
BRANCH  12  14
ATOM     14  O   UNL     1      -0.801   2.886  -3.515  0.00  0.00    -0.461 OA
BRANCH  14  16
ATOM     15  C   UNL     1      -2.752   4.123  -4.285  0.00  0.00    +0.048 C 
ATOM     16  C   UNL     1      -2.209   3.129  -3.257  0.00  0.00    +0.229 C 
ENDBRANCH  14  16
ENDBRANCH  12  14
ENDBRANCH   5  12
ENDBRANCH   1   9
BRANCH   2  17
ATOM     17  C   UNL     1       3.039   5.362   0.002  0.00  0.00    +0.174 C 
ATOM     18  C   UNL     1       2.285   6.482  -0.718  0.00  0.00    +0.041 C 
BRANCH  17  19
ATOM     19  N   UNL     1       4.362   5.845   0.405  0.00  0.00    -0.293 N 
ATOM     20  C   UNL     1       4.966   6.805  -0.318  0.00  0.00    +0.253 A 
ATOM     21  O   UNL     1       4.399   7.257  -1.297  0.00  0.00    -0.268 OA
ATOM     22  C   UNL     1       6.237   7.307   0.034  0.00  0.00    +0.074 A 
ATOM     23  C   UNL     1       6.890   6.816   1.116  0.00  0.00    -0.036 A 
ATOM     24  C   UNL     1       6.244   5.766   1.906  0.00  0.00    +0.005 A 
ATOM     25  C   UNL     1       4.974   5.305   1.517  0.00  0.00    +0.095 A 
ATOM     26  C   UNL     1       4.351   4.304   2.264  0.00  0.00    +0.144 A 
ATOM     27  C   UNL     1       4.989   3.782   3.374  0.00  0.00    +0.048 A 
ATOM     28  C   UNL     1       6.242   4.243   3.752  0.00  0.00    +0.004 A 
ATOM     29  C   UNL     1       6.869   5.222   3.034  0.00  0.00    +0.010 A 
ATOM     30  C   UNL     1       8.251   7.341   1.498  0.00  0.00    +0.044 C 
BRANCH  26  31
ATOM     31  O   UNL     1       3.123   3.845   1.903  0.00  0.00    -0.493 OA
ATOM     32  C   UNL     1       2.548   2.820   2.716  0.00  0.00    +0.277 C 
ENDBRANCH  26  31
ENDBRANCH  17  19
ENDBRANCH   2  17
TORSDOF 7
