REMARK  Name = ZINC16037591
REMARK  4 active torsions:
REMARK  status: ('A' for Active; 'I' for Inactive)
REMARK    1  A    between atoms: C_6  and  N_11
REMARK    2  A    between atoms: C_27  and  C_33
REMARK    3  A    between atoms: C_33  and  C_35
REMARK    4  A    between atoms: C_39  and  N_41
REMARK                            x       y       z     vdW  Elec       q    Type
REMARK                         _______ _______ _______ _____ _____    ______ ____
ROOT
ATOM      1  N   UNL     1       4.915  -2.655  -0.058  0.00  0.00    -0.210 N 
ATOM      2  C   UNL     1       5.014  -3.990   0.028  0.00  0.00    +0.232 C 
ATOM      3  O   UNL     1       4.100  -4.755   0.248  0.00  0.00    -0.274 OA
ATOM      4  C   UNL     1       6.461  -4.382  -0.198  0.00  0.00    +0.115 C 
ATOM      5  C   UNL     1       6.930  -5.314   0.921  0.00  0.00    +0.117 C 
ATOM      6  C   UNL     1       7.801  -6.419   0.380  0.00  0.00    -0.019 A 
ATOM      7  C   UNL     1       7.555  -6.975  -0.854  0.00  0.00    +0.006 A 
ATOM      8  C   UNL     1       8.372  -7.985  -1.333  0.00  0.00    +0.000 A 
ATOM      9  C   UNL     1       9.438  -8.438  -0.575  0.00  0.00    +0.001 A 
ATOM     10  C   UNL     1       9.693  -7.890   0.665  0.00  0.00    +0.008 A 
ATOM     11  C   UNL     1       8.873  -6.873   1.157  0.00  0.00    -0.019 A 
ATOM     12  C   UNL     1       9.131  -6.289   2.489  0.00  0.00    +0.023 C 
ATOM     13  C   UNL     1       8.573  -5.106   2.810  0.00  0.00    +0.072 C 
ATOM     14  N   UNL     1       7.742  -4.519   1.860  0.00  0.00    -0.317 N 
ATOM     15  C   UNL     1       7.579  -3.102   1.547  0.00  0.00    +0.157 C 
ATOM     16  C   UNL     1       7.205  -3.035   0.034  0.00  0.00    +0.118 C 
ATOM     17  C   UNL     1       6.093  -2.022  -0.164  0.00  0.00    +0.232 C 
ATOM     18  O   UNL     1       6.243  -0.839  -0.381  0.00  0.00    -0.274 OA
ENDROOT
BRANCH   1  24
ATOM     19  C   UNL     1      -0.727   0.039   1.095  0.00  0.00    +0.001 A 
ATOM     20  C   UNL     1      -0.298  -0.629   2.241  0.00  0.00    +0.001 A 
ATOM     21  C   UNL     1       0.889  -1.294   2.261  0.00  0.00    +0.008 A 
ATOM     22  C   UNL     1       1.697  -1.310   1.110  0.00  0.00    -0.016 A 
ATOM     23  C   UNL     1       2.928  -1.986   1.094  0.00  0.00    +0.032 A 
ATOM     24  C   UNL     1       3.687  -1.980  -0.043  0.00  0.00    +0.044 A 
ATOM     25  C   UNL     1       3.253  -1.309  -1.191  0.00  0.00    +0.024 A 
ATOM     26  C   UNL     1       2.067  -0.645  -1.206  0.00  0.00    +0.010 A 
ATOM     27  C   UNL     1       1.260  -0.631  -0.055  0.00  0.00    -0.018 A 
ATOM     28  C   UNL     1       0.029   0.045  -0.037  0.00  0.00    +0.008 A 
ENDBRANCH   1  24
BRANCH  15  29
ATOM     29  C   UNL     1       6.476  -2.508   2.384  0.00  0.00    +0.184 C 
ATOM     30  O   UNL     1       5.715  -3.235   2.987  0.00  0.00    -0.290 OA
BRANCH  29  31
ATOM     31  C   UNL     1       6.321  -1.047   2.469  0.00  0.00    +0.021 A 
ATOM     32  C   UNL     1       7.193  -0.206   1.770  0.00  0.00    +0.011 A 
ATOM     33  C   UNL     1       7.042   1.161   1.854  0.00  0.00    +0.003 A 
ATOM     34  C   UNL     1       6.030   1.703   2.629  0.00  0.00    +0.033 A 
ATOM     35  C   UNL     1       5.163   0.878   3.324  0.00  0.00    +0.127 A 
ATOM     36  C   UNL     1       5.298  -0.493   3.244  0.00  0.00    +0.044 A 
BRANCH  35  37
ATOM     37  N   UNL     1       4.086   1.467   4.149  0.00  0.00    +0.056 N 
ATOM     38  O   UNL     1       3.963   2.668   4.216  0.00  0.00    -0.126 OA
ATOM     39  O   UNL     1       3.328   0.747   4.757  0.00  0.00    -0.126 OA
ENDBRANCH  35  37
ENDBRANCH  29  31
ENDBRANCH  15  29
TORSDOF 4
