REMARK  Name = ZINC39597994
REMARK  5 active torsions:
REMARK  status: ('A' for Active; 'I' for Inactive)
REMARK    1  A    between atoms: C_4  and  C_7
REMARK    2  A    between atoms: C_7  and  N_8
REMARK    3  A    between atoms: C_11  and  N_14
REMARK    4  A    between atoms: C_15  and  C_17
REMARK    5  A    between atoms: C_28  and  C_30
REMARK                            x       y       z     vdW  Elec       q    Type
REMARK                         _______ _______ _______ _____ _____    ______ ____
ROOT
ATOM      1  C   UNL     1       6.809  -3.815   6.694  0.00  0.00    +0.100 C 
ATOM      2  C   UNL     1       7.616  -2.566   7.116  0.00  0.00    +0.121 C 
ATOM      3  N   UNL     1       8.680  -3.091   8.004  0.00  0.00    -0.296 N 
ATOM      4  C   UNL     1       9.099  -4.362   7.367  0.00  0.00    +0.115 C 
ATOM      5  C   UNL     1       7.786  -4.991   6.859  0.00  0.00    -0.004 C 
ATOM      6  C   UNL     1       8.015  -5.679   5.518  0.00  0.00    -0.010 C 
ATOM      7  C   UNL     1       8.944  -6.881   5.718  0.00  0.00    -0.082 C 
ATOM      8  N   UNL     1       8.338  -7.816   6.673  0.00  0.00    +0.379 N 
ATOM      9  C   UNL     1       8.206  -7.174   7.987  0.00  0.00    -0.082 C 
ATOM     10  C   UNL     1       7.247  -5.986   7.883  0.00  0.00    -0.010 C 
ATOM     11  C   UNL     1       9.158  -2.537   9.136  0.00  0.00    +0.248 C 
ATOM     12  O   UNL     1       8.642  -1.533   9.587  0.00  0.00    -0.270 OA
ATOM     13  H   UNL     1       7.425  -8.090   6.341  0.00  0.00    -0.086 HD
ATOM     14  H   UNL     1       8.922  -8.634   6.757  0.00  0.00    -0.086 HD
ENDROOT
BRANCH  11  15
ATOM     15  C   UNL     1      10.309  -3.150   9.829  0.00  0.00    +0.055 A 
ATOM     16  C   UNL     1      11.330  -3.755   9.092  0.00  0.00    +0.016 A 
ATOM     17  C   UNL     1      12.402  -4.325   9.744  0.00  0.00    +0.021 A 
ATOM     18  C   UNL     1      12.469  -4.301  11.128  0.00  0.00    +0.042 A 
ATOM     19  C   UNL     1      11.461  -3.704  11.865  0.00  0.00    +0.040 A 
ATOM     20  C   UNL     1      10.385  -3.123  11.224  0.00  0.00    +0.054 A 
ATOM     21 CL   UNL     1       9.125  -2.368  12.149  0.00  0.00    -0.083 Cl
ATOM     22 CL   UNL     1      13.823  -5.022  11.941  0.00  0.00    -0.083 Cl
ENDBRANCH  11  15
BRANCH   1  24
ATOM     23  N   UNL     1       5.336  -4.432   4.805  0.00  0.00    -0.312 N 
ATOM     24  C   UNL     1       6.370  -3.695   5.258  0.00  0.00    +0.218 C 
ATOM     25  O   UNL     1       6.947  -2.936   4.508  0.00  0.00    -0.275 OA
ATOM     26  H   UNL     1       4.874  -5.039   5.405  0.00  0.00    +0.149 HD
BRANCH  23  30
ATOM     27  N   UNL     1       2.746  -4.330   1.482  0.00  0.00    +0.382 N 
ATOM     28  C   UNL     1       3.694  -5.449   1.546  0.00  0.00    -0.077 C 
ATOM     29  C   UNL     1       4.207  -5.607   2.979  0.00  0.00    +0.003 C 
ATOM     30  C   UNL     1       4.909  -4.316   3.409  0.00  0.00    +0.069 C 
ATOM     31  C   UNL     1       3.933  -3.144   3.267  0.00  0.00    +0.003 C 
ATOM     32  C   UNL     1       3.430  -3.077   1.823  0.00  0.00    -0.077 C 
ATOM     33  H   UNL     1       1.995  -4.491   2.135  0.00  0.00    -0.081 HD
BRANCH  27  34
ATOM     34  C   UNL     1       2.198  -4.232   0.122  0.00  0.00    -0.043 C 
BRANCH  34  38
ATOM     35  C   UNL     1      -0.089  -7.732  -0.750  0.00  0.00    +0.000 A 
ATOM     36  C   UNL     1      -0.700  -6.634  -0.174  0.00  0.00    +0.000 A 
ATOM     37  C   UNL     1       0.041  -5.501   0.109  0.00  0.00    +0.002 A 
ATOM     38  C   UNL     1       1.391  -5.467  -0.184  0.00  0.00    -0.064 A 
ATOM     39  C   UNL     1       2.001  -6.566  -0.760  0.00  0.00    +0.002 A 
ATOM     40  C   UNL     1       1.261  -7.698  -1.043  0.00  0.00    +0.000 A 
ENDBRANCH  34  38
ENDBRANCH  27  34
ENDBRANCH  23  30
ENDBRANCH   1  24
TORSDOF 5
