REMARK  Name = ZINC21735577
REMARK  8 active torsions:
REMARK  status: ('A' for Active; 'I' for Inactive)
REMARK    1  A    between atoms: C_1  and  C_2
REMARK    2  A    between atoms: C_2  and  C_4
REMARK    3  A    between atoms: C_2  and  O_16
REMARK    4  A    between atoms: N_6  and  C_7
REMARK    5  A    between atoms: C_12  and  N_13
REMARK    6  A    between atoms: O_16  and  C_17
REMARK    7  A    between atoms: C_17  and  C_19
REMARK    8  A    between atoms: C_21  and  C_29
REMARK                            x       y       z     vdW  Elec       q    Type
REMARK                         _______ _______ _______ _____ _____    ______ ____
ROOT
ATOM      1  C   UNL     1      -0.393   1.479   0.015  0.00  0.00    +0.341 C 
ATOM      2  O   UNL     1       0.663   2.080   0.008  0.00  0.00    -0.245 OA
ENDROOT
BRANCH   1   3
ATOM      3  C   UNL     1      -0.403   0.001   0.031  0.00  0.00    +0.070 A 
ATOM      4  C   UNL     1      -1.587  -0.710   0.146  0.00  0.00    +0.044 A 
ATOM      5  C   UNL     1      -1.550  -2.116   0.151  0.00  0.00    +0.079 A 
ATOM      6  N   UNL     1      -0.419  -2.790   0.061  0.00  0.00    -0.246 NA
ATOM      7  C   UNL     1       0.765  -2.184  -0.047  0.00  0.00    +0.072 A 
ATOM      8  C   UNL     1       0.839  -0.769  -0.068  0.00  0.00    +0.014 A 
ATOM      9  C   UNL     1       2.082  -0.139  -0.182  0.00  0.00    +0.011 A 
ATOM     10  C   UNL     1       3.214  -0.893  -0.272  0.00  0.00    +0.001 A 
ATOM     11  C   UNL     1       3.148  -2.284  -0.251  0.00  0.00    +0.002 A 
ATOM     12  C   UNL     1       1.955  -2.930  -0.141  0.00  0.00    +0.028 A 
BRANCH   5  13
ATOM     13  C   UNL     1      -2.817  -2.862   0.267  0.00  0.00    +0.038 A 
ATOM     14  C   UNL     1      -3.022  -4.218   0.293  0.00  0.00    +0.017 A 
ATOM     15  C   UNL     1      -4.308  -4.690   0.413  0.00  0.00    +0.008 A 
ATOM     16  C   UNL     1      -5.335  -3.802   0.491  0.00  0.00    +0.046 A 
ATOM     17  S   UNL     1      -4.483  -2.236   0.403  0.00  0.00    -0.095 S 
ENDBRANCH   5  13
ENDBRANCH   1   3
BRANCH   1  18
ATOM     18  O   UNL     1      -1.555   2.160   0.002  0.00  0.00    -0.449 OA
BRANCH  18  20
ATOM     19  C   UNL     1      -1.446   4.135   1.424  0.00  0.00    +0.062 C 
ATOM     20  C   UNL     1      -1.470   3.610  -0.013  0.00  0.00    +0.259 C 
BRANCH  20  21
ATOM     21  C   UNL     1      -2.666   4.176  -0.735  0.00  0.00    +0.258 C 
ATOM     22  O   UNL     1      -3.552   3.438  -1.112  0.00  0.00    -0.271 OA
ATOM     23  N   UNL     1      -2.750   5.502  -0.962  0.00  0.00    -0.281 N 
ATOM     24  H   UNL     1      -1.909   6.159  -0.700  0.00  0.00    +0.155 HD
BRANCH  23  25
ATOM     25  C   UNL     1      -3.909   6.041  -1.531  0.00  0.00    +0.064 A 
ATOM     26  C   UNL     1      -5.151   5.500  -1.226  0.00  0.00    +0.025 A 
ATOM     27  C   UNL     1      -6.293   6.039  -1.786  0.00  0.00    +0.002 A 
ATOM     28  C   UNL     1      -6.200   7.108  -2.657  0.00  0.00    +0.002 A 
ATOM     29  C   UNL     1      -4.964   7.645  -2.968  0.00  0.00    +0.034 A 
ATOM     30  C   UNL     1      -3.819   7.115  -2.407  0.00  0.00    +0.147 A 
BRANCH  30  31
ATOM     31  N   UNL     1      -2.496   7.690  -2.740  0.00  0.00    +0.058 N 
ATOM     32  O   UNL     1      -2.409   8.572  -3.576  0.00  0.00    -0.126 OA
ATOM     33  O   UNL     1      -1.496   7.282  -2.179  0.00  0.00    -0.126 OA
ENDBRANCH  30  31
ENDBRANCH  23  25
ENDBRANCH  20  21
ENDBRANCH  18  20
ENDBRANCH   1  18
TORSDOF 7
