REMARK  Name = ZINC38655990
REMARK  9 active torsions:
REMARK  status: ('A' for Active; 'I' for Inactive)
REMARK    1  A    between atoms: C_1  and  C_2
REMARK    2  A    between atoms: C_2  and  O_3
REMARK    3  A    between atoms: O_3  and  C_4
REMARK    4  A    between atoms: C_8  and  C_10
REMARK    5  A    between atoms: C_10  and  O_12
REMARK    6  A    between atoms: O_12  and  C_13
REMARK    7  A    between atoms: C_20  and  N_34
REMARK    8  A    between atoms: C_21  and  C_32
REMARK    9  A    between atoms: C_22  and  C_24
REMARK                            x       y       z     vdW  Elec       q    Type
REMARK                         _______ _______ _______ _____ _____    ______ ____
ROOT
ATOM      1  C   UNL     1       3.020  -6.210   4.908  0.00  0.00    +0.135 A 
ATOM      2  C   UNL     1       3.546  -5.415   5.917  0.00  0.00    +0.047 A 
ATOM      3  C   UNL     1       4.215  -5.995   6.976  0.00  0.00    +0.012 A 
ATOM      4  C   UNL     1       4.364  -7.370   7.037  0.00  0.00    +0.008 A 
ATOM      5  C   UNL     1       3.841  -8.169   6.033  0.00  0.00    +0.138 A 
ATOM      6  C   UNL     1       3.163  -7.587   4.970  0.00  0.00    +0.093 A 
ATOM      7  O   UNL     1       3.977  -9.517   6.075  0.00  0.00    -0.441 OA
ATOM      8  C   UNL     1       4.265 -10.126   7.237  0.00  0.00    +0.199 C 
ATOM      9  C   UNL     1       4.798  -9.454   8.285  0.00  0.00    +0.098 C 
ATOM     10  C   UNL     1       5.097  -7.984   8.200  0.00  0.00    +0.098 C 
ENDROOT
BRANCH  10  11
ATOM     11  C   UNL     1       6.580  -7.786   8.016  0.00  0.00    -0.033 A 
ATOM     12  C   UNL     1       7.213  -8.305   6.902  0.00  0.00    +0.006 A 
ATOM     13  C   UNL     1       8.572  -8.125   6.732  0.00  0.00    +0.022 A 
ATOM     14  C   UNL     1       9.301  -7.424   7.678  0.00  0.00    +0.059 A 
ATOM     15  C   UNL     1       8.666  -6.905   8.793  0.00  0.00    +0.060 A 
ATOM     16  C   UNL     1       7.304  -7.082   8.959  0.00  0.00    +0.026 A 
ATOM     17 CL   UNL     1       9.579  -6.026   9.980  0.00  0.00    -0.082 Cl
ATOM     18 CL   UNL     1      11.009  -7.198   7.465  0.00  0.00    -0.082 Cl
ENDBRANCH  10  11
BRANCH   8  19
ATOM     19  N   UNL     1       4.011 -11.469   7.366  0.00  0.00    -0.328 N 
ATOM     20  H   UNL     1       3.630 -11.964   6.625  0.00  0.00    +0.145 HD
ATOM     21  H   UNL     1       4.213 -11.923   8.200  0.00  0.00    +0.145 HD
ENDBRANCH   8  19
BRANCH   9  22
ATOM     22  C   UNL     1       5.082 -10.159   9.499  0.00  0.00    +0.101 C 
ATOM     23  N   UNL     1       5.307 -10.718  10.462  0.00  0.00    -0.191 NA
ENDBRANCH   9  22
BRANCH   1  24
ATOM     24  O   UNL     1       2.362  -5.640   3.865  0.00  0.00    -0.422 OA
BRANCH  24  25
ATOM     25  C   UNL     1       3.096  -5.053   2.899  0.00  0.00    +0.345 C 
ATOM     26  O   UNL     1       4.301  -4.966   3.020  0.00  0.00    -0.245 OA
BRANCH  25  31
ATOM     27  C   UNL     1       2.564  -3.407  -0.438  0.00  0.00    +0.121 A 
ATOM     28  C   UNL     1       1.185  -3.510  -0.570  0.00  0.00    +0.046 A 
ATOM     29  C   UNL     1       0.434  -4.112   0.422  0.00  0.00    +0.004 A 
ATOM     30  C   UNL     1       1.048  -4.615   1.550  0.00  0.00    +0.015 A 
ATOM     31  C   UNL     1       2.434  -4.516   1.692  0.00  0.00    +0.063 A 
ATOM     32  C   UNL     1       3.192  -3.913   0.687  0.00  0.00    +0.060 A 
BRANCH  27  33
ATOM     33  O   UNL     1       3.298  -2.814  -1.417  0.00  0.00    -0.492 OA
BRANCH  33  35
ATOM     34  C   UNL     1       3.571  -1.687  -3.537  0.00  0.00    +0.048 C 
ATOM     35  C   UNL     1       2.584  -2.314  -2.550  0.00  0.00    +0.225 C 
ENDBRANCH  33  35
ENDBRANCH  27  33
ENDBRANCH  25  31
ENDBRANCH  24  25
ENDBRANCH   1  24
TORSDOF 8
