REMARK  Name = ZINC13127653
REMARK  5 active torsions:
REMARK  status: ('A' for Active; 'I' for Inactive)
REMARK    1  A    between atoms: C_1  and  C_2
REMARK    2  A    between atoms: C_10  and  C_22
REMARK    3  A    between atoms: C_13  and  C_15
REMARK    4  A    between atoms: C_25  and  O_28
REMARK    5  A    between atoms: O_28  and  C_29
REMARK                            x       y       z     vdW  Elec       q    Type
REMARK                         _______ _______ _______ _____ _____    ______ ____
ROOT
ATOM      1  C   UNL     1      -0.018   1.503   0.010  0.00  0.00    +0.109 C 
ATOM      2  C   UNL     1       0.002  -0.004   0.002  0.00  0.00    +0.216 C 
ATOM      3  O   UNL     1       1.060  -0.596  -0.011  0.00  0.00    -0.276 OA
ATOM      4  N   UNL     1      -1.156  -0.694   0.009  0.00  0.00    -0.253 N 
ATOM      5  C   UNL     1      -1.137  -2.092   0.002  0.00  0.00    +0.242 A 
ATOM      6  N   UNL     1      -0.035  -2.851  -0.007  0.00  0.00    -0.176 NA
ATOM      7  C   UNL     1      -0.373  -4.117  -0.015  0.00  0.00    +0.251 A 
ATOM      8  N   UNL     1      -1.739  -4.180  -0.003  0.00  0.00    -0.220 N 
ATOM      9  N   UNL     1      -2.201  -2.869   0.008  0.00  0.00    -0.131 NA
ATOM     10  C   UNL     1      -2.470  -5.448   0.011  0.00  0.00    +0.147 C 
ATOM     11  C   UNL     1      -1.611  -6.498  -0.704  0.00  0.00    +0.087 C 
ATOM     12  C   UNL     1      -0.169  -6.385  -0.294  0.00  0.00    +0.055 C 
ATOM     13  N   UNL     1       0.393  -5.240  -0.010  0.00  0.00    -0.215 NA
ATOM     14  H   UNL     1      -2.002  -0.220   0.020  0.00  0.00    +0.158 HD
ENDROOT
BRANCH  12  15
ATOM     15  C   UNL     1       0.640  -7.610  -0.210  0.00  0.00    -0.003 A 
ATOM     16  C   UNL     1       0.070  -8.851  -0.513  0.00  0.00    +0.011 A 
ATOM     17  C   UNL     1       0.834  -9.995  -0.432  0.00  0.00    +0.020 A 
ATOM     18  C   UNL     1       2.164  -9.918  -0.051  0.00  0.00    +0.041 A 
ATOM     19  C   UNL     1       2.736  -8.693   0.250  0.00  0.00    +0.020 A 
ATOM     20  C   UNL     1       1.985  -7.540   0.168  0.00  0.00    +0.011 A 
ATOM     21 CL   UNL     1       3.119 -11.365   0.049  0.00  0.00    -0.084 Cl
ENDBRANCH  12  15
BRANCH  10  22
ATOM     22  C   UNL     1      -2.722  -5.876   1.433  0.00  0.00    -0.022 A 
ATOM     23  C   UNL     1      -1.656  -6.095   2.287  0.00  0.00    +0.009 A 
ATOM     24  C   UNL     1      -1.884  -6.488   3.592  0.00  0.00    +0.046 A 
ATOM     25  C   UNL     1      -3.184  -6.662   4.045  0.00  0.00    +0.120 A 
ATOM     26  C   UNL     1      -4.251  -6.442   3.187  0.00  0.00    +0.046 A 
ATOM     27  C   UNL     1      -4.018  -6.044   1.885  0.00  0.00    +0.009 A 
BRANCH  25  28
ATOM     28  O   UNL     1      -3.411  -7.049   5.328  0.00  0.00    -0.495 OA
ATOM     29  C   UNL     1      -4.774  -7.210   5.726  0.00  0.00    +0.277 C 
ENDBRANCH  25  28
ENDBRANCH  10  22
TORSDOF 3
