REMARK  Name = ZINC45282265
REMARK  10 active torsions:
REMARK  status: ('A' for Active; 'I' for Inactive)
REMARK    1  A    between atoms: C_1  and  C_2
REMARK    2  A    between atoms: C_2  and  C_3
REMARK    3  A    between atoms: C_6  and  C_9
REMARK    4  A    between atoms: C_12  and  S_15
REMARK    5  A    between atoms: S_15  and  C_16
REMARK    6  A    between atoms: C_16  and  C_18
REMARK    7  A    between atoms: C_16  and  C_19
REMARK    8  A    between atoms: N_21  and  C_22
REMARK    9  A    between atoms: C_25  and  S_28
REMARK   10  A    between atoms: S_28  and  N_31
REMARK                            x       y       z     vdW  Elec       q    Type
REMARK                         _______ _______ _______ _____ _____    ______ ____
ROOT
ATOM      1  C   UNL     1       6.981  -2.707  -5.236  0.00  0.00    +0.137 C 
ATOM      2  C   UNL     1       7.021  -1.220  -4.878  0.00  0.00    +0.029 C 
ENDROOT
BRANCH   1   3
ATOM      3  C   UNL     1       8.369  -3.178  -5.585  0.00  0.00    +0.230 C 
ATOM      4  O   UNL     1       8.727  -3.206  -6.743  0.00  0.00    -0.274 OA
ATOM      5  N   UNL     1       9.213  -3.568  -4.609  0.00  0.00    -0.285 N 
ATOM      6  H   UNL     1       8.952  -3.482  -3.679  0.00  0.00    +0.155 HD
BRANCH   5   7
ATOM      7  C   UNL     1      10.467  -4.096  -4.938  0.00  0.00    +0.034 A 
ATOM      8  C   UNL     1      11.018  -5.111  -4.168  0.00  0.00    +0.025 A 
ATOM      9  C   UNL     1      12.256  -5.630  -4.496  0.00  0.00    +0.030 A 
ATOM     10  C   UNL     1      12.945  -5.140  -5.589  0.00  0.00    +0.105 A 
ATOM     11  C   UNL     1      12.399  -4.128  -6.358  0.00  0.00    +0.030 A 
ATOM     12  C   UNL     1      11.159  -3.609  -6.039  0.00  0.00    +0.025 A 
BRANCH  10  13
ATOM     13  S   UNL     1      14.524  -5.804  -6.004  0.00  0.00    +0.056 S 
ATOM     14  O   UNL     1      15.204  -4.802  -6.745  0.00  0.00    -0.153 OA
ATOM     15  O   UNL     1      15.056  -6.362  -4.810  0.00  0.00    -0.153 OA
BRANCH  13  16
ATOM     16  N   UNL     1      14.265  -7.068  -7.042  0.00  0.00    -0.204 NA
ATOM     17  H   UNL     1      14.932  -7.290  -7.711  0.00  0.00    +0.144 HD
ATOM     18  H   UNL     1      13.447  -7.586  -6.982  0.00  0.00    +0.144 HD
ENDBRANCH  13  16
ENDBRANCH  10  13
ENDBRANCH   5   7
ENDBRANCH   1   3
BRANCH   1  19
ATOM     19  S   UNL     1       5.882  -2.957  -6.657  0.00  0.00    -0.074 S 
BRANCH  19  23
ATOM     20  C   UNL     1       2.705  -1.834  -4.730  0.00  0.00    +0.182 A 
ATOM     21  N   UNL     1       4.018  -2.087  -4.835  0.00  0.00    -0.201 NA
ATOM     22  H   UNL     1       3.028  -2.792  -7.682  0.00  0.00    +0.191 HD
ATOM     23  C   UNL     1       4.291  -2.505  -6.051  0.00  0.00    +0.185 A 
ATOM     24  N   UNL     1       3.137  -2.527  -6.756  0.00  0.00    -0.253 N 
ATOM     25  N   UNL     1       2.128  -2.095  -5.881  0.00  0.00    -0.152 NA
BRANCH  20  29
ATOM     26  C   UNL     1       0.730  -0.434  -1.234  0.00  0.00    -0.048 A 
ATOM     27  C   UNL     1       0.005  -0.665  -2.389  0.00  0.00    +0.004 A 
ATOM     28  C   UNL     1       0.641  -1.119  -3.527  0.00  0.00    +0.012 A 
ATOM     29  C   UNL     1       2.016  -1.345  -3.510  0.00  0.00    +0.021 A 
ATOM     30  C   UNL     1       2.741  -1.111  -2.343  0.00  0.00    +0.012 A 
ATOM     31  C   UNL     1       2.095  -0.651  -1.213  0.00  0.00    +0.004 A 
BRANCH  26  33
ATOM     32  C   UNL     1       0.015   1.592   0.005  0.00  0.00    +0.009 C 
ATOM     33  C   UNL     1       0.029   0.062   0.005  0.00  0.00    +0.032 C 
ENDBRANCH  26  33
ENDBRANCH  20  29
ENDBRANCH  19  23
ENDBRANCH   1  19
TORSDOF 8
