REMARK  Name = ZINC04215428
REMARK  7 active torsions:
REMARK  status: ('A' for Active; 'I' for Inactive)
REMARK    1  A    between atoms: C_6  and  C_7
REMARK    2  A    between atoms: C_7  and  C_8
REMARK    3  A    between atoms: C_7  and  C_28
REMARK    4  A    between atoms: C_8  and  C_9
REMARK    5  A    between atoms: C_9  and  C_10
REMARK    6  A    between atoms: C_10  and  N_63
REMARK    7  A    between atoms: C_13  and  N_16
REMARK                            x       y       z     vdW  Elec       q    Type
REMARK                         _______ _______ _______ _____ _____    ______ ____
ROOT
ATOM      1  C   UNL     1       3.415  -0.037   0.455  0.00  0.00    -0.077 C 
ATOM      2  C   UNL     1       4.901  -0.296   0.193  0.00  0.00    +0.006 C 
ATOM      3  C   UNL     1       5.566   1.003  -0.270  0.00  0.00    +0.089 C 
ATOM      4  C   UNL     1       4.852   1.514  -1.524  0.00  0.00    +0.006 C 
ATOM      5  C   UNL     1       3.368   1.721  -1.212  0.00  0.00    -0.077 C 
ATOM      6  N   UNL     1       2.781   0.429  -0.796  0.00  0.00    +0.380 N 
ATOM      7  H   UNL     1       2.949  -0.266  -1.533  0.00  0.00    -0.082 HD
ENDROOT
BRANCH   3   8
ATOM      8  N   UNL     1       6.976   0.750  -0.579  0.00  0.00    -0.289 N 
ATOM      9  C   UNL     1       8.067   1.368   0.029  0.00  0.00    +0.070 A 
ATOM     10  C   UNL     1       8.185   2.318   1.032  0.00  0.00    +0.029 A 
ATOM     11  C   UNL     1       9.437   2.740   1.435  0.00  0.00    +0.022 A 
ATOM     12  C   UNL     1      10.575   2.213   0.846  0.00  0.00    +0.043 A 
ATOM     13  C   UNL     1      10.466   1.261  -0.150  0.00  0.00    +0.047 A 
ATOM     14  C   UNL     1       9.213   0.832  -0.561  0.00  0.00    +0.068 A 
ATOM     15  N   UNL     1       8.784  -0.088  -1.514  0.00  0.00    -0.306 N 
ATOM     16  H   UNL     1       9.356  -0.619  -2.090  0.00  0.00    +0.170 HD
ATOM     17  C   UNL     1       7.438  -0.115  -1.501  0.00  0.00    +0.328 A 
ATOM     18  O   UNL     1       6.744  -0.815  -2.215  0.00  0.00    -0.247 OA
ATOM     19 CL   UNL     1      12.143   2.749   1.362  0.00  0.00    -0.083 Cl
ENDBRANCH   3   8
BRANCH   6  20
ATOM     20  C   UNL     1       1.324   0.577  -0.599  0.00  0.00    -0.079 C 
BRANCH  20  21
ATOM     21  C   UNL     1       0.713  -0.810  -0.389  0.00  0.00    -0.018 C 
BRANCH  21  22
ATOM     22  C   UNL     1      -0.801  -0.677  -0.206  0.00  0.00    +0.011 C 
BRANCH  22  23
ATOM     23  C   UNL     1      -1.413  -2.063   0.004  0.00  0.00    +0.049 C 
BRANCH  23  29
ATOM     24  C   UNL     1      -0.347  -3.911   1.314  0.00  0.00    +0.007 A 
ATOM     25  C   UNL     1       0.124  -4.445   2.499  0.00  0.00    +0.038 A 
ATOM     26  C   UNL     1       0.028  -3.716   3.672  0.00  0.00    +0.123 A 
ATOM     27  C   UNL     1      -0.534  -2.451   3.655  0.00  0.00    +0.038 A 
ATOM     28  C   UNL     1      -1.000  -1.917   2.469  0.00  0.00    +0.007 A 
ATOM     29  C   UNL     1      -0.904  -2.646   1.298  0.00  0.00    -0.040 A 
ATOM     30  F   UNL     1       0.484  -4.238   4.831  0.00  0.00    -0.205 F 
ENDBRANCH  23  29
BRANCH  23  31
ATOM     31  C   UNL     1      -2.914  -1.947   0.062  0.00  0.00    -0.040 A 
ATOM     32  C   UNL     1      -3.504  -1.045   0.929  0.00  0.00    +0.007 A 
ATOM     33  C   UNL     1      -4.880  -0.934   0.979  0.00  0.00    +0.038 A 
ATOM     34  C   UNL     1      -5.669  -1.733   0.168  0.00  0.00    +0.123 A 
ATOM     35  C   UNL     1      -5.077  -2.639  -0.695  0.00  0.00    +0.038 A 
ATOM     36  C   UNL     1      -3.700  -2.745  -0.748  0.00  0.00    +0.007 A 
ATOM     37  F   UNL     1      -7.015  -1.628   0.220  0.00  0.00    -0.205 F 
ENDBRANCH  23  31
ENDBRANCH  22  23
ENDBRANCH  21  22
ENDBRANCH  20  21
ENDBRANCH   6  20
TORSDOF 7
