REMARK  Name = ZINC23132968
REMARK  13 active torsions:
REMARK  status: ('A' for Active; 'I' for Inactive)
REMARK    1  A    between atoms: C_1  and  C_2
REMARK    2  A    between atoms: C_2  and  C_3
REMARK    3  A    between atoms: C_3  and  C_4
REMARK    4  A    between atoms: C_3  and  C_5
REMARK    5  A    between atoms: C_3  and  C_6
REMARK    6  A    between atoms: N_14  and  C_18
REMARK    7  A    between atoms: C_18  and  C_19
REMARK    8  A    between atoms: N_21  and  C_22
REMARK    9  A    between atoms: C_22  and  C_23
REMARK   10  A    between atoms: C_23  and  C_25
REMARK   11  A    between atoms: C_23  and  N_30
REMARK   12  A    between atoms: N_30  and  C_31
REMARK   13  A    between atoms: N_30  and  C_32
REMARK                            x       y       z     vdW  Elec       q    Type
REMARK                         _______ _______ _______ _____ _____    ______ ____
ROOT
ATOM      1  C   UNL     1      -1.065  -4.371   1.460  0.00  0.00    -0.005 C 
ATOM      2  C   UNL     1       0.194  -4.555   2.310  0.00  0.00    +0.006 C 
ATOM      3  C   UNL     1       0.747  -5.967   2.101  0.00  0.00    +0.035 C 
ATOM      4  C   UNL     1       1.074  -6.176   0.627  0.00  0.00    +0.113 C 
ATOM      5  C   UNL     1      -0.166  -5.971  -0.236  0.00  0.00    +0.035 C 
ATOM      6  C   UNL     1      -0.716  -4.559  -0.018  0.00  0.00    +0.006 C 
ATOM      7  C   UNL     1       1.648  -7.556   0.405  0.00  0.00    +0.247 C 
ATOM      8  O   UNL     1       1.106  -8.620   0.619  0.00  0.00    -0.273 OA
ATOM      9  N   UNL     1       2.891  -7.356  -0.081  0.00  0.00    -0.215 N 
ATOM     10  C   UNL     1       3.172  -6.052  -0.193  0.00  0.00    +0.310 C 
ATOM     11  O   UNL     1       4.231  -5.623  -0.608  0.00  0.00    -0.252 OA
ATOM     12  N   UNL     1       2.150  -5.270   0.205  0.00  0.00    -0.285 N 
ATOM     13  H   UNL     1       2.006  -4.181   0.260  0.00  0.00    +0.151 HD
ENDROOT
BRANCH   1  14
ATOM     14  C   UNL     1      -1.626  -2.964   1.676  0.00  0.00    -0.032 C 
ATOM     15  C   UNL     1      -2.885  -2.781   0.827  0.00  0.00    +0.011 C 
ATOM     16  C   UNL     1      -0.578  -1.929   1.265  0.00  0.00    +0.011 C 
BRANCH  14  18
ATOM     17  C   UNL     1      -2.536  -1.370   3.370  0.00  0.00    +0.004 C 
ATOM     18  C   UNL     1      -1.976  -2.777   3.154  0.00  0.00    +0.003 C 
ENDBRANCH  14  18
ENDBRANCH   1  14
BRANCH   9  19
ATOM     19  C   UNL     1       3.817  -8.433  -0.441  0.00  0.00    +0.213 C 
BRANCH  19  20
ATOM     20  C   UNL     1       3.618  -8.804  -1.888  0.00  0.00    +0.231 C 
ATOM     21  O   UNL     1       2.784  -8.226  -2.553  0.00  0.00    -0.274 OA
ATOM     22  N   UNL     1       4.366  -9.778  -2.443  0.00  0.00    -0.315 N 
ATOM     23  H   UNL     1       5.122 -10.301  -1.840  0.00  0.00    +0.149 HD
BRANCH  22  24
ATOM     24  C   UNL     1       4.172 -10.139  -3.850  0.00  0.00    +0.093 C 
BRANCH  24  25
ATOM     25  C   UNL     1       5.139 -11.262  -4.226  0.00  0.00    -0.020 C 
BRANCH  25  26
ATOM     26  C   UNL     1       5.027 -11.550  -5.701  0.00  0.00    -0.052 A 
ATOM     27  C   UNL     1       4.841 -12.843  -6.152  0.00  0.00    +0.009 A 
ATOM     28  C   UNL     1       4.738 -13.066  -7.484  0.00  0.00    +0.045 A 
ATOM     29  S   UNL     1       4.918 -11.420  -8.150  0.00  0.00    -0.105 S 
ATOM     30  C   UNL     1       5.111 -10.544  -6.606  0.00  0.00    +0.047 A 
ENDBRANCH  25  26
BRANCH  25  31
ATOM     31  N   UNL     1       6.514 -10.851  -3.911  0.00  0.00    +0.382 N 
ATOM     32  C   UNL     1       7.448 -11.975  -4.065  0.00  0.00    -0.096 C 
ATOM     33  C   UNL     1       6.924  -9.708  -4.737  0.00  0.00    -0.096 C 
ATOM     34  H   UNL     1       6.539 -10.533  -2.858  0.00  0.00    -0.082 HD
ENDBRANCH  25  31
ENDBRANCH  24  25
ENDBRANCH  22  24
ENDBRANCH  19  20
ENDBRANCH   9  19
TORSDOF 8
