REMARK  Name = ZINC04865264
REMARK  6 active torsions:
REMARK  status: ('A' for Active; 'I' for Inactive)
REMARK    1  A    between atoms: C_1  and  C_2
REMARK    2  A    between atoms: C_2  and  C_3
REMARK    3  A    between atoms: C_2  and  C_4
REMARK    4  A    between atoms: C_7  and  C_10
REMARK    5  A    between atoms: N_11  and  N_12
REMARK    6  A    between atoms: C_13  and  C_15
REMARK                            x       y       z     vdW  Elec       q    Type
REMARK                         _______ _______ _______ _____ _____    ______ ____
ROOT
ATOM      1  N   UNL     1      -3.496   4.666   6.105  0.00  0.00    -0.200 N 
ATOM      2  C   UNL     1      -3.635   5.988   6.327  0.00  0.00    +0.299 C 
ATOM      3  O   UNL     1      -3.191   6.788   5.527  0.00  0.00    -0.265 OA
ATOM      4  H   UNL     1      -3.851   4.027   6.743  0.00  0.00    +0.178 HD
ENDROOT
BRANCH   2   5
ATOM      5  C   UNL     1      -4.330   6.466   7.545  0.00  0.00    +0.199 A 
ATOM      6  N   UNL     1      -4.453   7.816   7.738  0.00  0.00    -0.303 N 
ATOM      7  H   UNL     1      -4.077   8.451   7.064  0.00  0.00    +0.171 HD
ATOM      8  C   UNL     1      -5.081   8.296   8.838  0.00  0.00    +0.260 A 
ATOM      9  O   UNL     1      -5.201   9.492   9.025  0.00  0.00    -0.267 OA
ATOM     10  C   UNL     1      -5.614   7.314   9.796  0.00  0.00    +0.065 A 
ATOM     11  C   UNL     1      -6.276   7.705  10.956  0.00  0.00    +0.015 A 
ATOM     12  C   UNL     1      -6.757   6.746  11.822  0.00  0.00    +0.001 A 
ATOM     13  C   UNL     1      -6.586   5.396  11.546  0.00  0.00    +0.002 A 
ATOM     14  C   UNL     1      -5.934   4.986  10.405  0.00  0.00    +0.028 A 
ATOM     15  C   UNL     1      -5.438   5.940   9.511  0.00  0.00    +0.079 A 
ATOM     16  N   UNL     1      -4.799   5.580   8.380  0.00  0.00    -0.225 NA
ENDBRANCH   2   5
BRANCH   1  18
ATOM     17  C   UNL     1      -2.706   2.941   4.739  0.00  0.00    +0.138 C 
ATOM     18  N   UNL     1      -2.840   4.214   4.953  0.00  0.00    -0.187 NA
BRANCH  17  22
ATOM     19  C   UNL     1      -0.718   1.572   1.248  0.00  0.00    -0.045 A 
ATOM     20  C   UNL     1      -0.854   2.930   1.475  0.00  0.00    +0.004 A 
ATOM     21  C   UNL     1      -1.503   3.382   2.605  0.00  0.00    +0.010 A 
ATOM     22  C   UNL     1      -2.015   2.465   3.526  0.00  0.00    -0.005 A 
ATOM     23  C   UNL     1      -1.869   1.095   3.293  0.00  0.00    +0.010 A 
ATOM     24  C   UNL     1      -1.222   0.658   2.156  0.00  0.00    +0.004 A 
BRANCH  19  26
ATOM     25  C   UNL     1       1.423   1.615  -0.003  0.00  0.00    +0.012 C 
ATOM     26  C   UNL     1      -0.013   1.086   0.008  0.00  0.00    +0.013 C 
ATOM     27  C   UNL     1      -0.753   1.593  -1.232  0.00  0.00    +0.012 C 
ENDBRANCH  19  26
ENDBRANCH  17  22
ENDBRANCH   1  18
TORSDOF 4
