REMARK  Name = ZINC20720265
REMARK  2 active torsions:
REMARK  status: ('A' for Active; 'I' for Inactive)
REMARK    1  A    between atoms: C_7  and  C_11
REMARK    2  A    between atoms: C_24  and  C_27
REMARK                            x       y       z     vdW  Elec       q    Type
REMARK                         _______ _______ _______ _____ _____    ______ ____
ROOT
ATOM      1  C   UNL     1      -0.749  -0.535   0.100  0.00  0.00    +0.107 C 
ATOM      2  C   UNL     1      -0.914  -1.121  -1.294  0.00  0.00    +0.029 C 
ATOM      3  C   UNL     1      -2.160  -2.039  -1.347  0.00  0.00    +0.033 C 
ATOM      4  C   UNL     1      -2.639  -1.891  -2.779  0.00  0.00    -0.030 C 
ATOM      5  C   UNL     1      -2.184  -0.781  -3.302  0.00  0.00    -0.023 C 
ATOM      6  C   UNL     1      -1.332  -0.025  -2.295  0.00  0.00    +0.049 C 
ATOM      7  C   UNL     1      -2.200   1.015  -1.637  0.00  0.00    -0.019 A 
ATOM      8  C   UNL     1      -2.712   2.025  -2.440  0.00  0.00    +0.006 A 
ATOM      9  C   UNL     1      -3.514   3.018  -1.908  0.00  0.00    +0.001 A 
ATOM     10  C   UNL     1      -3.819   3.019  -0.564  0.00  0.00    +0.015 A 
ATOM     11  C   UNL     1      -3.315   2.011   0.258  0.00  0.00    +0.058 A 
ATOM     12  C   UNL     1      -2.499   1.000  -0.288  0.00  0.00    +0.044 A 
ATOM     13  N   UNL     1      -2.023   0.016   0.565  0.00  0.00    -0.336 N 
ATOM     14  H   UNL     1      -2.480  -0.361   1.492  0.00  0.00    +0.147 HD
ENDROOT
BRANCH   1  21
ATOM     15  C   UNL     1       3.938  -0.554   0.070  0.00  0.00    +0.001 A 
ATOM     16  C   UNL     1       4.484   0.722   0.030  0.00  0.00    +0.002 A 
ATOM     17  C   UNL     1       3.671   1.833   0.004  0.00  0.00    +0.026 A 
ATOM     18  C   UNL     1       2.288   1.678   0.018  0.00  0.00    +0.047 A 
ATOM     19  C   UNL     1       1.740   0.383   0.058  0.00  0.00    +0.005 A 
ATOM     20  C   UNL     1       2.583  -0.729   0.084  0.00  0.00    +0.010 A 
ATOM     21  C   UNL     1       0.286   0.559   0.062  0.00  0.00    -0.002 A 
ATOM     22  C   UNL     1       0.050   1.880   0.027  0.00  0.00    +0.089 A 
ATOM     23  N   UNL     1       1.235   2.565  -0.000  0.00  0.00    -0.360 N 
ATOM     24  H   UNL     1       1.427   3.647  -0.032  0.00  0.00    +0.165 HD
ENDBRANCH   1  21
BRANCH  11  25
ATOM     25  C   UNL     1      -3.635   2.003   1.697  0.00  0.00    +0.248 C 
ATOM     26  O   UNL     1      -2.757   1.801   2.514  0.00  0.00    -0.270 OA
ATOM     27  N   UNL     1      -4.900   2.221   2.107  0.00  0.00    -0.297 N 
ATOM     28  C   UNL     1      -6.070   2.376   1.230  0.00  0.00    +0.108 C 
ATOM     29  C   UNL     1      -7.292   2.631   2.138  0.00  0.00    +0.020 C 
ATOM     30  C   UNL     1      -6.648   3.175   3.440  0.00  0.00    +0.020 C 
ATOM     31  C   UNL     1      -5.339   2.350   3.509  0.00  0.00    +0.108 C 
ENDBRANCH  11  25
TORSDOF 2
