REMARK  Name = ZINC04649495
REMARK  5 active torsions:
REMARK  status: ('A' for Active; 'I' for Inactive)
REMARK    1  A    between atoms: C_1  and  O_2
REMARK    2  A    between atoms: O_2  and  C_3
REMARK    3  A    between atoms: N_5  and  C_6
REMARK    4  A    between atoms: C_9  and  N_12
REMARK    5  A    between atoms: C_13  and  C_15
REMARK                            x       y       z     vdW  Elec       q    Type
REMARK                         _______ _______ _______ _____ _____    ______ ____
ROOT
ATOM      1  N   UNL     1      -2.117   5.795  -0.990  0.00  0.00    -0.285 N 
ATOM      2  C   UNL     1      -1.521   5.117   0.011  0.00  0.00    +0.223 C 
ATOM      3  O   UNL     1      -1.007   5.719   0.930  0.00  0.00    -0.275 OA
ATOM      4  H   UNL     1      -2.469   5.317  -1.757  0.00  0.00    +0.155 HD
ENDROOT
BRANCH   2   5
ATOM      5  C   UNL     1      -1.495   3.610  -0.010  0.00  0.00    +0.048 C 
ATOM      6  C   UNL     1      -0.765   3.131  -1.267  0.00  0.00    +0.019 C 
ATOM      7  C   UNL     1      -0.738   1.602  -1.289  0.00  0.00    -0.009 C 
ATOM      8  C   UNL     1      -0.008   1.086  -0.047  0.00  0.00    +0.007 C 
ATOM      9  C   UNL     1      -0.738   1.565   1.209  0.00  0.00    -0.009 C 
ATOM     10  C   UNL     1      -0.765   3.095   1.231  0.00  0.00    +0.019 C 
ATOM     11  C   UNL     1      -2.171   1.030   1.201  0.00  0.00    +0.007 C 
ATOM     12  C   UNL     1      -2.902   1.546  -0.040  0.00  0.00    -0.009 C 
ATOM     13  C   UNL     1      -2.172   1.067  -1.297  0.00  0.00    +0.007 C 
ATOM     14  C   UNL     1      -2.928   3.075  -0.018  0.00  0.00    +0.019 C 
ENDBRANCH   2   5
BRANCH   1  18
ATOM     15  C   UNL     1      -2.444   9.947  -0.789  0.00  0.00    +0.037 A 
ATOM     16  C   UNL     1      -1.323   9.314  -0.271  0.00  0.00    +0.025 A 
ATOM     17  C   UNL     1      -1.214   7.939  -0.337  0.00  0.00    +0.025 A 
ATOM     18  C   UNL     1      -2.227   7.190  -0.922  0.00  0.00    +0.034 A 
ATOM     19  C   UNL     1      -3.346   7.824  -1.445  0.00  0.00    +0.025 A 
ATOM     20  C   UNL     1      -3.457   9.199  -1.374  0.00  0.00    +0.025 A 
BRANCH  15  23
ATOM     21  C   UNL     1      -3.760  11.915  -0.531  0.00  0.00    +0.404 C 
ATOM     22  O   UNL     1      -4.761  11.227  -0.502  0.00  0.00    -0.226 OA
ATOM     23  N   UNL     1      -2.555  11.343  -0.721  0.00  0.00    -0.251 N 
ATOM     24  H   UNL     1      -1.764  11.897  -0.810  0.00  0.00    +0.158 HD
BRANCH  21  26
ATOM     25  C   UNL     1      -5.185  13.796  -0.172  0.00  0.00    +0.282 C 
ATOM     26  O   UNL     1      -3.855  13.249  -0.372  0.00  0.00    -0.453 OA
ENDBRANCH  21  26
ENDBRANCH  15  23
ENDBRANCH   1  18
TORSDOF 4
