REMARK  Name = ZINC20519216
REMARK  5 active torsions:
REMARK  status: ('A' for Active; 'I' for Inactive)
REMARK    1  A    between atoms: C_1  and  O_2
REMARK    2  A    between atoms: O_2  and  C_3
REMARK    3  A    between atoms: C_13  and  C_18
REMARK    4  A    between atoms: N_24  and  C_27
REMARK    5  A    between atoms: C_31  and  C_33
REMARK                            x       y       z     vdW  Elec       q    Type
REMARK                         _______ _______ _______ _____ _____    ______ ____
ROOT
ATOM      1  C   UNL     1       4.283  -5.710  -4.983  0.00  0.00    +0.073 A 
ATOM      2  C   UNL     1       5.068  -4.896  -4.146  0.00  0.00    +0.260 A 
ATOM      3  N   UNL     1       6.035  -4.127  -4.683  0.00  0.00    -0.274 N 
ATOM      4  H   UNL     1       6.578  -3.564  -4.108  0.00  0.00    +0.173 HD
ATOM      5  C   UNL     1       6.255  -4.132  -6.011  0.00  0.00    +0.337 A 
ATOM      6  O   UNL     1       7.133  -3.432  -6.476  0.00  0.00    -0.246 OA
ATOM      7  N   UNL     1       5.517  -4.903  -6.831  0.00  0.00    -0.229 N 
ATOM      8  C   UNL     1       4.524  -5.706  -6.325  0.00  0.00    +0.267 A 
ATOM      9  O   UNL     1       3.789  -6.482  -7.150  0.00  0.00    -0.267 OA
ATOM     10  O   UNL     1       4.874  -4.887  -2.943  0.00  0.00    -0.267 OA
ENDROOT
BRANCH   1  21
ATOM     11  C   UNL     1      -1.165  -3.550  -1.405  0.00  0.00    +0.121 A 
ATOM     12  C   UNL     1      -1.092  -2.696  -2.502  0.00  0.00    +0.047 A 
ATOM     13  C   UNL     1      -0.210  -2.948  -3.529  0.00  0.00    +0.030 A 
ATOM     14  C   UNL     1       0.620  -4.063  -3.477  0.00  0.00    +0.047 A 
ATOM     15  C   UNL     1       0.549  -4.930  -2.369  0.00  0.00    +0.006 A 
ATOM     16  C   UNL     1      -0.347  -4.660  -1.332  0.00  0.00    +0.056 A 
ATOM     17  C   UNL     1       1.529  -5.977  -2.623  0.00  0.00    -0.022 A 
ATOM     18  C   UNL     1       2.115  -5.707  -3.808  0.00  0.00    +0.011 A 
ATOM     19  N   UNL     1       1.581  -4.567  -4.331  0.00  0.00    -0.359 N 
ATOM     20  H   UNL     1       1.838  -4.168  -5.177  0.00  0.00    +0.166 HD
ATOM     21  C   UNL     1       3.196  -6.578  -4.404  0.00  0.00    +0.018 C 
ATOM     22  N   UNL     1       3.752  -7.429  -3.341  0.00  0.00    +0.388 N 
ATOM     23  C   UNL     1       2.674  -8.151  -2.652  0.00  0.00    -0.076 C 
ATOM     24  C   UNL     1       1.880  -7.172  -1.774  0.00  0.00    +0.018 C 
ATOM     25  H   UNL     1       4.394  -8.093  -3.745  0.00  0.00    -0.084 HD
ATOM     26  H   UNL     1       4.246  -6.852  -2.676  0.00  0.00    -0.084 HD
BRANCH  11  28
ATOM     27  C   UNL     1      -2.858  -2.124  -0.539  0.00  0.00    +0.277 C 
ATOM     28  O   UNL     1      -2.041  -3.288  -0.399  0.00  0.00    -0.495 OA
ENDBRANCH  11  28
ENDBRANCH   1  21
BRANCH   7  29
ATOM     29  C   UNL     1       5.766  -4.889  -8.210  0.00  0.00    +0.055 A 
ATOM     30  C   UNL     1       6.678  -5.781  -8.760  0.00  0.00    +0.026 A 
ATOM     31  C   UNL     1       6.922  -5.765 -10.119  0.00  0.00    +0.003 A 
ATOM     32  C   UNL     1       6.260  -4.863 -10.932  0.00  0.00    +0.012 A 
ATOM     33  C   UNL     1       5.352  -3.974 -10.387  0.00  0.00    +0.057 A 
ATOM     34  C   UNL     1       5.099  -3.989  -9.029  0.00  0.00    +0.038 A 
BRANCH  33  35
ATOM     35  C   UNL     1       4.633  -2.992 -11.276  0.00  0.00    +0.417 C 
ATOM     36  F   UNL     1       5.048  -3.171 -12.600  0.00  0.00    -0.166 F 
ATOM     37  F   UNL     1       3.254  -3.205 -11.186  0.00  0.00    -0.166 F 
ATOM     38  F   UNL     1       4.931  -1.688 -10.866  0.00  0.00    -0.166 F 
ENDBRANCH  33  35
ENDBRANCH   7  29
TORSDOF 4
