REMARK  Name = ZINC23618270
REMARK  4 active torsions:
REMARK  status: ('A' for Active; 'I' for Inactive)
REMARK    1  A    between atoms: C_10  and  S_14
REMARK    2  A    between atoms: S_14  and  C_15
REMARK    3  A    between atoms: C_19  and  C_21
REMARK    4  A    between atoms: C_21  and  C_22
REMARK                            x       y       z     vdW  Elec       q    Type
REMARK                         _______ _______ _______ _____ _____    ______ ____
ROOT
ATOM      1  C   UNL     1      -0.013   1.076   0.008  0.00  0.00    +0.001 A 
ATOM      2  C   UNL     1      -1.224   1.751   0.017  0.00  0.00    +0.004 A 
ATOM      3  C   UNL     1      -1.259   3.129   0.029  0.00  0.00    +0.047 A 
ATOM      4  C   UNL     1      -0.074   3.856   0.023  0.00  0.00    +0.138 A 
ATOM      5  C   UNL     1       1.150   3.171   0.008  0.00  0.00    +0.046 A 
ATOM      6  C   UNL     1       1.173   1.779   0.000  0.00  0.00    +0.014 A 
ATOM      7  C   UNL     1       2.190   4.213   0.003  0.00  0.00    +0.121 A 
ATOM      8  C   UNL     1       1.503   5.433   0.016  0.00  0.00    +0.186 A 
ATOM      9  O   UNL     1       0.178   5.184   0.027  0.00  0.00    -0.451 OA
ATOM     10  C   UNL     1       2.261   6.610   0.014  0.00  0.00    +0.150 A 
ATOM     11  N   UNL     1       3.587   6.517   0.001  0.00  0.00    -0.225 NA
ATOM     12  C   UNL     1       4.191   5.345  -0.011  0.00  0.00    +0.223 A 
ATOM     13  N   UNL     1       3.521   4.211  -0.010  0.00  0.00    -0.232 NA
ENDROOT
BRANCH  10  14
ATOM     14  S   UNL     1       1.471   8.185   0.030  0.00  0.00    -0.027 S 
BRANCH  14  15
ATOM     15  C   UNL     1       2.885   9.236   0.021  0.00  0.00    +0.191 A 
ATOM     16  N   UNL     1       2.873  10.587   0.023  0.00  0.00    -0.253 N 
ATOM     17  H   UNL     1       1.915  11.128   0.028  0.00  0.00    +0.191 HD
ATOM     18  N   UNL     1       4.217  10.994   0.017  0.00  0.00    -0.156 NA
ATOM     19  C   UNL     1       4.944   9.909   0.004  0.00  0.00    +0.157 A 
ATOM     20  N   UNL     1       4.142   8.845   0.006  0.00  0.00    -0.205 NA
BRANCH  19  21
ATOM     21  C   UNL     1       6.451   9.868  -0.012  0.00  0.00    +0.120 C 
BRANCH  21  22
ATOM     22  C   UNL     1       6.938   9.862  -1.438  0.00  0.00    -0.003 A 
ATOM     23  C   UNL     1       7.237  10.912  -2.242  0.00  0.00    +0.011 A 
ATOM     24  C   UNL     1       7.676  10.666  -3.530  0.00  0.00    +0.008 A 
ATOM     25  C   UNL     1       7.782   9.383  -3.954  0.00  0.00    +0.045 A 
ATOM     26  S   UNL     1       7.263   8.472  -2.510  0.00  0.00    -0.101 S 
ENDBRANCH  21  22
ENDBRANCH  19  21
ENDBRANCH  14  15
ENDBRANCH  10  14
TORSDOF 4
