REMARK  Name = ZINC36342408
REMARK  8 active torsions:
REMARK  status: ('A' for Active; 'I' for Inactive)
REMARK    1  A    between atoms: C_1  and  C_2
REMARK    2  A    between atoms: C_2  and  O_3
REMARK    3  A    between atoms: O_3  and  C_4
REMARK    4  A    between atoms: C_4  and  C_6
REMARK    5  A    between atoms: N_12  and  C_13
REMARK    6  A    between atoms: C_13  and  C_14
REMARK    7  A    between atoms: C_17  and  C_29
REMARK    8  A    between atoms: C_20  and  C_22
REMARK                            x       y       z     vdW  Elec       q    Type
REMARK                         _______ _______ _______ _____ _____    ______ ____
ROOT
ATOM      1  C   UNL     1      -1.951  -5.717  -1.475  0.00  0.00    +0.219 C 
ATOM      2  O   UNL     1      -2.448  -6.436  -0.634  0.00  0.00    -0.276 OA
ATOM      3  N   UNL     1      -1.312  -6.258  -2.532  0.00  0.00    -0.187 N 
ATOM      4  C   UNL     1      -1.150  -7.698  -2.788  0.00  0.00    +0.137 C 
ATOM      5  C   UNL     1      -0.355  -7.742  -4.108  0.00  0.00    +0.087 C 
ATOM      6  C   UNL     1      -0.151  -6.286  -4.460  0.00  0.00    +0.069 C 
ATOM      7  N   UNL     1      -0.703  -5.545  -3.562  0.00  0.00    -0.181 NA
ENDROOT
BRANCH   4   8
ATOM      8  C   UNL     1      -0.372  -8.350  -1.675  0.00  0.00    -0.021 A 
ATOM      9  C   UNL     1       0.689  -7.683  -1.091  0.00  0.00    +0.009 A 
ATOM     10  C   UNL     1       1.405  -8.278  -0.068  0.00  0.00    +0.050 A 
ATOM     11  C   UNL     1       1.060  -9.545   0.373  0.00  0.00    +0.166 A 
ATOM     12  C   UNL     1      -0.008 -10.217  -0.215  0.00  0.00    +0.167 A 
ATOM     13  C   UNL     1      -0.725  -9.613  -1.235  0.00  0.00    +0.055 A 
ATOM     14  O   UNL     1      -0.144 -11.434   0.389  0.00  0.00    -0.453 OA
ATOM     15  C   UNL     1       1.103 -11.666   1.071  0.00  0.00    +0.466 C 
ATOM     16  O   UNL     1       1.594 -10.340   1.346  0.00  0.00    -0.453 OA
ENDBRANCH   4   8
BRANCH   6  17
ATOM     17  C   UNL     1       0.564  -5.790  -5.650  0.00  0.00    -0.002 A 
ATOM     18  C   UNL     1       1.113  -6.692  -6.565  0.00  0.00    +0.012 A 
ATOM     19  C   UNL     1       1.781  -6.222  -7.676  0.00  0.00    +0.039 A 
ATOM     20  C   UNL     1       1.907  -4.858  -7.887  0.00  0.00    +0.123 A 
ATOM     21  C   UNL     1       1.365  -3.958  -6.983  0.00  0.00    +0.039 A 
ATOM     22  C   UNL     1       0.690  -4.416  -5.871  0.00  0.00    +0.012 A 
ATOM     23  F   UNL     1       2.562  -4.404  -8.978  0.00  0.00    -0.205 F 
ENDBRANCH   6  17
BRANCH   1  24
ATOM     24  C   UNL     1      -2.049  -4.219  -1.340  0.00  0.00    +0.022 C 
BRANCH  24  30
ATOM     25  C   UNL     1      -2.737  -2.435   0.106  0.00  0.00    +0.043 C 
ATOM     26  C   UNL     1      -3.435  -2.091   1.423  0.00  0.00    -0.004 C 
ATOM     27  C   UNL     1      -4.895  -2.549   1.356  0.00  0.00    -0.003 C 
ATOM     28  C   UNL     1      -4.935  -4.050   1.052  0.00  0.00    -0.019 C 
ATOM     29  C   UNL     1      -4.182  -4.321  -0.252  0.00  0.00    -0.077 C 
ATOM     30  N   UNL     1      -2.787  -3.885  -0.114  0.00  0.00    +0.394 N 
ATOM     31  H   UNL     1      -2.364  -4.358   0.670  0.00  0.00    -0.080 HD
BRANCH  25  32
ATOM     32  C   UNL     1      -1.300  -1.986   0.167  0.00  0.00    +0.293 C 
ATOM     33  O   UNL     1      -0.445  -2.747   0.556  0.00  0.00    -0.253 OA
BRANCH  32  34
ATOM     34  O   UNL     1      -0.969  -0.741  -0.210  0.00  0.00    -0.466 OA
BRANCH  34  36
ATOM     35  C   UNL     1       0.594   1.062  -0.594  0.00  0.00    +0.048 C 
ATOM     36  C   UNL     1       0.412  -0.383  -0.126  0.00  0.00    +0.228 C 
ENDBRANCH  34  36
ENDBRANCH  32  34
ENDBRANCH  25  32
ENDBRANCH  24  30
ENDBRANCH   1  24
TORSDOF 7
