REMARK  Name = ZINC14474629
REMARK  8 active torsions:
REMARK  status: ('A' for Active; 'I' for Inactive)
REMARK    1  A    between atoms: C_1  and  C_2
REMARK    2  A    between atoms: C_2  and  C_3
REMARK    3  A    between atoms: C_3  and  C_5
REMARK    4  A    between atoms: C_3  and  N_6
REMARK    5  A    between atoms: N_6  and  S_7
REMARK    6  A    between atoms: S_7  and  C_10
REMARK    7  A    between atoms: C_23  and  C_26
REMARK    8  A    between atoms: C_31  and  O_32
REMARK                            x       y       z     vdW  Elec       q    Type
REMARK                         _______ _______ _______ _____ _____    ______ ____
ROOT
ATOM      1  C   UNL     1       2.567   0.936  -0.171  0.00  0.00    +0.106 A 
ATOM      2  C   UNL     1       2.300   2.293  -0.168  0.00  0.00    +0.030 A 
ATOM      3  C   UNL     1       0.992   2.733  -0.115  0.00  0.00    +0.025 A 
ATOM      4  C   UNL     1      -0.049   1.814  -0.067  0.00  0.00    +0.031 A 
ATOM      5  C   UNL     1       0.215   0.453  -0.068  0.00  0.00    -0.018 A 
ATOM      6  C   UNL     1       1.534   0.023  -0.121  0.00  0.00    +0.034 A 
ATOM      7  C   UNL     1      -0.873  -0.573  -0.011  0.00  0.00    +0.049 C 
ATOM      8  C   UNL     1      -1.082  -1.230  -1.355  0.00  0.00    -0.023 C 
ATOM      9  C   UNL     1      -2.340  -1.495  -1.549  0.00  0.00    -0.030 C 
ATOM     10  C   UNL     1      -3.165  -1.030  -0.365  0.00  0.00    +0.033 C 
ATOM     11  C   UNL     1      -2.252   0.031   0.317  0.00  0.00    +0.029 C 
ATOM     12  C   UNL     1      -2.439   1.348  -0.441  0.00  0.00    +0.108 C 
ATOM     13  N   UNL     1      -1.369   2.275  -0.023  0.00  0.00    -0.336 N 
ATOM     14  H   UNL     1      -1.570   3.181   0.258  0.00  0.00    +0.147 HD
ENDROOT
BRANCH  12  15
ATOM     15  C   UNL     1      -2.371   1.091  -1.924  0.00  0.00    +0.014 A 
ATOM     16  C   UNL     1      -1.157   1.146  -2.581  0.00  0.00    +0.009 A 
ATOM     17  C   UNL     1      -1.094   0.906  -3.941  0.00  0.00    +0.001 A 
ATOM     18  C   UNL     1      -2.246   0.619  -4.649  0.00  0.00    +0.004 A 
ATOM     19  C   UNL     1      -3.463   0.567  -3.998  0.00  0.00    +0.046 A 
ATOM     20  C   UNL     1      -3.529   0.803  -2.632  0.00  0.00    +0.122 A 
BRANCH  20  21
ATOM     21  O   UNL     1      -4.725   0.753  -1.990  0.00  0.00    -0.506 OA
ATOM     22  H   UNL     1      -5.191   1.600  -1.959  0.00  0.00    +0.292 HD
ENDBRANCH  20  21
ENDBRANCH  12  15
BRANCH   1  23
ATOM     23  S   UNL     1       4.235   0.371  -0.240  0.00  0.00    +0.059 S 
ATOM     24  O   UNL     1       5.042   1.423   0.271  0.00  0.00    -0.153 OA
ATOM     25  O   UNL     1       4.244  -0.935   0.319  0.00  0.00    -0.153 OA
BRANCH  23  26
ATOM     26  N   UNL     1       4.630   0.205  -1.839  0.00  0.00    -0.187 NA
ATOM     27  H   UNL     1       4.827  -0.673  -2.201  0.00  0.00    +0.148 HD
BRANCH  26  28
ATOM     28  C   UNL     1       4.681   1.384  -2.707  0.00  0.00    +0.073 C 
ATOM     29  C   UNL     1       3.343   1.543  -3.431  0.00  0.00    +0.025 C 
BRANCH  28  31
ATOM     30  C   UNL     1       7.151   1.177  -3.020  0.00  0.00    +0.005 C 
ATOM     31  C   UNL     1       5.800   1.211  -3.736  0.00  0.00    +0.017 C 
ENDBRANCH  28  31
ENDBRANCH  26  28
ENDBRANCH  23  26
ENDBRANCH   1  23
TORSDOF 6
