REMARK  Name = ZINC12361006
REMARK  7 active torsions:
REMARK  status: ('A' for Active; 'I' for Inactive)
REMARK    1  A    between atoms: C_1  and  C_2
REMARK    2  A    between atoms: C_5  and  S_8
REMARK    3  A    between atoms: S_8  and  N_11
REMARK    4  A    between atoms: C_15  and  C_17
REMARK    5  A    between atoms: N_19  and  C_20
REMARK    6  A    between atoms: C_21  and  C_31
REMARK    7  A    between atoms: C_26  and  C_30
REMARK                            x       y       z     vdW  Elec       q    Type
REMARK                         _______ _______ _______ _____ _____    ______ ____
ROOT
ATOM      1  C   UNL     1      -1.923   7.653   2.206  0.00  0.00    +0.236 C 
ATOM      2  O   UNL     1      -2.235   8.016   1.091  0.00  0.00    -0.274 OA
ATOM      3  N   UNL     1      -1.473   6.399   2.405  0.00  0.00    -0.278 N 
ATOM      4  H   UNL     1      -1.223   6.109   3.297  0.00  0.00    +0.155 HD
ENDROOT
BRANCH   3   5
ATOM      5  C   UNL     1      -1.365   5.523   1.336  0.00  0.00    +0.084 A 
ATOM      6  C   UNL     1      -0.927   4.206   1.341  0.00  0.00    +0.068 A 
ATOM      7  C   UNL     1      -0.910   3.499   0.071  0.00  0.00    -0.023 A 
ATOM      8  C   UNL     1      -1.331   4.217  -0.992  0.00  0.00    -0.004 A 
ATOM      9  S   UNL     1      -1.745   5.806  -0.331  0.00  0.00    -0.077 S 
ATOM     10  C   UNL     1      -1.423   3.756  -2.414  0.00  0.00    +0.046 C 
ATOM     11  C   UNL     1      -1.321   2.224  -2.433  0.00  0.00    -0.009 C 
ATOM     12  C   UNL     1      -0.137   1.797  -1.562  0.00  0.00    +0.008 C 
ATOM     13  C   UNL     1      -0.458   2.053  -0.088  0.00  0.00    +0.037 C 
ATOM     14  C   UNL     1      -1.102   1.742  -3.868  0.00  0.00    +0.008 C 
BRANCH   6  15
ATOM     15  C   UNL     1      -0.497   3.552   2.581  0.00  0.00    +0.244 C 
ATOM     16  O   UNL     1       0.669   3.610   2.926  0.00  0.00    -0.270 OA
ATOM     17  N   UNL     1      -1.393   2.889   3.338  0.00  0.00    -0.325 N 
ATOM     18  H   UNL     1      -2.321   2.843   3.063  0.00  0.00    +0.145 HD
ATOM     19  H   UNL     1      -1.108   2.456   4.159  0.00  0.00    +0.145 HD
ENDBRANCH   6  15
ENDBRANCH   3   5
BRANCH   1  24
ATOM     20  N   UNL     1      -1.924   9.992   2.892  0.00  0.00    -0.165 NA
ATOM     21  C   UNL     1      -3.178  10.704   3.200  0.00  0.00    +0.110 C 
ATOM     22  C   UNL     1      -3.794   9.926   4.389  0.00  0.00    +0.019 C 
ATOM     23  C   UNL     1      -3.427   8.459   4.029  0.00  0.00    +0.031 C 
ATOM     24  C   UNL     1      -2.040   8.606   3.368  0.00  0.00    +0.166 C 
BRANCH  20  25
ATOM     25  S   UNL     1      -0.604  10.645   2.135  0.00  0.00    +0.062 S 
ATOM     26  O   UNL     1       0.176   9.554   1.665  0.00  0.00    -0.153 OA
ATOM     27  O   UNL     1      -1.093  11.660   1.269  0.00  0.00    -0.153 OA
BRANCH  25  32
ATOM     28  C   UNL     1       2.686  13.423   6.361  0.00  0.00    +0.044 C 
ATOM     29  C   UNL     1       1.864  12.729   5.306  0.00  0.00    -0.050 A 
ATOM     30  C   UNL     1       2.163  11.430   4.941  0.00  0.00    +0.005 A 
ATOM     31  C   UNL     1       1.409  10.793   3.972  0.00  0.00    +0.029 A 
ATOM     32  C   UNL     1       0.357  11.456   3.369  0.00  0.00    +0.106 A 
ATOM     33  C   UNL     1       0.061  12.757   3.731  0.00  0.00    +0.029 A 
ATOM     34  C   UNL     1       0.811  13.392   4.703  0.00  0.00    +0.005 A 
ENDBRANCH  25  32
ENDBRANCH  20  25
ENDBRANCH   1  24
TORSDOF 5
