REMARK  Name = ZINC24095374
REMARK  14 active torsions:
REMARK  status: ('A' for Active; 'I' for Inactive)
REMARK    1  A    between atoms: C_1  and  C_2
REMARK    2  A    between atoms: C_2  and  C_3
REMARK    3  A    between atoms: C_2  and  C_4
REMARK    4  A    between atoms: C_2  and  C_5
REMARK    5  A    between atoms: C_5  and  C_6
REMARK    6  A    between atoms: C_6  and  C_7
REMARK    7  A    between atoms: C_6  and  C_8
REMARK    8  A    between atoms: C_6  and  C_9
REMARK    9  A    between atoms: C_12  and  O_15
REMARK   10  A    between atoms: O_15  and  C_16
REMARK   11  A    between atoms: C_16  and  C_17
REMARK   12  A    between atoms: C_17  and  C_19
REMARK   13  A    between atoms: C_17  and  O_36
REMARK   14  A    between atoms: C_19  and  N_20
REMARK                            x       y       z     vdW  Elec       q    Type
REMARK                         _______ _______ _______ _____ _____    ______ ____
ROOT
ATOM      1  C   UNL     1       6.666  -3.855  -6.954  0.00  0.00    +0.170 C 
ENDROOT
BRANCH   1   2
ATOM      2  O   UNL     1       6.116  -3.396  -8.190  0.00  0.00    -0.387 OA
ATOM      3  H   UNL     1       6.240  -2.450  -8.349  0.00  0.00    +0.210 HD
ENDBRANCH   1   2
BRANCH   1   4
ATOM      4  C   UNL     1       6.003  -3.111  -5.793  0.00  0.00    +0.261 C 
BRANCH   4   5
ATOM      5  O   UNL     1       4.616  -3.453  -5.739  0.00  0.00    -0.489 OA
BRANCH   5   9
ATOM      6  C   UNL     1       2.369  -1.696  -2.759  0.00  0.00    -0.041 A 
ATOM      7  C   UNL     1       1.772  -2.571  -3.648  0.00  0.00    +0.008 A 
ATOM      8  C   UNL     1       2.523  -3.160  -4.647  0.00  0.00    +0.046 A 
ATOM      9  C   UNL     1       3.876  -2.874  -4.758  0.00  0.00    +0.121 A 
ATOM     10  C   UNL     1       4.471  -1.996  -3.864  0.00  0.00    +0.046 A 
ATOM     11  C   UNL     1       3.716  -1.405  -2.870  0.00  0.00    +0.008 A 
BRANCH   6  12
ATOM     12  C   UNL     1       1.548  -1.055  -1.669  0.00  0.00    -0.009 C 
ATOM     13  C   UNL     1       1.586   0.466  -1.831  0.00  0.00    +0.016 C 
ATOM     14  C   UNL     1       2.124  -1.437  -0.305  0.00  0.00    +0.016 C 
BRANCH  12  15
ATOM     15  C   UNL     1       0.101  -1.543  -1.767  0.00  0.00    +0.017 C 
BRANCH  15  17
ATOM     16  C   UNL     1      -0.806   0.782  -1.890  0.00  0.00    +0.010 C 
ATOM     17  C   UNL     1      -0.826  -0.526  -1.097  0.00  0.00    -0.037 C 
ATOM     18  C   UNL     1      -0.347  -0.264   0.332  0.00  0.00    +0.010 C 
ATOM     19  C   UNL     1      -2.252  -1.081  -1.064  0.00  0.00    +0.010 C 
ENDBRANCH  15  17
ENDBRANCH  12  15
ENDBRANCH   6  12
ENDBRANCH   5   9
ENDBRANCH   4   5
ENDBRANCH   1   4
BRANCH   1  20
ATOM     20  C   UNL     1       8.173  -3.588  -6.936  0.00  0.00    +0.152 C 
BRANCH  20  21
ATOM     21  N   UNL     1       8.808  -4.300  -8.047  0.00  0.00    -0.221 N 
ATOM     22  C   UNL     1       9.282  -5.560  -7.968  0.00  0.00    +0.251 C 
ATOM     23  O   UNL     1       9.265  -6.292  -7.002  0.00  0.00    -0.272 OA
ATOM     24  C   UNL     1       9.840  -5.868  -9.339  0.00  0.00    +0.144 C 
ATOM     25  C   UNL     1      11.335  -6.159  -9.251  0.00  0.00    +0.081 C 
ATOM     26  C   UNL     1      11.798  -6.725 -10.600  0.00  0.00    +0.232 C 
ATOM     27  O   UNL     1      11.132  -7.969 -10.821  0.00  0.00    -0.492 OA
ATOM     28  C   UNL     1       9.784  -8.009 -10.659  0.00  0.00    +0.126 A 
ATOM     29  C   UNL     1       9.107  -7.028  -9.953  0.00  0.00    +0.027 A 
ATOM     30  C   UNL     1       7.733  -7.109  -9.808  0.00  0.00    +0.010 A 
ATOM     31  C   UNL     1       7.034  -8.162 -10.365  0.00  0.00    +0.001 A 
ATOM     32  C   UNL     1       7.706  -9.142 -11.072  0.00  0.00    +0.004 A 
ATOM     33  C   UNL     1       9.076  -9.067 -11.220  0.00  0.00    +0.046 A 
ATOM     34  N   UNL     1       9.598  -4.641 -10.107  0.00  0.00    -0.281 N 
ATOM     35  C   UNL     1       8.985  -3.782  -9.269  0.00  0.00    +0.310 C 
ATOM     36  O   UNL     1       8.635  -2.662  -9.586  0.00  0.00    -0.252 OA
ATOM     37  H   UNL     1       9.830  -4.481 -11.035  0.00  0.00    +0.152 HD
ENDBRANCH  20  21
ENDBRANCH   1  20
TORSDOF 9
