REMARK  Name = ZINC04775446
REMARK  6 active torsions:
REMARK  status: ('A' for Active; 'I' for Inactive)
REMARK    1  A    between atoms: C_3  and  O_19
REMARK    2  A    between atoms: C_6  and  C_7
REMARK    3  A    between atoms: N_8  and  N_9
REMARK    4  A    between atoms: C_10  and  C_12
REMARK    5  A    between atoms: O_19  and  C_20
REMARK    6  A    between atoms: C_20  and  C_22
REMARK                            x       y       z     vdW  Elec       q    Type
REMARK                         _______ _______ _______ _____ _____    ______ ____
ROOT
ATOM      1  C   UNL     1       3.160  -6.670  -1.460  0.00  0.00    +0.013 A 
ATOM      2  C   UNL     1       3.314  -5.390  -1.946  0.00  0.00    +0.047 A 
ATOM      3  C   UNL     1       2.317  -4.444  -1.745  0.00  0.00    +0.132 A 
ATOM      4  C   UNL     1       1.163  -4.781  -1.048  0.00  0.00    +0.047 A 
ATOM      5  C   UNL     1       0.999  -6.060  -0.563  0.00  0.00    +0.013 A 
ATOM      6  C   UNL     1       1.999  -7.015  -0.763  0.00  0.00    -0.005 A 
ENDROOT
BRANCH   6   7
ATOM      7  C   UNL     1       1.829  -8.383  -0.241  0.00  0.00    +0.138 C 
ATOM      8  N   UNL     1       2.865  -9.149  -0.080  0.00  0.00    -0.187 NA
BRANCH   8   9
ATOM      9  N   UNL     1       4.147  -8.589  -0.015  0.00  0.00    -0.203 N 
ATOM     10  C   UNL     1       5.232  -9.389   0.007  0.00  0.00    +0.263 C 
ATOM     11  O   UNL     1       5.097 -10.597  -0.029  0.00  0.00    -0.268 OA
ATOM     12  H   UNL     1       4.255  -7.625   0.014  0.00  0.00    +0.178 HD
BRANCH  10  13
ATOM     13  C   UNL     1       6.584  -8.799   0.076  0.00  0.00    +0.038 A 
ATOM     14  C   UNL     1       6.742  -7.412   0.112  0.00  0.00    +0.014 A 
ATOM     15  C   UNL     1       8.007  -6.866   0.181  0.00  0.00    +0.021 A 
ATOM     16  C   UNL     1       9.120  -7.691   0.204  0.00  0.00    +0.041 A 
ATOM     17  C   UNL     1       8.969  -9.068   0.163  0.00  0.00    +0.021 A 
ATOM     18  C   UNL     1       7.710  -9.625   0.099  0.00  0.00    +0.014 A 
ATOM     19 CL   UNL     1      10.709  -6.997   0.285  0.00  0.00    -0.084 Cl
ENDBRANCH  10  13
ENDBRANCH   8   9
ENDBRANCH   6   7
BRANCH   3  20
ATOM     20  O   UNL     1       2.473  -3.183  -2.227  0.00  0.00    -0.422 OA
BRANCH  20  21
ATOM     21  C   UNL     1       1.794  -2.868  -3.348  0.00  0.00    +0.344 C 
ATOM     22  O   UNL     1       1.161  -3.723  -3.935  0.00  0.00    -0.245 OA
BRANCH  21  23
ATOM     23  C   UNL     1       1.822  -1.485  -3.864  0.00  0.00    +0.059 A 
ATOM     24  C   UNL     1       1.120  -1.155  -5.026  0.00  0.00    +0.016 A 
ATOM     25  C   UNL     1       1.149   0.138  -5.502  0.00  0.00    +0.021 A 
ATOM     26  C   UNL     1       1.873   1.110  -4.830  0.00  0.00    +0.041 A 
ATOM     27  C   UNL     1       2.571   0.790  -3.678  0.00  0.00    +0.021 A 
ATOM     28  C   UNL     1       2.550  -0.500  -3.191  0.00  0.00    +0.016 A 
ATOM     29 CL   UNL     1       1.905   2.737  -5.436  0.00  0.00    -0.084 Cl
ENDBRANCH  21  23
ENDBRANCH  20  21
ENDBRANCH   3  20
TORSDOF 6
