REMARK  Name = ZINC14470920
REMARK  7 active torsions:
REMARK  status: ('A' for Active; 'I' for Inactive)
REMARK    1  A    between atoms: C_1  and  C_2
REMARK    2  A    between atoms: C_6  and  C_38
REMARK    3  A    between atoms: C_7  and  N_8
REMARK    4  A    between atoms: N_8  and  S_9
REMARK    5  A    between atoms: S_9  and  C_12
REMARK    6  A    between atoms: C_25  and  C_28
REMARK    7  A    between atoms: C_32  and  N_34
REMARK                            x       y       z     vdW  Elec       q    Type
REMARK                         _______ _______ _______ _____ _____    ______ ____
ROOT
ATOM      1  C   UNL     1      -4.407   6.162  -0.616  0.00  0.00    +0.109 A 
ATOM      2  C   UNL     1      -3.970   6.411   0.672  0.00  0.00    +0.030 A 
ATOM      3  C   UNL     1      -2.663   6.800   0.888  0.00  0.00    +0.025 A 
ATOM      4  C   UNL     1      -1.793   6.941  -0.186  0.00  0.00    +0.031 A 
ATOM      5  C   UNL     1      -2.227   6.694  -1.479  0.00  0.00    -0.018 A 
ATOM      6  C   UNL     1      -3.543   6.302  -1.683  0.00  0.00    +0.034 A 
ATOM      7  C   UNL     1      -1.328   6.835  -2.666  0.00  0.00    +0.049 C 
ATOM      8  C   UNL     1      -0.872   5.481  -3.216  0.00  0.00    -0.023 C 
ATOM      9  C   UNL     1       0.367   5.550  -3.638  0.00  0.00    -0.030 C 
ATOM     10  C   UNL     1       0.917   6.950  -3.441  0.00  0.00    +0.033 C 
ATOM     11  C   UNL     1      -0.002   7.546  -2.335  0.00  0.00    +0.029 C 
ATOM     12  C   UNL     1       0.531   7.056  -0.986  0.00  0.00    +0.105 C 
ATOM     13  N   UNL     1      -0.479   7.312   0.046  0.00  0.00    -0.336 N 
ATOM     14  H   UNL     1      -0.241   7.753   0.876  0.00  0.00    +0.147 HD
ENDROOT
BRANCH  12  15
ATOM     15  C   UNL     1       0.812   5.577  -1.061  0.00  0.00    -0.025 A 
ATOM     16  C   UNL     1      -0.225   4.670  -0.941  0.00  0.00    +0.007 A 
ATOM     17  C   UNL     1       0.031   3.314  -1.017  0.00  0.00    +0.022 A 
ATOM     18  C   UNL     1       1.326   2.864  -1.201  0.00  0.00    +0.071 A 
ATOM     19  C   UNL     1       2.363   3.772  -1.321  0.00  0.00    +0.145 A 
ATOM     20  C   UNL     1       2.105   5.128  -1.251  0.00  0.00    +0.039 A 
ATOM     21 CL   UNL     1       1.649   1.161  -1.288  0.00  0.00    -0.081 Cl
BRANCH  19  22
ATOM     22  N   UNL     1       3.748   3.291  -1.523  0.00  0.00    +0.058 N 
ATOM     23  O   UNL     1       4.661   4.091  -1.629  0.00  0.00    -0.126 OA
ATOM     24  O   UNL     1       3.975   2.096  -1.584  0.00  0.00    -0.126 OA
ENDBRANCH  19  22
ENDBRANCH  12  15
BRANCH   1  25
ATOM     25  S   UNL     1      -6.074   5.666  -0.896  0.00  0.00    +0.072 S 
ATOM     26  O   UNL     1      -6.109   5.071  -2.186  0.00  0.00    -0.150 OA
ATOM     27  O   UNL     1      -6.494   4.976   0.273  0.00  0.00    -0.150 OA
BRANCH  25  28
ATOM     28  N   UNL     1      -6.987   7.044  -0.986  0.00  0.00    -0.216 N 
ATOM     29  H   UNL     1      -7.654   7.229  -0.307  0.00  0.00    +0.174 HD
BRANCH  28  36
ATOM     30  C   UNL     1      -5.576   9.458  -0.457  0.00  0.00    +0.046 C 
ATOM     31  C   UNL     1      -6.113   9.131  -1.827  0.00  0.00    -0.028 A 
ATOM     32  C   UNL     1      -5.923  10.013  -2.873  0.00  0.00    +0.005 A 
ATOM     33  C   UNL     1      -6.420   9.717  -4.128  0.00  0.00    +0.001 A 
ATOM     34  C   UNL     1      -7.106   8.535  -4.343  0.00  0.00    +0.005 A 
ATOM     35  C   UNL     1      -7.295   7.646  -3.303  0.00  0.00    -0.028 A 
ATOM     36  C   UNL     1      -6.797   7.941  -2.040  0.00  0.00    +0.054 A 
ATOM     37  C   UNL     1      -8.043   6.359  -3.538  0.00  0.00    +0.046 C 
ENDBRANCH  28  36
ENDBRANCH  25  28
ENDBRANCH   1  25
TORSDOF 5
