REMARK  Name = ZINC46254583
REMARK  10 active torsions:
REMARK  status: ('A' for Active; 'I' for Inactive)
REMARK    1  A    between atoms: C_1  and  C_2
REMARK    2  A    between atoms: N_5  and  C_8
REMARK    3  A    between atoms: C_8  and  C_10
REMARK    4  A    between atoms: C_8  and  C_29
REMARK    5  A    between atoms: C_10  and  N_11
REMARK    6  A    between atoms: N_14  and  N_15
REMARK    7  A    between atoms: C_16  and  C_18
REMARK    8  A    between atoms: C_18  and  C_19
REMARK    9  A    between atoms: C_29  and  C_30
REMARK   10  A    between atoms: C_29  and  C_31
REMARK                            x       y       z     vdW  Elec       q    Type
REMARK                         _______ _______ _______ _____ _____    ______ ____
ROOT
ATOM      1  N   UNL     1       1.307  -3.659   2.565  0.00  0.00    -0.300 N 
ATOM      2  C   UNL     1       2.128  -3.762   3.628  0.00  0.00    +0.316 C 
ATOM      3  O   UNL     1       1.770  -4.373   4.617  0.00  0.00    -0.251 OA
ATOM      4  N   UNL     1       3.348  -3.188   3.596  0.00  0.00    -0.218 N 
ATOM      5  H   UNL     1       1.593  -3.172   1.777  0.00  0.00    +0.150 HD
ATOM      6  H   UNL     1       3.939  -3.263   4.361  0.00  0.00    +0.174 HD
ENDROOT
BRANCH   4   7
ATOM      7  N   UNL     1       3.760  -2.484   2.457  0.00  0.00    -0.233 N 
ATOM      8  C   UNL     1       4.979  -1.910   2.425  0.00  0.00    +0.234 C 
ATOM      9  O   UNL     1       5.719  -2.003   3.382  0.00  0.00    -0.274 OA
ATOM     10  H   UNL     1       3.169  -2.410   1.692  0.00  0.00    +0.173 HD
BRANCH   8  11
ATOM     11  C   UNL     1       5.423  -1.153   1.200  0.00  0.00    +0.134 C 
BRANCH  11  12
ATOM     12  C   UNL     1       6.814  -0.614   1.419  0.00  0.00    -0.014 A 
ATOM     13  C   UNL     1       7.134   0.611   1.863  0.00  0.00    +0.087 A 
ATOM     14  N   UNL     1       8.494   0.741   1.935  0.00  0.00    -0.360 N 
ATOM     15  H   UNL     1       8.964   1.537   2.229  0.00  0.00    +0.165 HD
ATOM     16  C   UNL     1       9.098  -0.428   1.529  0.00  0.00    +0.047 A 
ATOM     17  C   UNL     1       8.071  -1.331   1.194  0.00  0.00    +0.003 A 
ATOM     18  C   UNL     1       8.390  -2.615   0.749  0.00  0.00    +0.010 A 
ATOM     19  C   UNL     1       9.700  -2.990   0.644  0.00  0.00    +0.001 A 
ATOM     20  C   UNL     1      10.716  -2.106   0.977  0.00  0.00    +0.002 A 
ATOM     21  C   UNL     1      10.424  -0.830   1.410  0.00  0.00    +0.026 A 
ENDBRANCH  11  12
ENDBRANCH   8  11
ENDBRANCH   4   7
BRANCH   1  22
ATOM     22  C   UNL     1      -0.018  -4.283   2.600  0.00  0.00    +0.091 C 
BRANCH  22  23
ATOM     23  C   UNL     1      -0.818  -3.853   1.369  0.00  0.00    -0.048 C 
BRANCH  23  28
ATOM     24  C   UNL     1      -1.722   1.565   2.902  0.00  0.00    +0.007 C 
ATOM     25  C   UNL     1      -1.256   0.108   2.878  0.00  0.00    -0.018 C 
ATOM     26  C   UNL     1      -0.393  -0.133   1.637  0.00  0.00    -0.016 C 
ATOM     27  C   UNL     1       0.004  -1.610   1.577  0.00  0.00    -0.078 C 
ATOM     28  N   UNL     1      -1.204  -2.442   1.504  0.00  0.00    +0.383 N 
ATOM     29  C   UNL     1      -2.002  -2.269   2.724  0.00  0.00    -0.078 C 
ATOM     30  C   UNL     1      -2.475  -0.818   2.828  0.00  0.00    -0.016 C 
ATOM     31  H   UNL     1      -1.752  -2.167   0.703  0.00  0.00    -0.081 HD
ENDBRANCH  23  28
BRANCH  23  32
ATOM     32  C   UNL     1      -2.075  -4.716   1.249  0.00  0.00    -0.029 C 
ATOM     33  C   UNL     1      -2.872  -4.289   0.015  0.00  0.00    +0.005 C 
ATOM     34  C   UNL     1      -1.673  -6.186   1.112  0.00  0.00    +0.005 C 
ENDBRANCH  23  32
ENDBRANCH  22  23
ENDBRANCH   1  22
TORSDOF 7
