REMARK  Name = ZINC13568673
REMARK  8 active torsions:
REMARK  status: ('A' for Active; 'I' for Inactive)
REMARK    1  A    between atoms: C_1  and  O_2
REMARK    2  A    between atoms: O_2  and  C_3
REMARK    3  A    between atoms: C_5  and  C_13
REMARK    4  A    between atoms: C_7  and  O_11
REMARK    5  A    between atoms: C_8  and  O_9
REMARK    6  A    between atoms: O_9  and  C_10
REMARK    7  A    between atoms: O_11  and  C_12
REMARK    8  A    between atoms: C_18  and  C_24
REMARK                            x       y       z     vdW  Elec       q    Type
REMARK                         _______ _______ _______ _____ _____    ______ ____
ROOT
ATOM      1  C   UNL     1      -7.180   5.657   0.037  0.00  0.00    +0.032 C 
ATOM      2  C   UNL     1      -6.415   6.902   0.492  0.00  0.00    +0.059 C 
ATOM      3  C   UNL     1      -4.965   6.776   0.098  0.00  0.00    +0.018 C 
ATOM      4  C   UNL     1      -4.604   6.087  -1.005  0.00  0.00    +0.020 C 
ATOM      5  C   UNL     1      -3.145   5.981  -1.383  0.00  0.00    +0.063 C 
ATOM      6  C   UNL     1      -2.428   7.280  -1.010  0.00  0.00    +0.109 C 
ATOM      7  C   UNL     1      -2.789   7.655   0.404  0.00  0.00    +0.218 C 
ATOM      8  O   UNL     1      -1.974   8.207   1.110  0.00  0.00    -0.275 OA
ATOM      9  N   UNL     1      -4.014   7.378   0.884  0.00  0.00    -0.289 N 
ATOM     10  C   UNL     1      -5.560   5.457  -1.819  0.00  0.00    +0.162 C 
ATOM     11  O   UNL     1      -5.198   4.856  -2.811  0.00  0.00    -0.292 OA
ATOM     12  C   UNL     1      -7.026   5.515  -1.480  0.00  0.00    +0.088 C 
ATOM     13  H   UNL     1      -4.230   7.607   1.801  0.00  0.00    +0.155 HD
ENDROOT
BRANCH   5  14
ATOM     14  C   UNL     1      -2.517   4.829  -0.643  0.00  0.00    -0.036 A 
ATOM     15  C   UNL     1      -2.505   4.822   0.740  0.00  0.00    +0.008 A 
ATOM     16  C   UNL     1      -1.929   3.768   1.424  0.00  0.00    +0.050 A 
ATOM     17  C   UNL     1      -1.361   2.715   0.724  0.00  0.00    +0.166 A 
ATOM     18  C   UNL     1      -1.373   2.722  -0.668  0.00  0.00    +0.167 A 
ATOM     19  C   UNL     1      -1.951   3.783  -1.347  0.00  0.00    +0.053 A 
ATOM     20  O   UNL     1      -0.760   1.588  -1.116  0.00  0.00    -0.453 OA
ATOM     21  C   UNL     1      -0.013   1.086   0.008  0.00  0.00    +0.466 C 
ATOM     22  O   UNL     1      -0.738   1.576   1.151  0.00  0.00    -0.453 OA
ENDBRANCH   5  14
BRANCH   1  25
ATOM     23  C   UNL     1     -10.589   5.012   1.537  0.00  0.00    +0.165 A 
ATOM     24  C   UNL     1      -9.247   4.879   1.213  0.00  0.00    +0.053 A 
ATOM     25  C   UNL     1      -8.639   5.804   0.386  0.00  0.00    -0.036 A 
ATOM     26  C   UNL     1      -9.364   6.868  -0.119  0.00  0.00    +0.053 A 
ATOM     27  C   UNL     1     -10.708   7.004   0.195  0.00  0.00    +0.165 A 
ATOM     28  C   UNL     1     -11.323   6.076   1.027  0.00  0.00    +0.204 A 
BRANCH  23  30
ATOM     29  C   UNL     1     -10.371   3.034   2.839  0.00  0.00    +0.277 C 
ATOM     30  O   UNL     1     -11.186   4.101   2.352  0.00  0.00    -0.491 OA
ENDBRANCH  23  30
BRANCH  28  31
ATOM     31  O   UNL     1     -12.640   6.210   1.342  0.00  0.00    -0.488 OA
ATOM     32  C   UNL     1     -12.954   6.976   2.507  0.00  0.00    +0.277 C 
ENDBRANCH  28  31
BRANCH  27  33
ATOM     33  O   UNL     1     -11.422   8.047  -0.307  0.00  0.00    -0.491 OA
ATOM     34  C   UNL     1     -10.725   8.962  -1.155  0.00  0.00    +0.277 C 
ENDBRANCH  27  33
ENDBRANCH   1  25
TORSDOF 5
