REMARK  Name = ZINC04848700
REMARK  3 active torsions:
REMARK  status: ('A' for Active; 'I' for Inactive)
REMARK    1  A    between atoms: C_4  and  N_44
REMARK    2  A    between atoms: C_7  and  C_8
REMARK    3  A    between atoms: C_7  and  N_44
REMARK                            x       y       z     vdW  Elec       q    Type
REMARK                         _______ _______ _______ _____ _____    ______ ____
ROOT
ATOM      1  C   UNL     1       0.021  -4.832  -0.010  0.00  0.00    +0.094 A 
ATOM      2  N   UNL     1       1.298  -4.547  -0.359  0.00  0.00    -0.312 N 
ATOM      3  H   UNL     1       1.926  -5.306  -0.532  0.00  0.00    +0.170 HD
ATOM      4  C   UNL     1       1.764  -3.282  -0.485  0.00  0.00    +0.260 A 
ATOM      5  O   UNL     1       2.918  -3.044  -0.800  0.00  0.00    -0.267 OA
ATOM      6  C   UNL     1       0.813  -2.239  -0.224  0.00  0.00    +0.075 A 
ATOM      7  C   UNL     1       1.052  -0.808  -0.287  0.00  0.00    -0.023 A 
ATOM      8  C   UNL     1       0.002  -0.004   0.002  0.00  0.00    -0.004 A 
ATOM      9  S   UNL     1      -1.340  -1.107   0.368  0.00  0.00    -0.073 S 
ATOM     10  C   UNL     1      -0.494  -2.637   0.134  0.00  0.00    +0.116 A 
ATOM     11  N   UNL     1      -0.879  -3.906   0.237  0.00  0.00    -0.229 NA
ATOM     12  C   UNL     1      -0.018   1.493   0.010  0.00  0.00    +0.043 C 
ATOM     13  C   UNL     1       1.431   2.000  -0.001  0.00  0.00    +0.005 C 
ATOM     14  C   UNL     1       2.206   1.244  -1.084  0.00  0.00    +0.005 C 
ATOM     15  C   UNL     1       2.407  -0.211  -0.659  0.00  0.00    +0.037 C 
ENDROOT
BRANCH   1  16
ATOM     16  C   UNL     1      -0.389  -6.279   0.100  0.00  0.00    -0.007 C 
BRANCH  16  17
ATOM     17  N   UNL     1      -1.810  -6.351   0.488  0.00  0.00    +0.386 N 
ATOM     18  H   UNL     1      -1.937  -5.883   1.393  0.00  0.00    -0.085 HD
ATOM     19  H   UNL     1      -2.380  -5.880  -0.224  0.00  0.00    -0.085 HD
BRANCH  17  23
ATOM     20  C   UNL     1      -4.296  -9.821   0.306  0.00  0.00    -0.000 C 
ATOM     21  C   UNL     1      -3.881  -9.299   1.683  0.00  0.00    -0.002 C 
ATOM     22  C   UNL     1      -3.428  -7.843   1.561  0.00  0.00    -0.016 C 
ATOM     23  C   UNL     1      -2.238  -7.758   0.604  0.00  0.00    -0.071 C 
ATOM     24  C   UNL     1      -2.653  -8.280  -0.773  0.00  0.00    -0.016 C 
ATOM     25  C   UNL     1      -3.106  -9.736  -0.652  0.00  0.00    -0.002 C 
ENDBRANCH  17  23
ENDBRANCH  16  17
ENDBRANCH   1  16
TORSDOF 3
