REMARK  Name = ZINC39838191
REMARK  12 active torsions:
REMARK  status: ('A' for Active; 'I' for Inactive)
REMARK    1  A    between atoms: C_1  and  C_2
REMARK    2  A    between atoms: C_2  and  C_3
REMARK    3  A    between atoms: C_3  and  C_4
REMARK    4  A    between atoms: C_4  and  C_5
REMARK    5  A    between atoms: C_5  and  O_6
REMARK    6  A    between atoms: O_6  and  C_7
REMARK    7  A    between atoms: C_10  and  C_16
REMARK    8  A    between atoms: C_12  and  O_13
REMARK    9  A    between atoms: O_13  and  C_14
REMARK   10  A    between atoms: C_14  and  C_15
REMARK   11  A    between atoms: C_23  and  C_39
REMARK   12  A    between atoms: C_34  and  C_38
REMARK                            x       y       z     vdW  Elec       q    Type
REMARK                         _______ _______ _______ _____ _____    ______ ____
ROOT
ATOM      1  C   UNL     1       3.980  -6.446  -6.920  0.00  0.00    +0.151 C 
ATOM      2  C   UNL     1       5.463  -6.426  -6.747  0.00  0.00    +0.072 A 
ATOM      3  C   UNL     1       6.322  -6.998  -5.705  0.00  0.00    +0.199 A 
ATOM      4  O   UNL     1       5.915  -7.769  -4.854  0.00  0.00    -0.287 OA
ATOM      5  C   UNL     1       7.735  -6.548  -5.786  0.00  0.00    +0.065 A 
ATOM      6  C   UNL     1       8.630  -6.841  -4.757  0.00  0.00    +0.018 A 
ATOM      7  C   UNL     1       9.926  -6.416  -4.844  0.00  0.00    -0.050 A 
ATOM      8  C   UNL     1      10.351  -5.694  -5.950  0.00  0.00    +0.007 A 
ATOM      9  C   UNL     1       9.482  -5.397  -6.976  0.00  0.00    +0.047 A 
ATOM     10  C   UNL     1       8.155  -5.822  -6.912  0.00  0.00    +0.139 A 
ATOM     11  O   UNL     1       7.321  -5.527  -7.935  0.00  0.00    -0.450 OA
ATOM     12  C   UNL     1       5.995  -5.725  -7.792  0.00  0.00    +0.199 A 
ATOM     13  C   UNL     1       4.891  -5.273  -8.655  0.00  0.00    +0.288 C 
ATOM     14  O   UNL     1       5.024  -4.619  -9.670  0.00  0.00    -0.266 OA
ATOM     15  N   UNL     1       3.708  -5.691  -8.155  0.00  0.00    -0.238 N 
ATOM     16  C   UNL     1       2.453  -5.452  -8.708  0.00  0.00    +0.129 A 
ATOM     17  C   UNL     1       1.311  -5.853  -8.024  0.00  0.00    +0.047 A 
ATOM     18  C   UNL     1       0.070  -5.609  -8.585  0.00  0.00    -0.046 A 
ATOM     19  C   UNL     1       0.014  -4.971  -9.817  0.00  0.00    +0.023 A 
ATOM     20  C   UNL     1       1.189  -4.601 -10.441  0.00  0.00    +0.113 A 
ATOM     21  N   UNL     1       2.358  -4.841  -9.879  0.00  0.00    -0.240 NA
ATOM     22  C   UNL     1      -1.192  -6.028  -7.877  0.00  0.00    +0.044 C 
ATOM     23  C   UNL     1      10.896  -6.732  -3.735  0.00  0.00    +0.044 C 
ENDROOT
BRANCH   1  27
ATOM     24  C   UNL     1       2.079  -4.553  -3.590  0.00  0.00    +0.162 A 
ATOM     25  C   UNL     1       2.645  -3.787  -4.596  0.00  0.00    +0.050 A 
ATOM     26  C   UNL     1       3.259  -4.402  -5.671  0.00  0.00    +0.009 A 
ATOM     27  C   UNL     1       3.310  -5.781  -5.746  0.00  0.00    -0.018 A 
ATOM     28  C   UNL     1       2.746  -6.552  -4.746  0.00  0.00    +0.055 A 
ATOM     29  C   UNL     1       2.134  -5.942  -3.663  0.00  0.00    +0.162 A 
BRANCH  24  30
ATOM     30  O   UNL     1       1.474  -3.950  -2.532  0.00  0.00    -0.488 OA
BRANCH  30  31
ATOM     31  C   UNL     1       1.455  -2.521  -2.524  0.00  0.00    +0.229 C 
BRANCH  31  32
ATOM     32  C   UNL     1       0.739  -2.027  -1.265  0.00  0.00    +0.041 C 
BRANCH  32  33
ATOM     33  C   UNL     1       0.718  -0.497  -1.257  0.00  0.00    +0.003 C 
BRANCH  33  35
ATOM     34  C   UNL     1      -0.019   1.526   0.010  0.00  0.00    +0.004 C 
ATOM     35  C   UNL     1       0.002  -0.004   0.002  0.00  0.00    -0.003 C 
ENDBRANCH  33  35
ENDBRANCH  32  33
ENDBRANCH  31  32
ENDBRANCH  30  31
ENDBRANCH  24  30
BRANCH  29  36
ATOM     36  O   UNL     1       1.584  -6.698  -2.676  0.00  0.00    -0.489 OA
BRANCH  36  37
ATOM     37  C   UNL     1       1.679  -8.117  -2.817  0.00  0.00    +0.226 C 
ATOM     38  C   UNL     1       1.009  -8.794  -1.619  0.00  0.00    +0.048 C 
ENDBRANCH  36  37
ENDBRANCH  29  36
ENDBRANCH   1  27
TORSDOF 8
