REMARK  Name = ZINC12525206
REMARK  7 active torsions:
REMARK  status: ('A' for Active; 'I' for Inactive)
REMARK    1  A    between atoms: C_1  and  C_2
REMARK    2  A    between atoms: C_5  and  C_8
REMARK    3  A    between atoms: C_10  and  C_14
REMARK    4  A    between atoms: N_16  and  C_17
REMARK    5  A    between atoms: N_16  and  C_24
REMARK    6  A    between atoms: C_17  and  C_18
REMARK    7  A    between atoms: C_24  and  C_25
REMARK                            x       y       z     vdW  Elec       q    Type
REMARK                         _______ _______ _______ _____ _____    ______ ____
ROOT
ATOM      1  C   UNL     1      -3.760  -1.583   1.181  0.00  0.00    +0.265 C 
ATOM      2  O   UNL     1      -4.619  -0.746   1.386  0.00  0.00    -0.268 OA
ATOM      3  N   UNL     1      -3.455  -1.939  -0.083  0.00  0.00    -0.285 N 
ENDROOT
BRANCH   1   6
ATOM      4  C   UNL     1      -2.398  -2.841   4.332  0.00  0.00    +0.093 A 
ATOM      5  C   UNL     1      -3.344  -2.050   3.654  0.00  0.00    +0.062 A 
ATOM      6  C   UNL     1      -3.054  -2.205   2.312  0.00  0.00    +0.121 A 
ATOM      7  N   UNL     1      -1.978  -3.044   2.243  0.00  0.00    -0.272 N 
ATOM      8  H   UNL     1      -1.534  -3.341   1.397  0.00  0.00    +0.189 HD
ATOM      9  N   UNL     1      -1.621  -3.395   3.426  0.00  0.00    -0.173 NA
BRANCH   4  14
ATOM     10  C   UNL     1      -1.981  -3.507  10.038  0.00  0.00    +0.044 C 
ATOM     11  C   UNL     1      -2.091  -3.333   8.545  0.00  0.00    -0.050 A 
ATOM     12  C   UNL     1      -1.200  -3.981   7.709  0.00  0.00    +0.004 A 
ATOM     13  C   UNL     1      -1.295  -3.825   6.341  0.00  0.00    +0.010 A 
ATOM     14  C   UNL     1      -2.291  -3.012   5.803  0.00  0.00    +0.002 A 
ATOM     15  C   UNL     1      -3.181  -2.357   6.650  0.00  0.00    +0.010 A 
ATOM     16  C   UNL     1      -3.081  -2.525   8.016  0.00  0.00    +0.004 A 
ENDBRANCH   4  14
ENDBRANCH   1   6
BRANCH   3  17
ATOM     17  C   UNL     1      -4.064  -1.231  -1.211  0.00  0.00    +0.143 C 
BRANCH  17  18
ATOM     18  C   UNL     1      -5.306  -1.962  -1.653  0.00  0.00    -0.030 A 
ATOM     19  C   UNL     1      -5.213  -2.985  -2.577  0.00  0.00    +0.005 A 
ATOM     20  C   UNL     1      -6.352  -3.659  -2.978  0.00  0.00    +0.000 A 
ATOM     21  C   UNL     1      -7.584  -3.303  -2.463  0.00  0.00    +0.000 A 
ATOM     22  C   UNL     1      -7.677  -2.275  -1.542  0.00  0.00    +0.000 A 
ATOM     23  C   UNL     1      -6.538  -1.605  -1.137  0.00  0.00    +0.005 A 
ENDBRANCH  17  18
ENDBRANCH   3  17
BRANCH   3  24
ATOM     24  C   UNL     1      -2.515  -3.036  -0.327  0.00  0.00    +0.182 C 
BRANCH  24  25
ATOM     25  C   UNL     1      -1.108  -2.498  -0.341  0.00  0.00    +0.128 A 
ATOM     26  N   UNL     1      -0.087  -3.368  -0.554  0.00  0.00    -0.309 N 
ATOM     27  H   UNL     1      -0.278  -4.309  -0.692  0.00  0.00    +0.170 HD
ATOM     28  C   UNL     1       1.195  -2.934  -0.577  0.00  0.00    +0.259 A 
ATOM     29  O   UNL     1       2.120  -3.703  -0.767  0.00  0.00    -0.267 OA
ATOM     30  C   UNL     1       1.428  -1.498  -0.361  0.00  0.00    +0.065 A 
ATOM     31  C   UNL     1       2.709  -0.951  -0.364  0.00  0.00    +0.015 A 
ATOM     32  C   UNL     1       2.869   0.402  -0.157  0.00  0.00    +0.001 A 
ATOM     33  C   UNL     1       1.767   1.220   0.054  0.00  0.00    +0.002 A 
ATOM     34  C   UNL     1       0.493   0.698   0.061  0.00  0.00    +0.028 A 
ATOM     35  C   UNL     1       0.304  -0.670  -0.147  0.00  0.00    +0.078 A 
ATOM     36  N   UNL     1      -0.933  -1.226  -0.148  0.00  0.00    -0.232 NA
ENDBRANCH  24  25
ENDBRANCH   3  24
TORSDOF 6
