REMARK  Name = ZINC16569043
REMARK  14 active torsions:
REMARK  status: ('A' for Active; 'I' for Inactive)
REMARK    1  A    between atoms: C_1  and  C_2
REMARK    2  A    between atoms: C_5  and  N_8
REMARK    3  A    between atoms: C_9  and  C_21
REMARK    4  A    between atoms: C_12  and  S_13
REMARK    5  A    between atoms: S_13  and  C_14
REMARK    6  A    between atoms: C_14  and  C_15
REMARK    7  A    between atoms: C_21  and  C_23
REMARK    8  A    between atoms: C_21  and  N_24
REMARK    9  A    between atoms: N_24  and  S_25
REMARK   10  A    between atoms: S_25  and  C_28
REMARK   11  A    between atoms: C_31  and  C_34
REMARK   12  A    between atoms: C_34  and  C_35
REMARK   13  A    between atoms: C_34  and  C_36
REMARK   14  A    between atoms: C_34  and  C_37
REMARK                            x       y       z     vdW  Elec       q    Type
REMARK                         _______ _______ _______ _____ _____    ______ ____
ROOT
ATOM      1  N   UNL     1      -2.072   4.099  -1.710  0.00  0.00    -0.273 N 
ATOM      2  C   UNL     1      -1.173   3.632  -0.788  0.00  0.00    +0.157 A 
ATOM      3  N   UNL     1      -0.192   4.488  -0.735  0.00  0.00    -0.131 NA
ATOM      4  N   UNL     1      -0.400   5.452  -1.560  0.00  0.00    -0.122 NA
ATOM      5  C   UNL     1      -1.541   5.268  -2.183  0.00  0.00    +0.196 A 
ENDROOT
BRANCH   1  10
ATOM      6  C   UNL     1      -6.976   1.690  -3.245  0.00  0.00    +0.044 C 
ATOM      7  C   UNL     1      -5.674   2.329  -2.837  0.00  0.00    -0.050 A 
ATOM      8  C   UNL     1      -5.678   3.553  -2.194  0.00  0.00    +0.005 A 
ATOM      9  C   UNL     1      -4.486   4.142  -1.819  0.00  0.00    +0.026 A 
ATOM     10  C   UNL     1      -3.284   3.504  -2.089  0.00  0.00    +0.050 A 
ATOM     11  C   UNL     1      -3.282   2.278  -2.741  0.00  0.00    +0.026 A 
ATOM     12  C   UNL     1      -4.478   1.692  -3.108  0.00  0.00    +0.005 A 
ENDBRANCH   1  10
BRANCH   2  13
ATOM     13  C   UNL     1      -1.299   2.367   0.021  0.00  0.00    +0.141 C 
ATOM     14  C   UNL     1      -1.676   2.718   1.462  0.00  0.00    +0.034 C 
BRANCH  13  15
ATOM     15  N   UNL     1      -0.020   1.652   0.011  0.00  0.00    -0.180 NA
ATOM     16  H   UNL     1       0.813   2.148   0.006  0.00  0.00    +0.149 HD
BRANCH  15  17
ATOM     17  S   UNL     1       0.002  -0.004   0.002  0.00  0.00    +0.059 S 
ATOM     18  O   UNL     1       1.369  -0.392  -0.040  0.00  0.00    -0.153 OA
ATOM     19  O   UNL     1      -0.878  -0.428   1.034  0.00  0.00    -0.153 OA
BRANCH  17  20
ATOM     20  C   UNL     1      -0.717  -0.526  -1.520  0.00  0.00    +0.105 A 
ATOM     21  C   UNL     1      -2.078  -0.754  -1.599  0.00  0.00    +0.029 A 
ATOM     22  C   UNL     1      -2.642  -1.160  -2.794  0.00  0.00    +0.006 A 
ATOM     23  C   UNL     1      -1.844  -1.347  -3.907  0.00  0.00    -0.042 A 
ATOM     24  C   UNL     1      -0.482  -1.124  -3.826  0.00  0.00    +0.006 A 
ATOM     25  C   UNL     1       0.081  -0.714  -2.633  0.00  0.00    +0.029 A 
BRANCH  23  26
ATOM     26  C   UNL     1      -2.459  -1.794  -5.208  0.00  0.00    -0.013 C 
ATOM     27  C   UNL     1      -1.840  -3.127  -5.633  0.00  0.00    +0.015 C 
ATOM     28  C   UNL     1      -3.968  -1.967  -5.026  0.00  0.00    +0.015 C 
ATOM     29  C   UNL     1      -2.193  -0.741  -6.286  0.00  0.00    +0.015 C 
ENDBRANCH  23  26
ENDBRANCH  17  20
ENDBRANCH  15  17
ENDBRANCH  13  15
ENDBRANCH   2  13
BRANCH   5  30
ATOM     30  S   UNL     1      -2.253   6.326  -3.399  0.00  0.00    -0.081 S 
BRANCH  30  31
ATOM     31  C   UNL     1      -0.987   7.617  -3.473  0.00  0.00    +0.112 C 
BRANCH  31  32
ATOM     32  C   UNL     1      -1.393   8.663  -4.478  0.00  0.00    -0.037 A 
ATOM     33  C   UNL     1      -1.007   8.539  -5.800  0.00  0.00    +0.004 A 
ATOM     34  C   UNL     1      -1.385   9.495  -6.723  0.00  0.00    +0.000 A 
ATOM     35  C   UNL     1      -2.140  10.582  -6.323  0.00  0.00    +0.000 A 
ATOM     36  C   UNL     1      -2.521  10.709  -5.001  0.00  0.00    +0.000 A 
ATOM     37  C   UNL     1      -2.148   9.750  -4.078  0.00  0.00    +0.004 A 
ENDBRANCH  31  32
ENDBRANCH  30  31
ENDBRANCH   5  30
TORSDOF 9
