REMARK  Name = ZINC38704981
REMARK  12 active torsions:
REMARK  status: ('A' for Active; 'I' for Inactive)
REMARK    1  A    between atoms: C_1  and  C_2
REMARK    2  A    between atoms: C_2  and  C_3
REMARK    3  A    between atoms: C_3  and  C_4
REMARK    4  A    between atoms: C_4  and  C_5
REMARK    5  A    between atoms: C_5  and  N_6
REMARK    6  A    between atoms: C_7  and  C_26
REMARK    7  A    between atoms: C_10  and  C_17
REMARK    8  A    between atoms: C_18  and  C_25
REMARK    9  A    between atoms: C_20  and  C_24
REMARK   10  A    between atoms: C_22  and  O_23
REMARK   11  A    between atoms: C_30  and  O_32
REMARK   12  A    between atoms: O_32  and  C_33
REMARK                            x       y       z     vdW  Elec       q    Type
REMARK                         _______ _______ _______ _____ _____    ______ ____
ROOT
ATOM      1  N   UNL     1       1.431  -3.849  -2.181  0.00  0.00    -0.285 N 
ATOM      2  C   UNL     1       2.196  -4.872  -1.455  0.00  0.00    +0.141 C 
ATOM      3  C   UNL     1       1.662  -6.199  -1.921  0.00  0.00    +0.035 A 
ATOM      4  C   UNL     1       1.728  -7.594  -1.832  0.00  0.00    +0.102 A 
ATOM      5  N   UNL     1       0.824  -8.085  -2.657  0.00  0.00    -0.173 NA
ATOM      6  N   UNL     1       0.194  -7.139  -3.257  0.00  0.00    -0.272 N 
ATOM      7  H   UNL     1      -0.514  -7.267  -3.907  0.00  0.00    +0.189 HD
ATOM      8  C   UNL     1       0.669  -5.927  -2.842  0.00  0.00    +0.126 A 
ATOM      9  C   UNL     1       0.545  -4.472  -2.979  0.00  0.00    +0.265 C 
ATOM     10  O   UNL     1      -0.245  -3.908  -3.712  0.00  0.00    -0.268 OA
ENDROOT
BRANCH   4  11
ATOM     11  C   UNL     1       2.648  -8.377  -0.969  0.00  0.00    +0.047 A 
ATOM     12  C   UNL     1       2.143  -9.354  -0.115  0.00  0.00    -0.037 A 
ATOM     13  C   UNL     1       3.003 -10.079   0.685  0.00  0.00    +0.007 A 
ATOM     14  C   UNL     1       4.365  -9.839   0.642  0.00  0.00    -0.047 A 
ATOM     15  C   UNL     1       4.876  -8.872  -0.202  0.00  0.00    +0.049 A 
ATOM     16  C   UNL     1       4.025  -8.140  -1.015  0.00  0.00    +0.127 A 
ATOM     17  C   UNL     1       5.295 -10.636   1.520  0.00  0.00    +0.044 C 
ATOM     18  C   UNL     1       0.661  -9.618  -0.064  0.00  0.00    +0.044 C 
BRANCH  16  19
ATOM     19  O   UNL     1       4.526  -7.192  -1.849  0.00  0.00    -0.506 OA
ATOM     20  H   UNL     1       4.669  -6.334  -1.429  0.00  0.00    +0.292 HD
ENDBRANCH  16  19
ENDBRANCH   4  11
BRANCH   2  21
ATOM     21  C   UNL     1       1.987  -4.720   0.029  0.00  0.00    -0.019 A 
ATOM     22  C   UNL     1       0.709  -4.570   0.535  0.00  0.00    +0.006 A 
ATOM     23  C   UNL     1       0.514  -4.431   1.897  0.00  0.00    +0.004 A 
ATOM     24  C   UNL     1       1.596  -4.439   2.756  0.00  0.00    +0.046 A 
ATOM     25  C   UNL     1       2.879  -4.589   2.250  0.00  0.00    +0.129 A 
ATOM     26  C   UNL     1       3.072  -4.735   0.884  0.00  0.00    +0.052 A 
BRANCH  25  27
ATOM     27  O   UNL     1       3.946  -4.598   3.093  0.00  0.00    -0.456 OA
BRANCH  27  28
ATOM     28  C   UNL     1       4.808  -3.549   3.041  0.00  0.00    +0.128 A 
ATOM     29  C   UNL     1       4.529  -2.459   2.229  0.00  0.00    +0.046 A 
ATOM     30  C   UNL     1       5.408  -1.395   2.178  0.00  0.00    +0.004 A 
ATOM     31  C   UNL     1       6.564  -1.414   2.937  0.00  0.00    +0.000 A 
ATOM     32  C   UNL     1       6.844  -2.498   3.747  0.00  0.00    +0.004 A 
ATOM     33  C   UNL     1       5.966  -3.563   3.806  0.00  0.00    +0.046 A 
ENDBRANCH  27  28
ENDBRANCH  25  27
ENDBRANCH   2  21
BRANCH   1  34
ATOM     34  C   UNL     1       1.600  -2.400  -2.053  0.00  0.00    +0.109 C 
BRANCH  34  35
ATOM     35  C   UNL     1       0.686  -1.875  -0.944  0.00  0.00    +0.019 C 
BRANCH  35  36
ATOM     36  C   UNL     1       0.863  -0.362  -0.810  0.00  0.00    +0.001 C 
BRANCH  36  38
ATOM     37  C   UNL     1       0.125   1.676   0.432  0.00  0.00    +0.004 C 
ATOM     38  C   UNL     1      -0.052   0.163   0.299  0.00  0.00    -0.003 C 
ENDBRANCH  36  38
ENDBRANCH  35  36
ENDBRANCH  34  35
ENDBRANCH   1  34
TORSDOF 9
