REMARK  Name = ZINC64538151
REMARK  8 active torsions:
REMARK  status: ('A' for Active; 'I' for Inactive)
REMARK    1  A    between atoms: C_1  and  C_2
REMARK    2  A    between atoms: C_8  and  C_11
REMARK    3  A    between atoms: C_11  and  C_12
REMARK    4  A    between atoms: C_12  and  N_13
REMARK    5  A    between atoms: C_15  and  C_20
REMARK    6  A    between atoms: N_22  and  C_23
REMARK    7  A    between atoms: C_29  and  C_36
REMARK    8  A    between atoms: C_29  and  C_37
REMARK                            x       y       z     vdW  Elec       q    Type
REMARK                         _______ _______ _______ _____ _____    ______ ____
ROOT
ATOM      1  N   UNL     1      -1.377  -2.600   5.613  0.00  0.00    -0.300 N 
ATOM      2  C   UNL     1      -1.248  -3.644   6.637  0.00  0.00    +0.121 C 
ATOM      3  C   UNL     1      -0.861  -2.901   7.936  0.00  0.00    +0.101 C 
ATOM      4  C   UNL     1      -1.441  -1.492   7.677  0.00  0.00    +0.110 C 
ATOM      5  C   UNL     1      -1.487  -1.381   6.169  0.00  0.00    +0.216 C 
ATOM      6  O   UNL     1      -1.608  -0.345   5.552  0.00  0.00    -0.276 OA
ENDROOT
BRANCH   3   7
ATOM      7  C   UNL     1      -1.510  -3.541   9.136  0.00  0.00    +0.220 C 
ATOM      8  O   UNL     1      -2.226  -4.509   8.994  0.00  0.00    -0.275 OA
ATOM      9  N   UNL     1      -1.294  -3.036  10.367  0.00  0.00    -0.291 N 
ATOM     10  H   UNL     1      -0.722  -2.262  10.480  0.00  0.00    +0.151 HD
BRANCH   9  11
ATOM     11  C   UNL     1      -1.925  -3.658  11.534  0.00  0.00    +0.202 C 
ATOM     12  N   UNL     1      -1.323  -3.150  12.784  0.00  0.00    -0.286 NA
ATOM     13  C   UNL     1      -2.255  -2.583  13.766  0.00  0.00    +0.077 C 
ATOM     14  C   UNL     1      -2.633  -3.693  14.748  0.00  0.00    +0.027 C 
ATOM     15  C   UNL     1      -3.621  -3.171  15.790  0.00  0.00    -0.027 C 
ATOM     16  C   UNL     1      -4.958  -2.910  15.089  0.00  0.00    +0.082 C 
ATOM     17  C   UNL     1      -4.723  -1.985  13.930  0.00  0.00    +0.148 C 
ATOM     18  O   UNL     1      -5.584  -1.182  13.665  0.00  0.00    -0.296 OA
ATOM     19  C   UNL     1      -3.513  -2.015  13.093  0.00  0.00    +0.132 C 
ATOM     20  S   UNL     1      -3.689  -3.149  11.666  0.00  0.00    -0.110 S 
ATOM     21  C   UNL     1      -3.092  -1.870  16.397  0.00  0.00    +0.011 C 
ATOM     22  C   UNL     1      -3.810  -4.217  16.891  0.00  0.00    +0.011 C 
ATOM     23  H   UNL     1      -0.729  -3.847  13.208  0.00  0.00    +0.125 HD
ENDBRANCH   9  11
ENDBRANCH   3   7
BRANCH   1  24
ATOM     24  C   UNL     1      -1.379  -2.854   4.170  0.00  0.00    +0.112 C 
BRANCH  24  25
ATOM     25  C   UNL     1       0.055  -2.799   3.641  0.00  0.00    +0.052 C 
BRANCH  25  33
ATOM     26  C   UNL     1      -0.018   1.503   0.010  0.00  0.00    +0.044 C 
ATOM     27  C   UNL     1       0.002  -0.004   0.002  0.00  0.00    -0.050 A 
ATOM     28  C   UNL     1       0.005  -0.680  -1.226  0.00  0.00    +0.005 A 
ATOM     29  C   UNL     1       0.023  -2.026  -1.317  0.00  0.00    +0.026 A 
ATOM     30  C   UNL     1       0.039  -2.826  -0.141  0.00  0.00    +0.043 A 
ATOM     31  N   UNL     1       0.057  -4.126   0.030  0.00  0.00    -0.380 N 
ATOM     32  C   UNL     1       0.067  -4.408   1.470  0.00  0.00    +0.144 C 
ATOM     33  C   UNL     1       0.052  -3.060   2.156  0.00  0.00    -0.040 C 
ATOM     34  C   UNL     1       0.036  -2.137   1.168  0.00  0.00    -0.001 A 
ATOM     35  C   UNL     1       0.022  -0.669   1.180  0.00  0.00    +0.013 A 
ATOM     36  H   UNL     1       0.062  -4.790  -0.677  0.00  0.00    +0.160 HD
ENDBRANCH  25  33
ENDBRANCH  24  25
ENDBRANCH   1  24
TORSDOF 5
