REMARK  Name = ZINC02926032
REMARK  4 active torsions:
REMARK  status: ('A' for Active; 'I' for Inactive)
REMARK    1  A    between atoms: C_5  and  S_6
REMARK    2  A    between atoms: S_6  and  N_9
REMARK    3  A    between atoms: C_12  and  C_15
REMARK    4  A    between atoms: C_12  and  N_46
REMARK                            x       y       z     vdW  Elec       q    Type
REMARK                         _______ _______ _______ _____ _____    ______ ____
ROOT
ATOM      1  N   UNL     1      -3.546  -2.123   0.718  0.00  0.00    -0.176 NA
ATOM      2  C   UNL     1      -2.726  -2.615  -0.398  0.00  0.00    +0.108 C 
ATOM      3  C   UNL     1      -1.303  -2.070  -0.243  0.00  0.00    +0.014 C 
ATOM      4  C   UNL     1      -1.355  -0.545  -0.126  0.00  0.00    +0.015 C 
ATOM      5  C   UNL     1      -2.161  -0.153   1.115  0.00  0.00    +0.014 C 
ATOM      6  C   UNL     1      -3.594  -0.677   0.975  0.00  0.00    +0.108 C 
ENDROOT
BRANCH   4  12
ATOM      7  C   UNL     1       0.005   1.453   0.019  0.00  0.00    -0.077 C 
ATOM      8  C   UNL     1       1.445   1.970  -0.007  0.00  0.00    -0.019 C 
ATOM      9  C   UNL     1       2.202   1.419   1.205  0.00  0.00    -0.004 C 
ATOM     10  C   UNL     1       2.151  -0.111   1.176  0.00  0.00    -0.019 C 
ATOM     11  C   UNL     1       0.691  -0.568   1.168  0.00  0.00    -0.077 C 
ATOM     12  N   UNL     1       0.025  -0.025  -0.035  0.00  0.00    +0.389 N 
ATOM     13  H   UNL     1       0.548  -0.321  -0.868  0.00  0.00    -0.080 HD
ENDBRANCH   4  12
BRANCH   4  14
ATOM     14  C   UNL     1      -2.014   0.030  -1.354  0.00  0.00    +0.200 C 
ATOM     15  O   UNL     1      -3.184   0.346  -1.322  0.00  0.00    -0.278 OA
ATOM     16  N   UNL     1      -1.302   0.193  -2.487  0.00  0.00    -0.330 N 
ATOM     17  H   UNL     1      -0.388  -0.128  -2.536  0.00  0.00    +0.145 HD
ATOM     18  H   UNL     1      -1.704   0.631  -3.253  0.00  0.00    +0.145 HD
ENDBRANCH   4  14
BRANCH   1  19
ATOM     19  S   UNL     1      -4.399  -3.178   1.667  0.00  0.00    +0.067 S 
ATOM     20  O   UNL     1      -5.468  -2.436   2.238  0.00  0.00    -0.152 OA
ATOM     21  O   UNL     1      -4.614  -4.345   0.885  0.00  0.00    -0.152 OA
BRANCH  19  26
ATOM     22  C   UNL     1      -3.197  -3.071   4.215  0.00  0.00    +0.052 A 
ATOM     23  C   UNL     1      -2.301  -3.620   5.114  0.00  0.00    +0.041 A 
ATOM     24  C   UNL     1      -1.598  -4.722   4.750  0.00  0.00    +0.071 A 
ATOM     25  S   UNL     1      -2.205  -5.019   3.097  0.00  0.00    -0.061 S 
ATOM     26  C   UNL     1      -3.346  -3.650   2.998  0.00  0.00    +0.145 A 
ATOM     27 BR   UNL     1      -0.314  -5.696   5.740  0.00  0.00    -0.041 Br
ATOM     28 BR   UNL     1      -2.060  -2.848   6.823  0.00  0.00    -0.049 Br
ENDBRANCH  19  26
ENDBRANCH   1  19
TORSDOF 4
