REMARK  Name = ZINC33501052
REMARK  2 active torsions:
REMARK  status: ('A' for Active; 'I' for Inactive)
REMARK    1  A    between atoms: C_1  and  C_2
REMARK    2  A    between atoms: C_14  and  C_16
REMARK                            x       y       z     vdW  Elec       q    Type
REMARK                         _______ _______ _______ _____ _____    ______ ____
ROOT
ATOM      1  C   UNL     1      -0.018   1.503   0.010  0.00  0.00    +0.065 C 
ATOM      2  C   UNL     1       0.002  -0.004   0.002  0.00  0.00    +0.043 A 
ATOM      3  N   UNL     1       0.009  -0.801  -1.093  0.00  0.00    -0.279 N 
ATOM      4  N   UNL     1       0.033  -2.141  -0.671  0.00  0.00    -0.158 NA
ATOM      5  C   UNL     1       0.047  -2.168   0.618  0.00  0.00    +0.149 A 
ATOM      6  N   UNL     1       0.088  -3.212   1.559  0.00  0.00    -0.317 N 
ATOM      7  C   UNL     1       0.796  -2.892   2.809  0.00  0.00    +0.126 C 
ATOM      8  C   UNL     1       0.673  -4.008   3.794  0.00  0.00    +0.001 C 
ATOM      9  C   UNL     1       0.440  -3.800   5.085  0.00  0.00    +0.018 C 
ATOM     10  C   UNL     1       0.283  -2.446   5.611  0.00  0.00    +0.041 C 
ATOM     11  C   UNL     1       0.237  -1.388   4.766  0.00  0.00    +0.026 C 
ATOM     12  C   UNL     1       0.331  -1.590   3.389  0.00  0.00    -0.014 C 
ATOM     13  C   UNL     1      -0.037  -0.545   2.568  0.00  0.00    -0.000 C 
ATOM     14  C   UNL     1       0.023  -0.815   1.092  0.00  0.00    +0.045 A 
ATOM     15 CL   UNL     1       0.154  -2.192   7.324  0.00  0.00    -0.084 Cl
ATOM     16  H   UNL     1      -0.320  -4.077   1.397  0.00  0.00    +0.148 HD
ATOM     17  H   UNL     1      -0.002  -0.497  -2.014  0.00  0.00    +0.189 HD
ENDROOT
BRANCH  13  18
ATOM     18  C   UNL     1      -0.429   0.772   3.112  0.00  0.00    -0.017 A 
ATOM     19  C   UNL     1      -1.578   0.893   3.897  0.00  0.00    +0.008 A 
ATOM     20  C   UNL     1      -1.938   2.125   4.401  0.00  0.00    +0.001 A 
ATOM     21  C   UNL     1      -1.164   3.240   4.132  0.00  0.00    +0.000 A 
ATOM     22  C   UNL     1      -0.024   3.127   3.355  0.00  0.00    +0.001 A 
ATOM     23  C   UNL     1       0.351   1.900   2.849  0.00  0.00    +0.008 A 
ENDBRANCH  13  18
TORSDOF 1
