REMARK  Name = ZINC18333598
REMARK  6 active torsions:
REMARK  status: ('A' for Active; 'I' for Inactive)
REMARK    1  A    between atoms: C_1  and  C_2
REMARK    2  A    between atoms: C_2  and  C_4
REMARK    3  A    between atoms: C_2  and  S_20
REMARK    4  A    between atoms: C_10  and  C_15
REMARK    5  A    between atoms: S_20  and  C_21
REMARK    6  A    between atoms: C_27  and  C_31
REMARK                            x       y       z     vdW  Elec       q    Type
REMARK                         _______ _______ _______ _____ _____    ______ ____
ROOT
ATOM      1  C   UNL     1       6.505  -1.175  -1.373  0.00  0.00    +0.027 C 
ATOM      2  C   UNL     1       6.074  -1.842  -0.066  0.00  0.00    +0.117 C 
ENDROOT
BRANCH   2   3
ATOM      3  C   UNL     1       6.722  -3.198   0.045  0.00  0.00    +0.124 A 
ATOM      4  N   UNL     1       6.039  -4.299  -0.361  0.00  0.00    -0.309 N 
ATOM      5  H   UNL     1       5.142  -4.198  -0.717  0.00  0.00    +0.170 HD
ATOM      6  C   UNL     1       6.584  -5.527  -0.284  0.00  0.00    +0.260 A 
ATOM      7  O   UNL     1       5.960  -6.505  -0.658  0.00  0.00    -0.267 OA
ATOM      8  C   UNL     1       7.904  -5.668   0.248  0.00  0.00    +0.083 A 
ATOM      9  C   UNL     1       8.699  -6.877   0.437  0.00  0.00    +0.039 A 
ATOM     10  C   UNL     1       9.943  -6.762   0.967  0.00  0.00    +0.059 A 
ATOM     11  S   UNL     1      10.114  -5.009   1.242  0.00  0.00    -0.076 S 
ATOM     12  C   UNL     1       8.530  -4.476   0.647  0.00  0.00    +0.116 A 
ATOM     13  N   UNL     1       7.928  -3.294   0.535  0.00  0.00    -0.225 NA
BRANCH   9  14
ATOM     14  C   UNL     1       8.161  -8.199   0.059  0.00  0.00    +0.136 A 
ATOM     15  C   UNL     1       8.790  -9.127  -0.711  0.00  0.00    +0.050 A 
ATOM     16  C   UNL     1       7.918 -10.230  -0.812  0.00  0.00    +0.042 A 
ATOM     17  C   UNL     1       6.809  -9.922  -0.114  0.00  0.00    +0.196 A 
ATOM     18  O   UNL     1       6.959  -8.694   0.412  0.00  0.00    -0.463 OA
ENDBRANCH   9  14
ENDBRANCH   2   3
BRANCH   2  19
ATOM     19  S   UNL     1       4.269  -2.031  -0.049  0.00  0.00    -0.075 S 
BRANCH  19  20
ATOM     20  C   UNL     1       3.668  -0.375  -0.035  0.00  0.00    +0.197 A 
ATOM     21  N   UNL     1       4.396   0.719  -0.035  0.00  0.00    -0.122 NA
ATOM     22  N   UNL     1       3.640   1.759  -0.022  0.00  0.00    -0.127 NA
ATOM     23  C   UNL     1       2.373   1.388  -0.013  0.00  0.00    +0.180 A 
ATOM     24  N   UNL     1       2.359   0.009  -0.020  0.00  0.00    -0.276 N 
ATOM     25  C   UNL     1       1.173  -0.671  -0.013  0.00  0.00    +0.107 A 
ATOM     26  C   UNL     1       0.002  -0.004   0.002  0.00  0.00    +0.073 A 
ATOM     27  C   UNL     1      -0.017   1.403   0.010  0.00  0.00    +0.037 A 
ATOM     28  C   UNL     1       1.153   2.096   0.002  0.00  0.00    +0.086 A 
ATOM     29 CL   UNL     1       1.146   3.832   0.011  0.00  0.00    -0.080 Cl
BRANCH  26  30
ATOM     30  C   UNL     1      -1.296  -0.770   0.010  0.00  0.00    +0.419 C 
ATOM     31  F   UNL     1      -2.368   0.129   0.025  0.00  0.00    -0.166 F 
ATOM     32  F   UNL     1      -1.373  -1.569  -1.136  0.00  0.00    -0.166 F 
ATOM     33  F   UNL     1      -1.351  -1.581   1.149  0.00  0.00    -0.166 F 
ENDBRANCH  26  30
ENDBRANCH  19  20
ENDBRANCH   2  19
TORSDOF 5
