REMARK  Name = ZINC12296163
REMARK  16 active torsions:
REMARK  status: ('A' for Active; 'I' for Inactive)
REMARK    1  A    between atoms: C_1  and  C_2
REMARK    2  A    between atoms: C_2  and  C_3
REMARK    3  A    between atoms: C_3  and  C_4
REMARK    4  A    between atoms: C_4  and  C_5
REMARK    5  A    between atoms: C_5  and  C_6
REMARK    6  A    between atoms: C_5  and  C_7
REMARK    7  A    between atoms: C_5  and  O_25
REMARK    8  A    between atoms: N_9  and  CA_10
REMARK    9  A    between atoms: CA_17  and  C_23
REMARK   10  A    between atoms: C_19  and  C_21
REMARK   11  A    between atoms: C_19  and  C_22
REMARK   12  A    between atoms: O_25  and  C_26
REMARK   13  A    between atoms: C_29  and  C_38
REMARK   14  A    between atoms: C_33  and  C_35
REMARK   15  A    between atoms: C_35  and  C_36
REMARK   16  A    between atoms: C_35  and  C_37
REMARK                            x       y       z     vdW  Elec       q    Type
REMARK                         _______ _______ _______ _____ _____    ______ ____
ROOT
ATOM      1  C   UNL     1      -2.183   5.439   1.638  0.00  0.00    +0.142 C 
ATOM      2  C   UNL     1      -3.026   5.853   2.846  0.00  0.00    +0.051 C 
ENDROOT
BRANCH   1   3
ATOM      3  C   UNL     1      -2.783   6.021   0.384  0.00  0.00    +0.245 C 
ATOM      4  O   UNL     1      -2.132   6.779  -0.305  0.00  0.00    -0.273 OA
ATOM      5  N   UNL     1      -4.042   5.700   0.027  0.00  0.00    -0.299 N 
ATOM      6  H   UNL     1      -4.563   5.095   0.578  0.00  0.00    +0.150 HD
BRANCH   5   7
ATOM      7  CA  UNL     1      -4.625   6.266  -1.192  0.00  0.00    +0.190 C 
ATOM      8  C   UNL     1      -6.149   6.295  -1.177  0.00  0.00    +0.165 C 
ATOM      9  N   UNL     1      -6.034   5.167  -2.125  0.00  0.00    -0.271 N 
ATOM     10  C   UNL     1      -4.693   5.284  -2.335  0.00  0.00    +0.240 C 
ATOM     11  O   UNL     1      -3.894   4.802  -3.110  0.00  0.00    -0.273 OA
ATOM     12  CA  UNL     1      -6.500   3.867  -1.631  0.00  0.00    +0.206 C 
ATOM     13  C   UNL     1      -7.586   4.024  -0.531  0.00  0.00    +0.042 C 
ATOM     14  S   UNL     1      -6.908   5.525   0.310  0.00  0.00    -0.127 S 
ATOM     15  C   UNL     1      -8.965   4.293  -1.136  0.00  0.00    +0.025 C 
ATOM     16  C   UNL     1      -7.615   2.817   0.408  0.00  0.00    +0.025 C 
BRANCH  12  17
ATOM     17  C   UNL     1      -7.080   3.084  -2.781  0.00  0.00    +0.377 C 
ATOM     18  O   UNL     1      -7.410   3.653  -3.795  0.00  0.00    -0.244 OA
ATOM     19  OXT UNL     1      -7.230   1.754  -2.680  0.00  0.00    -0.244 OA
ENDBRANCH  12  17
ENDBRANCH   5   7
ENDBRANCH   1   3
BRANCH   1  20
ATOM     20  C   UNL     1      -2.159   3.913   1.531  0.00  0.00    +0.044 C 
BRANCH  20  21
ATOM     21  C   UNL     1      -1.441   3.503   0.243  0.00  0.00    +0.003 C 
BRANCH  21  23
ATOM     22  C   UNL     1      -0.637   1.567  -1.116  0.00  0.00    +0.004 C 
ATOM     23  C   UNL     1      -1.355   1.977   0.171  0.00  0.00    -0.003 C 
ENDBRANCH  21  23
ENDBRANCH  20  21
ENDBRANCH   1  20
BRANCH   1  24
ATOM     24  O   UNL     1      -0.849   5.926   1.798  0.00  0.00    -0.361 OA
BRANCH  24  25
ATOM     25  C   UNL     1      -0.201   5.465   2.986  0.00  0.00    +0.123 C 
ATOM     26  C   UNL     1      -0.493   6.433   4.135  0.00  0.00    +0.035 C 
ATOM     27  C   UNL     1       0.030   7.825   3.775  0.00  0.00    -0.012 C 
ATOM     28  C   UNL     1       1.540   7.756   3.538  0.00  0.00    +0.004 C 
ATOM     29  C   UNL     1       1.833   6.788   2.389  0.00  0.00    +0.006 C 
ATOM     30  C   UNL     1       1.309   5.396   2.749  0.00  0.00    +0.020 C 
ATOM     31  C   UNL     1      -0.262   8.792   4.924  0.00  0.00    +0.007 C 
BRANCH  30  32
ATOM     32  C   UNL     1       1.601   4.429   1.600  0.00  0.00    -0.012 C 
ATOM     33  C   UNL     1       3.092   4.476   1.261  0.00  0.00    +0.007 C 
ATOM     34  C   UNL     1       1.217   3.009   2.019  0.00  0.00    +0.007 C 
ENDBRANCH  30  32
ENDBRANCH  24  25
ENDBRANCH   1  24
TORSDOF 9
