REMARK  Name = ZINC04554101
REMARK  6 active torsions:
REMARK  status: ('A' for Active; 'I' for Inactive)
REMARK    1  A    between atoms: C_1  and  C_2
REMARK    2  A    between atoms: C_2  and  C_3
REMARK    3  A    between atoms: C_2  and  N_45
REMARK    4  A    between atoms: C_11  and  O_23
REMARK    5  A    between atoms: C_13  and  C_16
REMARK    6  A    between atoms: C_20  and  O_22
REMARK                            x       y       z     vdW  Elec       q    Type
REMARK                         _______ _______ _______ _____ _____    ______ ____
ROOT
ATOM      1  C   UNL     1       0.919  -0.516   1.030  0.00  0.00    -0.073 C 
ATOM      2  C   UNL     1       2.370  -0.252   0.619  0.00  0.00    +0.018 C 
ATOM      3  C   UNL     1       2.504   1.225   0.264  0.00  0.00    -0.027 A 
ATOM      4  C   UNL     1       1.396   1.958  -0.001  0.00  0.00    -0.021 A 
ATOM      5  S   UNL     1       2.002   3.587  -0.351  0.00  0.00    -0.080 S 
ATOM      6  C   UNL     1       3.677   3.295  -0.154  0.00  0.00    +0.080 A 
ATOM      7  C   UNL     1       3.765   1.936   0.180  0.00  0.00    +0.067 A 
ATOM      8  C   UNL     1       5.122   1.385   0.426  0.00  0.00    +0.220 C 
ATOM      9  N   UNL     1       6.147   2.127   0.108  0.00  0.00    -0.223 NA
ATOM     10  C   UNL     1       6.060   3.421  -0.558  0.00  0.00    +0.224 C 
ATOM     11  N   UNL     1       4.785   4.100  -0.261  0.00  0.00    -0.313 N 
ATOM     12  C   UNL     1      -0.018   1.471   0.010  0.00  0.00    -0.035 C 
ATOM     13  H   UNL     1       4.732   5.062  -0.148  0.00  0.00    +0.149 HD
ATOM     14  N   UNL     1       0.013  -0.011  -0.021  0.00  0.00    +0.384 N 
ATOM     15  H   UNL     1       0.359  -0.320  -0.938  0.00  0.00    -0.081 HD
ENDROOT
BRANCH  10  16
ATOM     16  C   UNL     1       6.175   3.216  -2.046  0.00  0.00    -0.002 A 
ATOM     17  C   UNL     1       5.571   4.108  -2.914  0.00  0.00    +0.007 A 
ATOM     18  C   UNL     1       5.679   3.926  -4.281  0.00  0.00    +0.004 A 
ATOM     19  C   UNL     1       6.381   2.847  -4.782  0.00  0.00    +0.045 A 
ATOM     20  C   UNL     1       6.982   1.948  -3.913  0.00  0.00    +0.117 A 
ATOM     21  C   UNL     1       6.877   2.136  -2.542  0.00  0.00    +0.052 A 
BRANCH  20  22
ATOM     22  O   UNL     1       7.672   0.885  -4.404  0.00  0.00    -0.507 OA
ATOM     23  H   UNL     1       7.133   0.093  -4.536  0.00  0.00    +0.292 HD
ENDBRANCH  20  22
ENDBRANCH  10  16
BRANCH  14  25
ATOM     24  C   UNL     1      -1.906  -0.096   1.534  0.00  0.00    -0.014 C 
ATOM     25  C   UNL     1      -1.350  -0.550   0.183  0.00  0.00    -0.074 C 
ATOM     26  C   UNL     1      -2.259  -0.044  -0.939  0.00  0.00    -0.014 C 
ENDBRANCH  14  25
BRANCH   8  27
ATOM     27  O   UNL     1       5.290   0.155   0.963  0.00  0.00    -0.492 OA
ATOM     28  H   UNL     1       6.215  -0.101   1.079  0.00  0.00    +0.294 HD
ENDBRANCH   8  27
TORSDOF 4
