REMARK  Name = ZINC37314713
REMARK  5 active torsions:
REMARK  status: ('A' for Active; 'I' for Inactive)
REMARK    1  A    between atoms: C_1  and  C_2
REMARK    2  A    between atoms: C_10  and  C_11
REMARK    3  A    between atoms: C_11  and  C_13
REMARK    4  A    between atoms: C_11  and  N_14
REMARK    5  A    between atoms: N_14  and  C_15
REMARK                            x       y       z     vdW  Elec       q    Type
REMARK                         _______ _______ _______ _____ _____    ______ ____
ROOT
ATOM      1  C   UNL     1       0.030  -0.352   2.503  0.00  0.00    +0.134 C 
ATOM      2  C   UNL     1       1.432  -0.532   3.090  0.00  0.00    +0.036 C 
ENDROOT
BRANCH   1  12
ATOM      3  C   UNL     1      -0.018   1.503   0.010  0.00  0.00    +0.048 C 
ATOM      4  C   UNL     1       0.002  -0.004   0.002  0.00  0.00    +0.000 A 
ATOM      5  C   UNL     1       0.009  -0.879  -1.177  0.00  0.00    +0.023 A 
ATOM      6  C   UNL     1       0.000  -0.660  -2.553  0.00  0.00    +0.012 A 
ATOM      7  C   UNL     1       0.011  -1.726  -3.409  0.00  0.00    +0.001 A 
ATOM      8  C   UNL     1       0.031  -3.023  -2.916  0.00  0.00    +0.004 A 
ATOM      9  C   UNL     1       0.040  -3.259  -1.558  0.00  0.00    +0.047 A 
ATOM     10  C   UNL     1       0.029  -2.190  -0.671  0.00  0.00    +0.136 A 
ATOM     11  O   UNL     1       0.033  -2.100   0.674  0.00  0.00    -0.458 OA
ATOM     12  C   UNL     1       0.023  -0.814   1.069  0.00  0.00    +0.129 A 
ENDBRANCH   1  12
BRANCH   1  13
ATOM     13  N   UNL     1      -0.928  -1.145   3.277  0.00  0.00    -0.333 N 
ATOM     14  H   UNL     1      -1.171  -2.037   2.981  0.00  0.00    +0.147 HD
BRANCH  13  15
ATOM     15  C   UNL     1      -1.493  -0.618   4.441  0.00  0.00    +0.043 A 
ATOM     16  C   UNL     1      -1.152   0.661   4.862  0.00  0.00    +0.039 A 
ATOM     17  C   UNL     1      -1.712   1.180   6.014  0.00  0.00    +0.020 A 
ATOM     18  C   UNL     1      -2.613   0.427   6.747  0.00  0.00    +0.016 A 
ATOM     19  C   UNL     1      -2.955  -0.846   6.330  0.00  0.00    +0.018 A 
ATOM     20  C   UNL     1      -2.403  -1.369   5.176  0.00  0.00    +0.039 A 
ATOM     21 BR   UNL     1      -2.878  -3.107   4.602  0.00  0.00    -0.048 Br
ATOM     22 BR   UNL     1      -1.247   2.920   6.590  0.00  0.00    -0.050 Br
ENDBRANCH  13  15
ENDBRANCH   1  13
TORSDOF 3
