REMARK  Name = ZINC09547781
REMARK  5 active torsions:
REMARK  status: ('A' for Active; 'I' for Inactive)
REMARK    1  A    between atoms: C_1  and  C_2
REMARK    2  A    between atoms: C_4  and  C_29
REMARK    3  A    between atoms: C_6  and  N_8
REMARK    4  A    between atoms: C_11  and  C_13
REMARK    5  A    between atoms: C_14  and  C_20
REMARK                            x       y       z     vdW  Elec       q    Type
REMARK                         _______ _______ _______ _____ _____    ______ ____
ROOT
ATOM      1  N   UNL     1       0.053  -2.798   2.395  0.00  0.00    -0.218 N 
ATOM      2  C   UNL     1       0.673  -2.421   3.531  0.00  0.00    +0.133 A 
ATOM      3  C   UNL     1       0.432  -3.385   4.474  0.00  0.00    +0.023 A 
ATOM      4  C   UNL     1      -0.344  -4.373   3.887  0.00  0.00    +0.066 A 
ATOM      5  N   UNL     1      -0.580  -4.027   2.643  0.00  0.00    -0.170 NA
ATOM      6  C   UNL     1      -0.838  -5.627   4.563  0.00  0.00    +0.068 C 
ATOM      7  C   UNL     1       0.959  -3.285   5.883  0.00  0.00    +0.063 C 
ATOM      8  C   UNL     1       2.256  -2.470   5.854  0.00  0.00    +0.109 C 
ATOM      9  C   UNL     1       2.117  -1.256   4.980  0.00  0.00    +0.219 C 
ATOM     10  O   UNL     1       2.638  -0.217   5.328  0.00  0.00    -0.275 OA
ATOM     11  N   UNL     1       1.429  -1.285   3.818  0.00  0.00    -0.270 N 
ATOM     12  H   UNL     1       1.460  -0.537   3.201  0.00  0.00    +0.156 HD
ENDROOT
BRANCH   7  13
ATOM     13  C   UNL     1      -0.056  -2.595   6.758  0.00  0.00    -0.036 A 
ATOM     14  C   UNL     1      -0.463  -1.308   6.458  0.00  0.00    +0.008 A 
ATOM     15  C   UNL     1      -1.394  -0.672   7.257  0.00  0.00    +0.050 A 
ATOM     16  C   UNL     1      -1.922  -1.323   8.361  0.00  0.00    +0.166 A 
ATOM     17  C   UNL     1      -1.512  -2.619   8.662  0.00  0.00    +0.167 A 
ATOM     18  C   UNL     1      -0.582  -3.253   7.854  0.00  0.00    +0.053 A 
ATOM     19  O   UNL     1      -2.169  -3.035   9.784  0.00  0.00    -0.453 OA
ATOM     20  C   UNL     1      -2.678  -1.836  10.398  0.00  0.00    +0.466 C 
ATOM     21  O   UNL     1      -2.837  -0.926   9.293  0.00  0.00    -0.453 OA
ENDBRANCH   7  13
BRANCH   1  27
ATOM     22  C   UNL     1      -0.018   1.503   0.010  0.00  0.00    +0.044 C 
ATOM     23  C   UNL     1       0.002  -0.004   0.002  0.00  0.00    -0.048 A 
ATOM     24  C   UNL     1       0.006  -0.688  -1.200  0.00  0.00    +0.006 A 
ATOM     25  C   UNL     1       0.025  -2.071  -1.211  0.00  0.00    -0.048 A 
ATOM     26  C   UNL     1       0.040  -2.773  -0.022  0.00  0.00    +0.031 A 
ATOM     27  C   UNL     1       0.037  -2.089   1.186  0.00  0.00    +0.068 A 
ATOM     28  C   UNL     1       0.023  -0.700   1.195  0.00  0.00    +0.031 A 
ATOM     29  C   UNL     1       0.028  -2.812  -2.523  0.00  0.00    +0.044 C 
ENDBRANCH   1  27
TORSDOF 2
