REMARK  Name = ZINC37637298
REMARK  5 active torsions:
REMARK  status: ('A' for Active; 'I' for Inactive)
REMARK    1  A    between atoms: C_4  and  C_7
REMARK    2  A    between atoms: C_7  and  S_8
REMARK    3  A    between atoms: S_8  and  C_9
REMARK    4  A    between atoms: C_12  and  N_20
REMARK    5  A    between atoms: C_13  and  N_15
REMARK                            x       y       z     vdW  Elec       q    Type
REMARK                         _______ _______ _______ _____ _____    ______ ____
ROOT
ATOM      1  C   UNL     1       5.577  -2.428   1.287  0.00  0.00    +0.192 A 
ATOM      2  N   UNL     1       6.381  -2.046   0.306  0.00  0.00    -0.205 NA
ATOM      3  C   UNL     1       7.702  -2.148   0.427  0.00  0.00    +0.144 A 
ATOM      4  C   UNL     1       8.237  -2.666   1.608  0.00  0.00    +0.114 A 
ATOM      5  C   UNL     1       7.357  -3.056   2.619  0.00  0.00    +0.149 A 
ATOM      6  N   UNL     1       6.048  -2.919   2.425  0.00  0.00    -0.205 NA
ATOM      7  N   UNL     1       8.537  -1.746  -0.607  0.00  0.00    -0.342 N 
ATOM      8  H   UNL     1       8.262  -1.030  -1.202  0.00  0.00    +0.144 HD
ATOM      9  H   UNL     1       9.394  -2.181  -0.735  0.00  0.00    +0.144 HD
ENDROOT
BRANCH   5  10
ATOM     10  N   UNL     1       7.841  -3.576   3.811  0.00  0.00    -0.314 N 
ATOM     11  C   UNL     1       9.257  -3.662   4.197  0.00  0.00    +0.106 C 
ATOM     12  C   UNL     1       9.314  -4.330   5.587  0.00  0.00    +0.020 C 
ATOM     13  C   UNL     1       7.967  -5.097   5.659  0.00  0.00    +0.020 C 
ATOM     14  C   UNL     1       7.019  -4.128   4.904  0.00  0.00    +0.106 C 
ENDBRANCH   5  10
BRANCH   4  15
ATOM     15  N   UNL     1       9.628  -2.790   1.776  0.00  0.00    -0.283 N 
ATOM     16  C   UNL     1      10.350  -3.519   0.901  0.00  0.00    +0.330 C 
ATOM     17  O   UNL     1       9.791  -4.127   0.013  0.00  0.00    -0.279 OA
ATOM     18  H   UNL     1      10.068  -2.351   2.521  0.00  0.00    +0.155 HD
ENDBRANCH   4  15
BRANCH   1  19
ATOM     19  S   UNL     1       3.835  -2.273   1.077  0.00  0.00    -0.081 S 
BRANCH  19  20
ATOM     20  C   UNL     1       3.654  -1.575  -0.587  0.00  0.00    +0.112 C 
BRANCH  20  24
ATOM     21  C   UNL     1      -0.492  -1.047  -1.470  0.00  0.00    +0.000 A 
ATOM     22  C   UNL     1       0.222  -0.028  -0.867  0.00  0.00    +0.000 A 
ATOM     23  C   UNL     1       1.563  -0.199  -0.582  0.00  0.00    +0.004 A 
ATOM     24  C   UNL     1       2.191  -1.389  -0.898  0.00  0.00    -0.037 A 
ATOM     25  C   UNL     1       1.477  -2.409  -1.499  0.00  0.00    +0.004 A 
ATOM     26  C   UNL     1       0.136  -2.237  -1.786  0.00  0.00    +0.000 A 
ENDBRANCH  20  24
ENDBRANCH  19  20
ENDBRANCH   1  19
TORSDOF 5
