REMARK  Name = ZINC64889432
REMARK  8 active torsions:
REMARK  status: ('A' for Active; 'I' for Inactive)
REMARK    1  A    between atoms: C_1  and  C_2
REMARK    2  A    between atoms: N_8  and  C_9
REMARK    3  A    between atoms: C_9  and  C_10
REMARK    4  A    between atoms: C_10  and  N_11
REMARK    5  A    between atoms: C_12  and  C_14
REMARK    6  A    between atoms: C_14  and  N_15
REMARK    7  A    between atoms: C_18  and  C_21
REMARK    8  A    between atoms: N_24  and  C_26
REMARK                            x       y       z     vdW  Elec       q    Type
REMARK                         _______ _______ _______ _____ _____    ______ ____
ROOT
ATOM      1  N   UNL     1       6.977   0.224   4.878  0.00  0.00    +0.388 N 
ATOM      2  C   UNL     1       8.290   0.885   4.958  0.00  0.00    -0.073 C 
ATOM      3  C   UNL     1       8.856   0.678   6.365  0.00  0.00    +0.017 C 
ATOM      4  C   UNL     1       8.774  -0.778   6.732  0.00  0.00    -0.045 C 
ATOM      5  C   UNL     1       8.017  -1.628   6.074  0.00  0.00    -0.041 C 
ATOM      6  C   UNL     1       7.172  -1.230   4.899  0.00  0.00    -0.050 C 
ATOM      7  H   UNL     1       6.411   0.500   5.666  0.00  0.00    -0.081 HD
ENDROOT
BRANCH   4   8
ATOM      8  C   UNL     1       9.575  -1.271   7.874  0.00  0.00    +0.016 A 
ATOM      9  C   UNL     1       9.412  -0.906   9.226  0.00  0.00    +0.143 A 
ATOM     10  N   UNL     1      10.304  -1.551   9.931  0.00  0.00    -0.174 NA
ATOM     11  N   UNL     1      11.066  -2.347   9.068  0.00  0.00    -0.239 N 
ATOM     12  C   UNL     1      10.604  -2.168   7.811  0.00  0.00    +0.122 A 
BRANCH  11  13
ATOM     13  C   UNL     1      12.123  -3.188   9.443  0.00  0.00    +0.066 A 
ATOM     14  C   UNL     1      12.803  -3.921   8.481  0.00  0.00    +0.030 A 
ATOM     15  C   UNL     1      13.844  -4.749   8.853  0.00  0.00    +0.040 A 
ATOM     16  C   UNL     1      14.209  -4.848  10.185  0.00  0.00    +0.124 A 
ATOM     17  C   UNL     1      13.532  -4.118  11.146  0.00  0.00    +0.040 A 
ATOM     18  C   UNL     1      12.495  -3.284  10.778  0.00  0.00    +0.030 A 
ATOM     19  F   UNL     1      15.227  -5.659  10.547  0.00  0.00    -0.205 F 
ENDBRANCH  11  13
ENDBRANCH   4   8
BRANCH   1  20
ATOM     20  C   UNL     1       6.306   0.613   3.630  0.00  0.00    +0.019 C 
BRANCH  20  22
ATOM     21  N   UNL     1       4.113   0.250   2.546  0.00  0.00    -0.319 N 
ATOM     22  C   UNL     1       4.919   0.025   3.602  0.00  0.00    +0.196 C 
ATOM     23  O   UNL     1       4.528  -0.651   4.530  0.00  0.00    -0.278 OA
ATOM     24  H   UNL     1       4.426   0.791   1.803  0.00  0.00    +0.149 HD
BRANCH  21  25
ATOM     25  C   UNL     1       2.764  -0.321   2.518  0.00  0.00    +0.085 C 
BRANCH  25  26
ATOM     26  C   UNL     1       2.066   0.083   1.218  0.00  0.00    -0.059 C 
BRANCH  26  33
ATOM     27  C   UNL     1      -0.019   1.526   0.010  0.00  0.00    -0.013 C 
ATOM     28  C   UNL     1       0.002  -0.004   0.002  0.00  0.00    -0.072 C 
ATOM     29  C   UNL     1      -1.434  -0.533   0.011  0.00  0.00    -0.016 C 
ATOM     30  C   UNL     1      -1.408  -2.064   0.003  0.00  0.00    -0.003 C 
ATOM     31  C   UNL     1      -0.600  -2.558   1.206  0.00  0.00    -0.019 C 
ATOM     32  C   UNL     1       0.805  -1.954   1.152  0.00  0.00    -0.078 C 
ATOM     33  N   UNL     1       0.713  -0.490   1.191  0.00  0.00    +0.382 N 
ATOM     34  H   UNL     1       0.213  -0.206   2.020  0.00  0.00    -0.081 HD
ENDBRANCH  26  33
ENDBRANCH  25  26
ENDBRANCH  21  25
ENDBRANCH  20  22
ENDBRANCH   1  20
TORSDOF 7
