REMARK  Name = ZINC36427626
REMARK  10 active torsions:
REMARK  status: ('A' for Active; 'I' for Inactive)
REMARK    1  A    between atoms: C_1  and  C_2
REMARK    2  A    between atoms: C_6  and  C_27
REMARK    3  A    between atoms: N_10  and  C_14
REMARK    4  A    between atoms: C_14  and  N_15
REMARK    5  A    between atoms: N_15  and  C_16
REMARK    6  A    between atoms: C_16  and  C_17
REMARK    7  A    between atoms: C_16  and  C_23
REMARK    8  A    between atoms: C_23  and  C_24
REMARK    9  A    between atoms: C_23  and  C_25
REMARK   10  A    between atoms: C_23  and  C_26
REMARK                            x       y       z     vdW  Elec       q    Type
REMARK                         _______ _______ _______ _____ _____    ______ ____
ROOT
ATOM      1  C   UNL     1      -0.019   1.526   0.010  0.00  0.00    +0.010 C 
ATOM      2  C   UNL     1       0.002  -0.004   0.002  0.00  0.00    +0.019 C 
ATOM      3  C   UNL     1       0.718  -0.498  -1.258  0.00  0.00    +0.006 C 
ATOM      4  C   UNL     1       2.159   0.015  -1.258  0.00  0.00    +0.001 C 
ATOM      5  C   UNL     1       2.892  -0.516  -0.025  0.00  0.00    +0.006 C 
ATOM      6  C   UNL     1       2.185  -0.023   1.240  0.00  0.00    +0.019 C 
ATOM      7  C   UNL     1       0.740  -0.509   1.237  0.00  0.00    +0.118 C 
ATOM      8  C   UNL     1       0.030  -0.062   2.495  0.00  0.00    +0.248 C 
ATOM      9  O   UNL     1      -0.168   1.077   2.861  0.00  0.00    -0.273 OA
ATOM     10  N   UNL     1      -0.336  -1.198   3.124  0.00  0.00    -0.211 N 
ATOM     11  C   UNL     1       0.042  -2.285   2.441  0.00  0.00    +0.310 C 
ATOM     12  O   UNL     1      -0.175  -3.423   2.807  0.00  0.00    -0.252 OA
ATOM     13  N   UNL     1       0.691  -1.975   1.302  0.00  0.00    -0.284 N 
ATOM     14  C   UNL     1       2.905  -0.570   2.473  0.00  0.00    +0.010 C 
ATOM     15  H   UNL     1       1.053  -2.598   0.652  0.00  0.00    +0.151 HD
ENDROOT
BRANCH  10  16
ATOM     16  C   UNL     1      -1.059  -1.237   4.398  0.00  0.00    +0.202 C 
BRANCH  16  17
ATOM     17  N   UNL     1      -2.505  -1.239   4.141  0.00  0.00    -0.293 NA
ATOM     18  H   UNL     1      -2.993  -0.668   4.815  0.00  0.00    +0.124 HD
BRANCH  17  19
ATOM     19  C   UNL     1      -3.035  -2.609   4.130  0.00  0.00    +0.091 C 
BRANCH  19  20
ATOM     20  C   UNL     1      -4.292  -2.655   3.299  0.00  0.00    -0.030 A 
ATOM     21  C   UNL     1      -5.204  -1.618   3.367  0.00  0.00    +0.005 A 
ATOM     22  C   UNL     1      -6.356  -1.660   2.604  0.00  0.00    +0.000 A 
ATOM     23  C   UNL     1      -6.596  -2.738   1.773  0.00  0.00    +0.000 A 
ATOM     24  C   UNL     1      -5.683  -3.774   1.704  0.00  0.00    +0.000 A 
ATOM     25  C   UNL     1      -4.529  -3.730   2.464  0.00  0.00    +0.005 A 
ENDBRANCH  19  20
BRANCH  19  26
ATOM     26  C   UNL     1      -3.356  -3.043   5.562  0.00  0.00    -0.018 C 
ATOM     27  C   UNL     1      -4.398  -2.097   6.161  0.00  0.00    +0.012 C 
ATOM     28  C   UNL     1      -3.908  -4.470   5.551  0.00  0.00    +0.012 C 
ATOM     29  C   UNL     1      -2.080  -2.997   6.406  0.00  0.00    +0.012 C 
ENDBRANCH  19  26
ENDBRANCH  17  19
ENDBRANCH  16  17
ENDBRANCH  10  16
TORSDOF 5
