REMARK  Name = ZINC39685854
REMARK  16 active torsions:
REMARK  status: ('A' for Active; 'I' for Inactive)
REMARK    1  A    between atoms: C_1  and  C_2
REMARK    2  A    between atoms: C_2  and  C_3
REMARK    3  A    between atoms: C_3  and  C_4
REMARK    4  A    between atoms: C_4  and  C_5
REMARK    5  A    between atoms: C_5  and  C_7
REMARK    6  A    between atoms: C_5  and  C_8
REMARK    7  A    between atoms: C_12  and  C_21
REMARK    8  A    between atoms: N_23  and  C_24
REMARK    9  A    between atoms: C_24  and  C_26
REMARK   10  A    between atoms: C_24  and  C_29
REMARK   11  A    between atoms: C_26  and  C_27
REMARK   12  A    between atoms: C_26  and  C_28
REMARK   13  A    between atoms: N_31  and  C_32
REMARK   14  A    between atoms: C_32  and  C_33
REMARK   15  A    between atoms: C_32  and  C_34
REMARK   16  A    between atoms: C_32  and  C_35
REMARK                            x       y       z     vdW  Elec       q    Type
REMARK                         _______ _______ _______ _____ _____    ______ ____
ROOT
ATOM      1  C   UNL     1       0.736  -5.395  -3.319  0.00  0.00    +0.218 C 
ATOM      2  O   UNL     1      -0.036  -6.208  -2.856  0.00  0.00    -0.275 OA
ATOM      3  N   UNL     1       1.508  -5.723  -4.374  0.00  0.00    -0.300 N 
ATOM      4  C   UNL     1       2.574  -4.911  -5.006  0.00  0.00    +0.121 C 
ATOM      5  C   UNL     1       3.686  -5.928  -5.350  0.00  0.00    +0.100 C 
ATOM      6  C   UNL     1       2.963  -7.281  -5.453  0.00  0.00    -0.004 C 
ATOM      7  C   UNL     1       1.486  -6.980  -5.159  0.00  0.00    +0.115 C 
ATOM      8  C   UNL     1       3.513  -8.255  -4.416  0.00  0.00    -0.010 C 
ATOM      9  C   UNL     1       2.819  -9.610  -4.577  0.00  0.00    -0.082 C 
ATOM     10  N   UNL     1       3.052 -10.124  -5.932  0.00  0.00    +0.379 N 
ATOM     11  C   UNL     1       2.438  -9.228  -6.920  0.00  0.00    -0.082 C 
ATOM     12  C   UNL     1       3.116  -7.856  -6.858  0.00  0.00    -0.010 C 
ATOM     13  H   UNL     1       4.045 -10.181  -6.102  0.00  0.00    -0.086 HD
ATOM     14  H   UNL     1       2.645 -11.043  -6.016  0.00  0.00    -0.086 HD
ENDROOT
BRANCH   5  15
ATOM     15  C   UNL     1       4.333  -5.573  -6.664  0.00  0.00    +0.219 C 
ATOM     16  O   UNL     1       3.682  -5.033  -7.534  0.00  0.00    -0.275 OA
ATOM     17  N   UNL     1       5.633  -5.857  -6.874  0.00  0.00    -0.303 N 
ATOM     18  H   UNL     1       6.154  -6.289  -6.178  0.00  0.00    +0.149 HD
BRANCH  17  19
ATOM     19  C   UNL     1       6.262  -5.513  -8.152  0.00  0.00    +0.161 C 
BRANCH  19  20
ATOM     20  C   UNL     1       7.441  -6.420  -8.392  0.00  0.00    +0.234 C 
ATOM     21  O   UNL     1       7.920  -7.049  -7.472  0.00  0.00    -0.274 OA
ATOM     22  N   UNL     1       7.963  -6.533  -9.630  0.00  0.00    -0.309 N 
ATOM     23  H   UNL     1       7.626  -5.979 -10.351  0.00  0.00    +0.149 HD
BRANCH  22  24
ATOM     24  C   UNL     1       9.040  -7.493  -9.886  0.00  0.00    +0.026 C 
ATOM     25  C   UNL     1       8.552  -8.906  -9.560  0.00  0.00    +0.031 C 
ATOM     26  C   UNL     1       9.448  -7.420 -11.358  0.00  0.00    +0.031 C 
ATOM     27  C   UNL     1      10.245  -7.154  -9.005  0.00  0.00    +0.031 C 
ENDBRANCH  22  24
ENDBRANCH  19  20
BRANCH  19  28
ATOM     28  C   UNL     1       6.737  -4.059  -8.111  0.00  0.00    +0.012 C 
ATOM     29  C   UNL     1       5.530  -3.133  -7.949  0.00  0.00    +0.009 C 
ATOM     30  C   UNL     1       7.690  -3.867  -6.930  0.00  0.00    +0.009 C 
ENDBRANCH  19  28
ENDBRANCH  17  19
ENDBRANCH   5  15
BRANCH   1  31
ATOM     31  C   UNL     1       0.831  -4.018  -2.715  0.00  0.00    +0.072 C 
ATOM     32  C   UNL     1       1.902  -4.013  -1.622  0.00  0.00    +0.017 C 
BRANCH  31  33
ATOM     33  C   UNL     1      -0.519  -3.633  -2.106  0.00  0.00    +0.012 C 
BRANCH  33  34
ATOM     34  C   UNL     1      -0.459  -2.189  -1.604  0.00  0.00    +0.000 C 
BRANCH  34  36
ATOM     35  C   UNL     1      -1.750  -0.360  -0.494  0.00  0.00    +0.004 C 
ATOM     36  C   UNL     1      -1.810  -1.804  -0.996  0.00  0.00    -0.003 C 
ENDBRANCH  34  36
ENDBRANCH  33  34
ENDBRANCH  31  33
ENDBRANCH   1  31
TORSDOF 9
