REMARK  Name = ZINC06000359
REMARK  4 active torsions:
REMARK  status: ('A' for Active; 'I' for Inactive)
REMARK    1  A    between atoms: C_4  and  S_8
REMARK    2  A    between atoms: S_8  and  C_9
REMARK    3  A    between atoms: C_9  and  C_10
REMARK    4  A    between atoms: N_12  and  N_13
REMARK                            x       y       z     vdW  Elec       q    Type
REMARK                         _______ _______ _______ _____ _____    ______ ____
ROOT
ATOM      1  C   UNL     1      -4.409   0.514   1.929  0.00  0.00    +0.240 C 
ATOM      2  O   UNL     1      -5.019   0.161   0.943  0.00  0.00    -0.273 OA
ATOM      3  N   UNL     1      -4.885   0.222   3.156  0.00  0.00    -0.223 N 
ATOM      4  H   UNL     1      -4.397   0.505   3.946  0.00  0.00    +0.174 HD
ENDROOT
BRANCH   3   5
ATOM      5  N   UNL     1      -6.084  -0.489   3.292  0.00  0.00    -0.137 N 
ATOM      6  C   UNL     1      -6.159  -1.789   3.645  0.00  0.00    +0.263 C 
ATOM      7  O   UNL     1      -5.237  -2.536   3.896  0.00  0.00    -0.271 OA
ATOM      8  C   UNL     1      -7.634  -2.119   3.661  0.00  0.00    +0.114 C 
ATOM      9  C   UNL     1      -8.066  -2.546   5.059  0.00  0.00    +0.035 C 
ATOM     10  C   UNL     1      -9.567  -2.849   5.062  0.00  0.00    +0.003 C 
ATOM     11  C   UNL     1      -9.864  -3.962   4.056  0.00  0.00    +0.000 C 
ATOM     12  C   UNL     1      -9.447  -3.509   2.655  0.00  0.00    +0.003 C 
ATOM     13  C   UNL     1      -7.946  -3.210   2.643  0.00  0.00    +0.035 C 
ATOM     14  N   UNL     1      -8.285  -0.859   3.283  0.00  0.00    -0.284 N 
ATOM     15  C   UNL     1      -7.298   0.038   3.092  0.00  0.00    +0.326 C 
ATOM     16  O   UNL     1      -7.489   1.194   2.772  0.00  0.00    -0.251 OA
ATOM     17  H   UNL     1      -9.238  -0.702   3.192  0.00  0.00    +0.151 HD
ENDBRANCH   3   5
BRANCH   1  18
ATOM     18  C   UNL     1      -3.119   1.280   1.784  0.00  0.00    +0.171 C 
BRANCH  18  19
ATOM     19  S   UNL     1      -2.750   1.513   0.023  0.00  0.00    -0.113 S 
BRANCH  19  23
ATOM     20  C   UNL     1       1.148   3.823   0.011  0.00  0.00    +0.003 A 
ATOM     21  C   UNL     1      -0.057   4.502   0.026  0.00  0.00    +0.021 A 
ATOM     22  C   UNL     1      -1.248   3.801   0.035  0.00  0.00    +0.056 A 
ATOM     23  C   UNL     1      -1.234   2.411   0.021  0.00  0.00    +0.045 A 
ATOM     24  C   UNL     1      -0.021   1.732   0.012  0.00  0.00    +0.056 A 
ATOM     25  C   UNL     1       1.165   2.440   0.004  0.00  0.00    +0.021 A 
ATOM     26 CL   UNL     1       0.002  -0.004   0.002  0.00  0.00    -0.082 Cl
ATOM     27 CL   UNL     1      -2.759   4.656   0.054  0.00  0.00    -0.082 Cl
ENDBRANCH  19  23
ENDBRANCH  18  19
ENDBRANCH   1  18
TORSDOF 4
