REMARK  Name = ZINC43389703
REMARK  6 active torsions:
REMARK  status: ('A' for Active; 'I' for Inactive)
REMARK    1  A    between atoms: C_1  and  C_2
REMARK    2  A    between atoms: C_2  and  C_4
REMARK    3  A    between atoms: C_2  and  N_14
REMARK    4  A    between atoms: C_8  and  S_10
REMARK    5  A    between atoms: S_10  and  N_13
REMARK    6  A    between atoms: N_17  and  C_18
REMARK                            x       y       z     vdW  Elec       q    Type
REMARK                         _______ _______ _______ _____ _____    ______ ____
ROOT
ATOM      1  N   UNL     1       0.689  -0.471  -1.205  0.00  0.00    -0.293 N 
ATOM      2  C   UNL     1       0.006  -0.609  -2.358  0.00  0.00    +0.304 C 
ATOM      3  O   UNL     1      -1.180  -0.343  -2.398  0.00  0.00    -0.252 OA
ATOM      4  N   UNL     1       0.637  -1.043  -3.467  0.00  0.00    -0.269 N 
ATOM      5  H   UNL     1       1.635  -0.683  -1.173  0.00  0.00    +0.151 HD
ATOM      6  H   UNL     1       1.596  -1.191  -3.454  0.00  0.00    +0.156 HD
ENDROOT
BRANCH   4   7
ATOM      7  C   UNL     1      -0.091  -1.280  -4.639  0.00  0.00    +0.035 A 
ATOM      8  C   UNL     1      -1.173  -0.471  -4.962  0.00  0.00    +0.023 A 
ATOM      9  C   UNL     1      -1.887  -0.709  -6.119  0.00  0.00    +0.006 A 
ATOM     10  C   UNL     1      -1.529  -1.751  -6.960  0.00  0.00    -0.044 A 
ATOM     11  C   UNL     1      -0.452  -2.558  -6.640  0.00  0.00    -0.042 A 
ATOM     12  C   UNL     1       0.270  -2.319  -5.484  0.00  0.00    +0.027 A 
ATOM     13  C   UNL     1      -0.270  -3.614  -7.709  0.00  0.00    +0.036 C 
ATOM     14  C   UNL     1      -1.605  -3.640  -8.483  0.00  0.00    +0.009 C 
ATOM     15  C   UNL     1      -2.143  -2.210  -8.265  0.00  0.00    +0.036 C 
ENDBRANCH   4   7
BRANCH   1  17
ATOM     16  C   UNL     1      -0.026   1.530   0.006  0.00  0.00    +0.033 C 
ATOM     17  C   UNL     1       0.003   0.001   0.001  0.00  0.00    +0.102 C 
BRANCH  17  18
ATOM     18  C   UNL     1       0.738  -0.491   1.221  0.00  0.00    -0.026 A 
ATOM     19  C   UNL     1       2.120  -0.493   1.242  0.00  0.00    +0.005 A 
ATOM     20  C   UNL     1       2.794  -0.945   2.361  0.00  0.00    +0.002 A 
ATOM     21  C   UNL     1       2.085  -1.393   3.461  0.00  0.00    +0.028 A 
ATOM     22  C   UNL     1       0.703  -1.390   3.440  0.00  0.00    +0.105 A 
ATOM     23  C   UNL     1       0.030  -0.935   2.322  0.00  0.00    +0.034 A 
BRANCH  22  24
ATOM     24  S   UNL     1      -0.200  -1.963   4.841  0.00  0.00    +0.056 S 
ATOM     25  O   UNL     1      -1.475  -2.368   4.364  0.00  0.00    -0.153 OA
ATOM     26  O   UNL     1       0.664  -2.841   5.549  0.00  0.00    -0.153 OA
BRANCH  24  27
ATOM     27  N   UNL     1      -0.456  -0.656   5.825  0.00  0.00    -0.204 NA
ATOM     28  H   UNL     1      -1.247  -0.619   6.385  0.00  0.00    +0.144 HD
ATOM     29  H   UNL     1       0.185   0.072   5.842  0.00  0.00    +0.144 HD
ENDBRANCH  24  27
ENDBRANCH  22  24
ENDBRANCH  17  18
ENDBRANCH   1  17
TORSDOF 5
