REMARK  Name = ZINC39438003
REMARK  7 active torsions:
REMARK  status: ('A' for Active; 'I' for Inactive)
REMARK    1  A    between atoms: C_4  and  C_7
REMARK    2  A    between atoms: C_11  and  C_13
REMARK    3  A    between atoms: C_13  and  N_14
REMARK    4  A    between atoms: C_15  and  C_17
REMARK    5  A    between atoms: C_17  and  C_18
REMARK    6  A    between atoms: N_25  and  C_26
REMARK    7  A    between atoms: C_26  and  C_27
REMARK                            x       y       z     vdW  Elec       q    Type
REMARK                         _______ _______ _______ _____ _____    ______ ____
ROOT
ATOM      1  C   UNL     1       3.064  -6.492  -2.165  0.00  0.00    +0.124 C 
ENDROOT
BRANCH   1   2
ATOM      2  C   UNL     1       2.334  -7.137  -3.344  0.00  0.00    +0.152 C 
ATOM      3  C   UNL     1       0.949  -6.563  -3.447  0.00  0.00    +0.231 C 
ATOM      4  O   UNL     1       0.309  -6.404  -2.429  0.00  0.00    -0.274 OA
ATOM      5  N   UNL     1       0.393  -6.221  -4.614  0.00  0.00    -0.313 N 
ATOM      6  C   UNL     1       1.091  -6.338  -5.891  0.00  0.00    +0.119 C 
ATOM      7  C   UNL     1       2.284  -7.285  -5.751  0.00  0.00    +0.104 C 
ATOM      8  N   UNL     1       3.078  -6.872  -4.583  0.00  0.00    -0.285 NA
ATOM      9  H   UNL     1      -0.515  -5.879  -4.612  0.00  0.00    +0.149 HD
BRANCH   8  10
ATOM     10  C   UNL     1       4.381  -7.549  -4.569  0.00  0.00    +0.120 C 
BRANCH  10  11
ATOM     11  C   UNL     1       5.265  -6.961  -5.639  0.00  0.00    -0.031 A 
ATOM     12  C   UNL     1       5.255  -7.494  -6.914  0.00  0.00    +0.005 A 
ATOM     13  C   UNL     1       6.064  -6.956  -7.896  0.00  0.00    +0.003 A 
ATOM     14  C   UNL     1       6.885  -5.883  -7.604  0.00  0.00    +0.038 A 
ATOM     15  C   UNL     1       6.896  -5.348  -6.328  0.00  0.00    +0.124 A 
ATOM     16  C   UNL     1       6.080  -5.884  -5.346  0.00  0.00    +0.043 A 
ATOM     17  F   UNL     1       7.699  -4.299  -6.041  0.00  0.00    -0.205 F 
ENDBRANCH  10  11
ENDBRANCH   8  10
ENDBRANCH   1   2
BRANCH   1  19
ATOM     18  N   UNL     1       3.721  -4.216  -1.452  0.00  0.00    -0.314 N 
ATOM     19  C   UNL     1       3.207  -5.012  -2.411  0.00  0.00    +0.215 C 
ATOM     20  O   UNL     1       2.859  -4.537  -3.471  0.00  0.00    -0.276 OA
ATOM     21  H   UNL     1       3.999  -4.596  -0.604  0.00  0.00    +0.149 HD
BRANCH  18  22
ATOM     22  C   UNL     1       3.860  -2.777  -1.692  0.00  0.00    +0.119 C 
BRANCH  22  27
ATOM     23  C   UNL     1       4.506  -0.605  -0.625  0.00  0.00    +0.080 C 
ATOM     24  N   UNL     1       5.767  -0.276  -0.567  0.00  0.00    -0.153 NA
ATOM     25  N   UNL     1       6.590  -1.382  -0.380  0.00  0.00    -0.161 NA
ATOM     26  C   UNL     1       5.925  -2.488  -0.307  0.00  0.00    +0.119 C 
ATOM     27  C   UNL     1       4.464  -2.111  -0.454  0.00  0.00    +0.100 C 
BRANCH  23  31
ATOM     28  C   UNL     1       1.204   2.002  -1.167  0.00  0.00    +0.000 A 
ATOM     29  C   UNL     1       2.489   2.516  -1.133  0.00  0.00    +0.001 A 
ATOM     30  C   UNL     1       3.567   1.675  -0.957  0.00  0.00    +0.010 A 
ATOM     31  C   UNL     1       3.361   0.299  -0.813  0.00  0.00    -0.001 A 
ATOM     32  C   UNL     1       2.059  -0.212  -0.848  0.00  0.00    +0.010 A 
ATOM     33  C   UNL     1       0.991   0.642  -1.025  0.00  0.00    +0.001 A 
ENDBRANCH  23  31
ENDBRANCH  22  27
ENDBRANCH  18  22
ENDBRANCH   1  19
TORSDOF 7
