REMARK  Name = ZINC13151309
REMARK  4 active torsions:
REMARK  status: ('A' for Active; 'I' for Inactive)
REMARK    1  A    between atoms: C_1  and  C_2
REMARK    2  A    between atoms: C_4  and  N_25
REMARK    3  A    between atoms: C_7  and  C_8
REMARK    4  A    between atoms: C_16  and  C_19
REMARK                            x       y       z     vdW  Elec       q    Type
REMARK                         _______ _______ _______ _____ _____    ______ ____
ROOT
ATOM      1  C   UNL     1       2.069   0.395   5.962  0.00  0.00    +0.044 C 
ATOM      2  C   UNL     1       1.355   0.813   4.702  0.00  0.00    -0.045 A 
ATOM      3  C   UNL     1      -0.003   1.074   4.731  0.00  0.00    +0.038 A 
ATOM      4  C   UNL     1      -0.651   1.457   3.576  0.00  0.00    +0.147 A 
ATOM      5  C   UNL     1       0.054   1.581   2.380  0.00  0.00    +0.062 A 
ATOM      6  C   UNL     1       1.413   1.318   2.351  0.00  0.00    -0.014 A 
ATOM      7  C   UNL     1       2.057   0.935   3.520  0.00  0.00    -0.042 A 
ATOM      8  C   UNL     1       3.536   0.648   3.497  0.00  0.00    +0.044 C 
ATOM      9  C   UNL     1       2.232   1.428   1.099  0.00  0.00    +0.049 C 
ATOM     10  C   UNL     1       2.626   0.057   0.600  0.00  0.00    -0.023 C 
ATOM     11  C   UNL     1       2.558   0.009  -0.707  0.00  0.00    -0.030 C 
ATOM     12  C   UNL     1       2.117   1.346  -1.267  0.00  0.00    +0.033 C 
ATOM     13  C   UNL     1       1.415   2.033  -0.062  0.00  0.00    +0.030 C 
ATOM     14  C   UNL     1      -0.018   1.503   0.010  0.00  0.00    +0.123 C 
ATOM     15  N   UNL     1      -0.650   1.976   1.243  0.00  0.00    -0.333 N 
ATOM     16  H   UNL     1      -0.775   2.977   1.224  0.00  0.00    +0.147 HD
ENDROOT
BRANCH  14  17
ATOM     17  C   UNL     1       0.002  -0.004   0.002  0.00  0.00    +0.062 A 
ATOM     18  C   UNL     1      -0.000  -0.681  -1.203  0.00  0.00    +0.025 A 
ATOM     19  C   UNL     1       0.024  -2.067  -1.200  0.00  0.00    +0.003 A 
ATOM     20  C   UNL     1       0.039  -2.724   0.021  0.00  0.00    +0.020 A 
ATOM     21  C   UNL     1       0.035  -1.980   1.186  0.00  0.00    +0.111 A 
ATOM     22  N   UNL     1       0.016  -0.662   1.145  0.00  0.00    -0.258 NA
ENDBRANCH  14  17
BRANCH   4  23
ATOM     23  N   UNL     1      -2.104   1.738   3.607  0.00  0.00    +0.058 N 
ATOM     24  O   UNL     1      -2.723   1.630   4.650  0.00  0.00    -0.126 OA
ATOM     25  O   UNL     1      -2.680   2.076   2.589  0.00  0.00    -0.126 OA
ENDBRANCH   4  23
TORSDOF 2
