REMARK  Name = ZINC21319974
REMARK  7 active torsions:
REMARK  status: ('A' for Active; 'I' for Inactive)
REMARK    1  A    between atoms: C_1  and  C_2
REMARK    2  A    between atoms: C_2  and  C_3
REMARK    3  A    between atoms: C_3  and  N_4
REMARK    4  A    between atoms: C_5  and  C_7
REMARK    5  A    between atoms: C_12  and  N_13
REMARK    6  A    between atoms: C_14  and  C_16
REMARK    7  A    between atoms: C_17  and  C_29
REMARK                            x       y       z     vdW  Elec       q    Type
REMARK                         _______ _______ _______ _____ _____    ______ ____
ROOT
ATOM      1  N   UNL     1      -3.599   2.934   0.216  0.00  0.00    -0.278 N 
ATOM      2  C   UNL     1      -4.742   3.618   0.421  0.00  0.00    +0.284 C 
ATOM      3  O   UNL     1      -5.783   3.018   0.613  0.00  0.00    -0.266 OA
ATOM      4  H   UNL     1      -2.644   3.473   0.123  0.00  0.00    +0.155 HD
ENDROOT
BRANCH   2   5
ATOM      5  C   UNL     1      -4.730   5.086   0.415  0.00  0.00    +0.194 A 
ATOM      6  C   UNL     1      -5.814   5.882   0.610  0.00  0.00    +0.008 A 
ATOM      7  C   UNL     1      -5.361   7.223   0.523  0.00  0.00    +0.024 A 
ATOM      8  C   UNL     1      -6.009   8.470   0.637  0.00  0.00    +0.012 A 
ATOM      9  C   UNL     1      -5.315   9.625   0.507  0.00  0.00    +0.009 A 
ATOM     10  C   UNL     1      -3.927   9.598   0.255  0.00  0.00    -0.014 A 
ATOM     11  C   UNL     1      -3.197  10.789   0.119  0.00  0.00    +0.008 A 
ATOM     12  C   UNL     1      -1.857  10.738  -0.122  0.00  0.00    +0.001 A 
ATOM     13  C   UNL     1      -1.197   9.517  -0.238  0.00  0.00    +0.001 A 
ATOM     14  C   UNL     1      -1.875   8.342  -0.113  0.00  0.00    +0.012 A 
ATOM     15  C   UNL     1      -3.255   8.358   0.137  0.00  0.00    +0.025 A 
ATOM     16  C   UNL     1      -3.986   7.158   0.273  0.00  0.00    +0.144 A 
ATOM     17  O   UNL     1      -3.640   5.858   0.220  0.00  0.00    -0.449 OA
ATOM     18  C   UNL     1      -7.228   5.428   0.868  0.00  0.00    +0.048 C 
ENDBRANCH   2   5
BRANCH   1  24
ATOM     19  C   UNL     1      -2.869   0.892  -0.864  0.00  0.00    +0.058 A 
ATOM     20  C   UNL     1      -2.909  -0.501  -0.953  0.00  0.00    +0.015 A 
ATOM     21  C   UNL     1      -3.682  -1.224  -0.070  0.00  0.00    +0.001 A 
ATOM     22  C   UNL     1      -4.429  -0.575   0.900  0.00  0.00    +0.002 A 
ATOM     23  C   UNL     1      -4.403   0.801   0.998  0.00  0.00    +0.024 A 
ATOM     24  C   UNL     1      -3.626   1.546   0.120  0.00  0.00    +0.046 A 
BRANCH  19  26
ATOM     25  N   UNL     1      -1.312   1.039  -2.744  0.00  0.00    -0.311 N 
ATOM     26  C   UNL     1      -2.040   1.672  -1.802  0.00  0.00    +0.246 C 
ATOM     27  O   UNL     1      -2.013   2.885  -1.726  0.00  0.00    -0.270 OA
ATOM     28  H   UNL     1      -1.332  -0.059  -2.809  0.00  0.00    +0.149 HD
BRANCH  25  29
ATOM     29  C   UNL     1      -0.493   1.814  -3.680  0.00  0.00    +0.104 C 
BRANCH  29  31
ATOM     30  C   UNL     1       1.075   1.671  -5.619  0.00  0.00    +0.005 C 
ATOM     31  C   UNL     1       0.221   0.862  -4.642  0.00  0.00    +0.015 C 
ENDBRANCH  29  31
ENDBRANCH  25  29
ENDBRANCH  19  26
ENDBRANCH   1  24
TORSDOF 5
