REMARK  Name = ZINC39671832
REMARK  13 active torsions:
REMARK  status: ('A' for Active; 'I' for Inactive)
REMARK    1  A    between atoms: C_1  and  C_2
REMARK    2  A    between atoms: C_4  and  C_38
REMARK    3  A    between atoms: N_5  and  C_7
REMARK    4  A    between atoms: C_7  and  C_8
REMARK    5  A    between atoms: C_8  and  C_9
REMARK    6  A    between atoms: C_9  and  N_10
REMARK    7  A    between atoms: C_11  and  C_13
REMARK    8  A    between atoms: C_24  and  C_26
REMARK    9  A    between atoms: C_26  and  C_28
REMARK   10  A    between atoms: C_26  and  O_31
REMARK   11  A    between atoms: C_28  and  C_29
REMARK   12  A    between atoms: C_28  and  C_30
REMARK   13  A    between atoms: O_31  and  C_32
REMARK                            x       y       z     vdW  Elec       q    Type
REMARK                         _______ _______ _______ _____ _____    ______ ____
ROOT
ATOM      1  C   UNL     1       5.005  -6.617   4.552  0.00  0.00    +0.100 C 
ATOM      2  C   UNL     1       5.522  -6.913   3.126  0.00  0.00    +0.121 C 
ATOM      3  N   UNL     1       6.056  -8.293   3.201  0.00  0.00    -0.297 N 
ATOM      4  C   UNL     1       5.093  -9.015   4.066  0.00  0.00    +0.115 C 
ATOM      5  C   UNL     1       4.724  -7.999   5.165  0.00  0.00    -0.004 C 
ATOM      6  C   UNL     1       3.247  -8.126   5.526  0.00  0.00    -0.010 C 
ATOM      7  C   UNL     1       3.003  -9.486   6.188  0.00  0.00    -0.082 C 
ATOM      8  N   UNL     1       3.834  -9.602   7.392  0.00  0.00    +0.379 N 
ATOM      9  C   UNL     1       5.255  -9.572   7.025  0.00  0.00    -0.082 C 
ATOM     10  C   UNL     1       5.594  -8.216   6.399  0.00  0.00    -0.010 C 
ATOM     11  C   UNL     1       7.168  -8.781   2.615  0.00  0.00    +0.257 C 
ATOM     12  O   UNL     1       7.423  -9.965   2.690  0.00  0.00    -0.272 OA
ATOM     13  H   UNL     1       3.632  -8.833   8.014  0.00  0.00    -0.086 HD
ATOM     14  H   UNL     1       3.627 -10.472   7.859  0.00  0.00    -0.086 HD
ENDROOT
BRANCH   1  16
ATOM     15  N   UNL     1       3.357  -5.071   5.558  0.00  0.00    -0.315 N 
ATOM     16  C   UNL     1       3.739  -5.802   4.492  0.00  0.00    +0.218 C 
ATOM     17  O   UNL     1       3.064  -5.803   3.485  0.00  0.00    -0.275 OA
ATOM     18  H   UNL     1       3.897  -5.069   6.364  0.00  0.00    +0.149 HD
BRANCH  15  19
ATOM     19  C   UNL     1       2.126  -4.278   5.500  0.00  0.00    +0.106 C 
BRANCH  19  20
ATOM     20  C   UNL     1       1.926  -3.549   6.830  0.00  0.00    +0.042 C 
BRANCH  20  21
ATOM     21  C   UNL     1       0.640  -2.722   6.770  0.00  0.00    +0.145 C 
BRANCH  21  26
ATOM     22  C   UNL     1      -0.824  -1.726  11.466  0.00  0.00    +0.067 C 
ATOM     23  C   UNL     1      -0.203  -1.609  10.098  0.00  0.00    +0.060 A 
ATOM     24  C   UNL     1       0.521  -0.514   9.618  0.00  0.00    +0.047 A 
ATOM     25  C   UNL     1       0.910  -0.794   8.352  0.00  0.00    +0.036 A 
ATOM     26  N   UNL     1       0.448  -2.024   8.043  0.00  0.00    -0.268 N 
ATOM     27  N   UNL     1      -0.243  -2.517   9.157  0.00  0.00    -0.176 NA
ATOM     28  C   UNL     1       1.715   0.105   7.450  0.00  0.00    +0.065 C 
ENDBRANCH  21  26
ENDBRANCH  20  21
ENDBRANCH  19  20
ENDBRANCH  15  19
ENDBRANCH   1  16
BRANCH  11  29
ATOM     29  C   UNL     1       8.093  -7.857   1.867  0.00  0.00    +0.261 C 
BRANCH  29  30
ATOM     30  C   UNL     1       9.122  -7.272   2.836  0.00  0.00    +0.033 C 
ATOM     31  C   UNL     1      10.144  -6.442   2.055  0.00  0.00    +0.011 C 
ATOM     32  C   UNL     1       8.412  -6.379   3.856  0.00  0.00    +0.011 C 
ENDBRANCH  29  30
BRANCH  29  33
ATOM     33  O   UNL     1       8.768  -8.587   0.840  0.00  0.00    -0.479 OA
BRANCH  33  34
ATOM     34  C   UNL     1       9.022  -7.928  -0.321  0.00  0.00    +0.122 A 
ATOM     35  C   UNL     1       9.686  -8.572  -1.355  0.00  0.00    +0.045 A 
ATOM     36  C   UNL     1       9.943  -7.899  -2.534  0.00  0.00    +0.004 A 
ATOM     37  C   UNL     1       9.539  -6.585  -2.684  0.00  0.00    +0.000 A 
ATOM     38  C   UNL     1       8.877  -5.941  -1.654  0.00  0.00    +0.004 A 
ATOM     39  C   UNL     1       8.613  -6.611  -0.476  0.00  0.00    +0.045 A 
ENDBRANCH  33  34
ENDBRANCH  29  33
ENDBRANCH  11  29
TORSDOF 9
