REMARK  Name = ZINC00075350
REMARK  4 active torsions:
REMARK  status: ('A' for Active; 'I' for Inactive)
REMARK    1  A    between atoms: C_4  and  C_7
REMARK    2  A    between atoms: C_12  and  C_15
REMARK    3  A    between atoms: C_18  and  O_22
REMARK    4  A    between atoms: C_20  and  O_21
REMARK                            x       y       z     vdW  Elec       q    Type
REMARK                         _______ _______ _______ _____ _____    ______ ____
ROOT
ATOM      1  C   UNL     1      -2.280   7.439   0.346  0.00  0.00    +0.183 A 
ATOM      2  N   UNL     1      -3.587   7.160   0.279  0.00  0.00    -0.200 NA
ATOM      3  C   UNL     1      -3.747   5.870   0.169  0.00  0.00    +0.196 A 
ATOM      4  N   UNL     1      -2.533   5.255   0.159  0.00  0.00    -0.205 N 
ATOM      5  N   UNL     1      -1.600   6.317   0.277  0.00  0.00    -0.144 NA
ATOM      6  C   UNL     1      -2.523   3.879   0.047  0.00  0.00    +0.085 A 
ATOM      7  C   UNL     1      -3.682   3.197  -0.053  0.00  0.00    +0.077 A 
ATOM      8  S   UNL     1      -4.886   4.515   0.020  0.00  0.00    -0.056 S 
ENDROOT
BRANCH   1  12
ATOM      9  C   UNL     1      -0.601  11.328   0.721  0.00  0.00    +0.000 A 
ATOM     10  C   UNL     1      -1.974  11.173   0.661  0.00  0.00    +0.001 A 
ATOM     11  C   UNL     1      -2.524   9.913   0.539  0.00  0.00    +0.011 A 
ATOM     12  C   UNL     1      -1.694   8.796   0.476  0.00  0.00    +0.021 A 
ATOM     13  C   UNL     1      -0.311   8.957   0.542  0.00  0.00    +0.011 A 
ATOM     14  C   UNL     1       0.228  10.222   0.659  0.00  0.00    +0.001 A 
ENDBRANCH   1  12
BRANCH   6  15
ATOM     15  C   UNL     1      -1.235   3.151   0.031  0.00  0.00    +0.043 A 
ATOM     16  C   UNL     1      -0.198   3.581  -0.796  0.00  0.00    +0.017 A 
ATOM     17  C   UNL     1       1.001   2.899  -0.809  0.00  0.00    +0.046 A 
ATOM     18  C   UNL     1       1.179   1.785  -0.000  0.00  0.00    +0.120 A 
ATOM     19  C   UNL     1       0.153   1.350   0.826  0.00  0.00    +0.091 A 
ATOM     20  C   UNL     1      -1.056   2.024   0.842  0.00  0.00    +0.129 A 
BRANCH  20  21
ATOM     21  O   UNL     1      -2.064   1.595   1.646  0.00  0.00    -0.506 OA
ATOM     22  H   UNL     1      -2.058   1.991   2.529  0.00  0.00    +0.292 HD
ENDBRANCH  20  21
BRANCH  18  23
ATOM     23  O   UNL     1       2.363   1.118  -0.017  0.00  0.00    -0.507 OA
ATOM     24  H   UNL     1       2.404   0.406  -0.670  0.00  0.00    +0.292 HD
ENDBRANCH  18  23
ENDBRANCH   6  15
TORSDOF 4
