REMARK  Name = ZINC66122355
REMARK  7 active torsions:
REMARK  status: ('A' for Active; 'I' for Inactive)
REMARK    1  A    between atoms: C_1  and  C_2
REMARK    2  A    between atoms: C_2  and  C_4
REMARK    3  A    between atoms: C_2  and  N_12
REMARK    4  A    between atoms: N_12  and  C_13
REMARK    5  A    between atoms: C_13  and  N_15
REMARK    6  A    between atoms: N_15  and  N_16
REMARK    7  A    between atoms: C_17  and  C_19
REMARK                            x       y       z     vdW  Elec       q    Type
REMARK                         _______ _______ _______ _____ _____    ______ ____
ROOT
ATOM      1  C   UNL     1       0.150  -0.766   2.738  0.00  0.00    +0.147 C 
ATOM      2  S   UNL     1      -1.534  -0.579   2.492  0.00  0.00    -0.017 S 
ENDROOT
BRANCH   1   3
ATOM      3  N   UNL     1       1.012  -0.482   1.741  0.00  0.00    -0.319 N 
ATOM      4  H   UNL     1       1.966  -0.588   1.881  0.00  0.00    +0.148 HD
BRANCH   3   6
ATOM      5  C   UNL     1       0.407   1.513   0.463  0.00  0.00    +0.033 C 
ATOM      6  C   UNL     1       0.508  -0.014   0.448  0.00  0.00    +0.101 C 
BRANCH   6   7
ATOM      7  C   UNL     1       1.452  -0.444  -0.645  0.00  0.00    -0.009 A 
ATOM      8  C   UNL     1       2.787  -0.662  -0.358  0.00  0.00    +0.008 A 
ATOM      9  C   UNL     1       3.654  -1.057  -1.360  0.00  0.00    +0.020 A 
ATOM     10  C   UNL     1       3.186  -1.234  -2.650  0.00  0.00    +0.042 A 
ATOM     11  C   UNL     1       1.851  -1.016  -2.937  0.00  0.00    +0.040 A 
ATOM     12  C   UNL     1       0.983  -0.626  -1.933  0.00  0.00    +0.047 A 
ATOM     13 CL   UNL     1      -0.695  -0.358  -2.291  0.00  0.00    -0.083 Cl
ATOM     14 CL   UNL     1       4.275  -1.729  -3.908  0.00  0.00    -0.083 Cl
ENDBRANCH   6   7
ENDBRANCH   3   6
ENDBRANCH   1   3
BRANCH   1  15
ATOM     15  N   UNL     1       0.614  -1.197   3.928  0.00  0.00    -0.246 N 
ATOM     16  H   UNL     1      -0.007  -1.401   4.645  0.00  0.00    +0.172 HD
BRANCH  15  17
ATOM     17  N   UNL     1       1.992  -1.350   4.129  0.00  0.00    -0.231 N 
ATOM     18  C   UNL     1       2.455  -1.781   5.319  0.00  0.00    +0.265 C 
ATOM     19  O   UNL     1       1.675  -2.125   6.187  0.00  0.00    -0.268 OA
ATOM     20  H   UNL     1       2.612  -1.146   3.412  0.00  0.00    +0.173 HD
BRANCH  18  21
ATOM     21  C   UNL     1       3.904  -1.836   5.568  0.00  0.00    +0.102 A 
ATOM     22  C   UNL     1       4.394  -2.155   6.832  0.00  0.00    +0.020 A 
ATOM     23  C   UNL     1       5.774  -2.198   7.030  0.00  0.00    +0.018 A 
ATOM     24  C   UNL     1       6.619  -1.930   6.002  0.00  0.00    +0.086 A 
ATOM     25  N   UNL     1       6.149  -1.618   4.770  0.00  0.00    -0.328 N 
ATOM     26  C   UNL     1       4.826  -1.569   4.523  0.00  0.00    +0.261 A 
ATOM     27  O   UNL     1       4.423  -1.291   3.407  0.00  0.00    -0.267 OA
ATOM     28  H   UNL     1       6.776  -1.430   4.054  0.00  0.00    +0.168 HD
ENDBRANCH  18  21
ENDBRANCH  15  17
ENDBRANCH   1  15
TORSDOF 6
