REMARK  Name = ZINC34683955
REMARK  14 active torsions:
REMARK  status: ('A' for Active; 'I' for Inactive)
REMARK    1  A    between atoms: C_1  and  C_2
REMARK    2  A    between atoms: C_5  and  N_8
REMARK    3  A    between atoms: N_8  and  C_9
REMARK    4  A    between atoms: N_8  and  S_28
REMARK    5  A    between atoms: N_12  and  C_15
REMARK    6  A    between atoms: C_15  and  C_16
REMARK    7  A    between atoms: C_19  and  O_26
REMARK    8  A    between atoms: C_20  and  O_24
REMARK    9  A    between atoms: C_21  and  O_22
REMARK   10  A    between atoms: O_22  and  C_23
REMARK   11  A    between atoms: O_24  and  C_25
REMARK   12  A    between atoms: O_26  and  C_27
REMARK   13  A    between atoms: S_28  and  C_31
REMARK   14  A    between atoms: C_34  and  C_37
REMARK                            x       y       z     vdW  Elec       q    Type
REMARK                         _______ _______ _______ _____ _____    ______ ____
ROOT
ATOM      1  C   UNL     1       0.731  -4.867   1.059  0.00  0.00    +0.095 C 
ATOM      2  C   UNL     1      -0.011  -4.618   2.376  0.00  0.00    +0.006 C 
ATOM      3  C   UNL     1       0.746  -5.299   3.518  0.00  0.00    -0.077 C 
ATOM      4  N   UNL     1       2.103  -4.747   3.608  0.00  0.00    +0.383 N 
ATOM      5  C   UNL     1       2.845  -5.045   2.376  0.00  0.00    -0.077 C 
ATOM      6  C   UNL     1       2.168  -4.354   1.190  0.00  0.00    +0.006 C 
ATOM      7  H   UNL     1       2.051  -3.748   3.734  0.00  0.00    -0.081 HD
ENDROOT
BRANCH   1   8
ATOM      8  N   UNL     1       0.054  -4.154  -0.027  0.00  0.00    -0.200 N 
BRANCH   8  13
ATOM      9  C   UNL     1      -0.937   1.411   0.415  0.00  0.00    +0.044 C 
ATOM     10  C   UNL     1      -0.674  -0.068   0.298  0.00  0.00    -0.050 A 
ATOM     11  C   UNL     1       0.615  -0.525   0.095  0.00  0.00    +0.005 A 
ATOM     12  C   UNL     1       0.860  -1.880  -0.013  0.00  0.00    +0.025 A 
ATOM     13  C   UNL     1      -0.190  -2.784   0.082  0.00  0.00    +0.052 A 
ATOM     14  C   UNL     1      -1.484  -2.321   0.286  0.00  0.00    +0.025 A 
ATOM     15  C   UNL     1      -1.721  -0.965   0.399  0.00  0.00    +0.005 A 
ENDBRANCH   8  13
BRANCH   8  16
ATOM     16  S   UNL     1      -0.422  -4.975  -1.385  0.00  0.00    +0.075 S 
ATOM     17  O   UNL     1      -0.709  -6.305  -0.976  0.00  0.00    -0.150 OA
ATOM     18  O   UNL     1      -1.382  -4.155  -2.038  0.00  0.00    -0.150 OA
BRANCH  16  19
ATOM     19  C   UNL     1       0.975  -5.066  -2.455  0.00  0.00    +0.109 A 
ATOM     20  C   UNL     1       1.152  -4.116  -3.443  0.00  0.00    +0.029 A 
ATOM     21  C   UNL     1       2.248  -4.188  -4.282  0.00  0.00    +0.005 A 
ATOM     22  C   UNL     1       3.166  -5.210  -4.134  0.00  0.00    -0.050 A 
ATOM     23  C   UNL     1       2.989  -6.160  -3.145  0.00  0.00    +0.005 A 
ATOM     24  C   UNL     1       1.896  -6.086  -2.303  0.00  0.00    +0.029 A 
ATOM     25  C   UNL     1       4.360  -5.289  -5.050  0.00  0.00    +0.044 C 
ENDBRANCH  16  19
ENDBRANCH   8  16
ENDBRANCH   1   8
BRANCH   4  26
ATOM     26  C   UNL     1       2.800  -5.348   4.753  0.00  0.00    -0.039 C 
BRANCH  26  27
ATOM     27  C   UNL     1       4.147  -4.694   4.921  0.00  0.00    -0.018 A 
ATOM     28  C   UNL     1       5.283  -5.320   4.442  0.00  0.00    +0.009 A 
ATOM     29  C   UNL     1       6.521  -4.725   4.594  0.00  0.00    +0.050 A 
ATOM     30  C   UNL     1       6.629  -3.496   5.227  0.00  0.00    +0.165 A 
ATOM     31  C   UNL     1       5.490  -2.862   5.709  0.00  0.00    +0.204 A 
ATOM     32  C   UNL     1       4.246  -3.462   5.550  0.00  0.00    +0.167 A 
BRANCH  32  33
ATOM     33  O   UNL     1       3.127  -2.844   6.016  0.00  0.00    -0.491 OA
ATOM     34  C   UNL     1       2.738  -3.134   7.360  0.00  0.00    +0.277 C 
ENDBRANCH  32  33
BRANCH  31  35
ATOM     35  O   UNL     1       5.591  -1.656   6.331  0.00  0.00    -0.488 OA
ATOM     36  C   UNL     1       5.493  -0.492   5.508  0.00  0.00    +0.277 C 
ENDBRANCH  31  35
BRANCH  30  37
ATOM     37  O   UNL     1       7.848  -2.911   5.376  0.00  0.00    -0.491 OA
ATOM     38  C   UNL     1       8.975  -3.619   4.856  0.00  0.00    +0.277 C 
ENDBRANCH  30  37
ENDBRANCH  26  27
ENDBRANCH   4  26
TORSDOF 9
