REMARK  Name = ZINC03550536
REMARK  6 active torsions:
REMARK  status: ('A' for Active; 'I' for Inactive)
REMARK    1  A    between atoms: C_1  and  C_2
REMARK    2  A    between atoms: N_13  and  C_23
REMARK    3  A    between atoms: C_14  and  S_16
REMARK    4  A    between atoms: S_16  and  C_17
REMARK    5  A    between atoms: C_17  and  C_19
REMARK    6  A    between atoms: C_17  and  C_20
REMARK                            x       y       z     vdW  Elec       q    Type
REMARK                         _______ _______ _______ _____ _____    ______ ____
ROOT
ATOM      1  C   UNL     1       2.595   7.328  -2.199  0.00  0.00    +0.008 C 
ATOM      2  C   UNL     1       2.127   6.057  -1.487  0.00  0.00    -0.009 C 
ATOM      3  C   UNL     1       1.088   5.337  -2.351  0.00  0.00    +0.008 C 
ATOM      4  C   UNL     1       0.438   4.208  -1.550  0.00  0.00    +0.037 C 
ATOM      5  C   UNL     1       1.535   3.325  -0.963  0.00  0.00    -0.023 A 
ATOM      6  C   UNL     1       2.802   3.775  -0.861  0.00  0.00    -0.004 A 
ATOM      7  S   UNL     1       3.710   2.435  -0.138  0.00  0.00    -0.073 S 
ATOM      8  C   UNL     1       2.381   1.270   0.027  0.00  0.00    +0.117 A 
ATOM      9  C   UNL     1       1.273   1.964  -0.489  0.00  0.00    +0.076 A 
ATOM     10  C   UNL     1       0.033   1.251  -0.484  0.00  0.00    +0.268 A 
ATOM     11  O   UNL     1      -0.980   1.770  -0.918  0.00  0.00    -0.267 OA
ATOM     12  N   UNL     1       0.002  -0.004   0.002  0.00  0.00    -0.255 N 
ATOM     13  C   UNL     1       1.130  -0.604   0.487  0.00  0.00    +0.178 A 
ATOM     14  N   UNL     1       2.285   0.031   0.493  0.00  0.00    -0.215 NA
ATOM     15  C   UNL     1       3.323   5.119  -1.270  0.00  0.00    +0.046 C 
ENDROOT
BRANCH  12  16
ATOM     16  C   UNL     1      -1.210  -0.708   0.011  0.00  0.00    +0.052 A 
ATOM     17  C   UNL     1      -2.052  -0.629   1.111  0.00  0.00    +0.028 A 
ATOM     18  C   UNL     1      -3.248  -1.320   1.115  0.00  0.00    +0.022 A 
ATOM     19  C   UNL     1      -3.602  -2.099   0.028  0.00  0.00    +0.041 A 
ATOM     20  C   UNL     1      -2.761  -2.184  -1.068  0.00  0.00    +0.022 A 
ATOM     21  C   UNL     1      -1.567  -1.491  -1.079  0.00  0.00    +0.028 A 
ATOM     22 CL   UNL     1      -5.103  -2.972   0.039  0.00  0.00    -0.084 Cl
ENDBRANCH  12  16
BRANCH  13  23
ATOM     23  S   UNL     1       1.039  -2.248   1.115  0.00  0.00    -0.075 S 
BRANCH  23  24
ATOM     24  C   UNL     1       2.766  -2.498   1.594  0.00  0.00    +0.137 C 
ATOM     25  C   UNL     1       3.651  -2.474   0.346  0.00  0.00    +0.029 C 
BRANCH  24  26
ATOM     26  C   UNL     1       2.908  -3.829   2.286  0.00  0.00    +0.224 C 
ATOM     27  O   UNL     1       2.114  -4.718   2.060  0.00  0.00    -0.275 OA
ATOM     28  N   UNL     1       3.918  -4.033   3.155  0.00  0.00    -0.328 N 
ATOM     29  H   UNL     1       4.553  -3.323   3.336  0.00  0.00    +0.145 HD
ATOM     30  H   UNL     1       4.009  -4.890   3.600  0.00  0.00    +0.145 HD
ENDBRANCH  24  26
ENDBRANCH  23  24
ENDBRANCH  13  23
TORSDOF 4
