REMARK  Name = ZINC08969797
REMARK  6 active torsions:
REMARK  status: ('A' for Active; 'I' for Inactive)
REMARK    1  A    between atoms: C_3  and  S_6
REMARK    2  A    between atoms: S_6  and  C_9
REMARK    3  A    between atoms: C_9  and  C_11
REMARK    4  A    between atoms: C_9  and  C_24
REMARK    5  A    between atoms: C_11  and  N_12
REMARK    6  A    between atoms: N_15  and  C_16
REMARK                            x       y       z     vdW  Elec       q    Type
REMARK                         _______ _______ _______ _____ _____    ______ ____
ROOT
ATOM      1  C   UNL     1      -2.885   4.525   1.797  0.00  0.00    +0.184 C 
ENDROOT
BRANCH   1   2
ATOM      2  C   UNL     1      -3.239   3.220   2.463  0.00  0.00    -0.018 A 
ATOM      3  C   UNL     1      -2.325   2.183   2.474  0.00  0.00    +0.009 A 
ATOM      4  C   UNL     1      -2.645   0.984   3.084  0.00  0.00    +0.050 A 
ATOM      5  C   UNL     1      -3.882   0.820   3.686  0.00  0.00    +0.166 A 
ATOM      6  C   UNL     1      -4.802   1.865   3.674  0.00  0.00    +0.167 A 
ATOM      7  C   UNL     1      -4.473   3.065   3.065  0.00  0.00    +0.055 A 
ATOM      8  O   UNL     1      -5.931   1.460   4.325  0.00  0.00    -0.453 OA
ATOM      9  C   UNL     1      -5.850   0.023   4.377  0.00  0.00    +0.466 C 
ATOM     10  O   UNL     1      -4.435  -0.241   4.344  0.00  0.00    -0.453 OA
ENDBRANCH   1   2
BRANCH   1  11
ATOM     11  S   UNL     1      -2.531   4.232   0.042  0.00  0.00    +0.011 S 
ATOM     12  O   UNL     1      -2.025   5.416  -0.559  0.00  0.00    -0.168 OA
ATOM     13  O   UNL     1      -3.599   3.514  -0.560  0.00  0.00    -0.168 OA
BRANCH  11  16
ATOM     14  C   UNL     1       0.015   1.071   0.027  0.00  0.00    +0.009 A 
ATOM     15  C   UNL     1      -1.187   1.754   0.027  0.00  0.00    +0.035 A 
ATOM     16  C   UNL     1      -1.173   3.109   0.036  0.00  0.00    +0.126 A 
ATOM     17  S   UNL     1       0.577   3.461   0.032  0.00  0.00    -0.078 S 
ATOM     18  C   UNL     1       1.172   1.778   0.026  0.00  0.00    +0.047 A 
ENDBRANCH  11  16
ENDBRANCH   1  11
BRANCH   1  19
ATOM     19  C   UNL     1      -1.651   5.125   2.473  0.00  0.00    +0.137 C 
BRANCH  19  20
ATOM     20  N   UNL     1      -1.308   6.394   1.826  0.00  0.00    -0.297 N 
ATOM     21  C   UNL     1      -0.248   7.106   2.258  0.00  0.00    +0.304 C 
ATOM     22  O   UNL     1       0.423   6.695   3.185  0.00  0.00    -0.253 OA
ATOM     23  N   UNL     1       0.068   8.273   1.663  0.00  0.00    -0.269 N 
ATOM     24  H   UNL     1      -1.843   6.722   1.087  0.00  0.00    +0.150 HD
ATOM     25  H   UNL     1      -0.426   8.568   0.881  0.00  0.00    +0.156 HD
BRANCH  23  26
ATOM     26  C   UNL     1       1.108   9.059   2.172  0.00  0.00    +0.036 A 
ATOM     27  C   UNL     1       1.022  10.444   2.119  0.00  0.00    +0.025 A 
ATOM     28  C   UNL     1       2.047  11.219   2.627  0.00  0.00    +0.023 A 
ATOM     29  C   UNL     1       3.164  10.616   3.177  0.00  0.00    +0.059 A 
ATOM     30  C   UNL     1       3.255   9.235   3.226  0.00  0.00    +0.061 A 
ATOM     31  C   UNL     1       2.229   8.456   2.724  0.00  0.00    +0.044 A 
ATOM     32 CL   UNL     1       4.658   8.482   3.917  0.00  0.00    -0.082 Cl
ATOM     33 CL   UNL     1       4.453  11.592   3.809  0.00  0.00    -0.082 Cl
ENDBRANCH  23  26
ENDBRANCH  19  20
ENDBRANCH   1  19
TORSDOF 6
