REMARK  Name = ZINC39919009
REMARK  11 active torsions:
REMARK  status: ('A' for Active; 'I' for Inactive)
REMARK    1  A    between atoms: C_1  and  C_2
REMARK    2  A    between atoms: C_7  and  C_8
REMARK    3  A    between atoms: C_8  and  N_9
REMARK    4  A    between atoms: C_22  and  C_31
REMARK    5  A    between atoms: N_23  and  C_26
REMARK    6  A    between atoms: C_26  and  C_27
REMARK    7  A    between atoms: C_27  and  N_28
REMARK    8  A    between atoms: N_28  and  C_29
REMARK    9  A    between atoms: N_28  and  C_30
REMARK   10  A    between atoms: C_33  and  N_37
REMARK   11  A    between atoms: C_34  and  C_35
REMARK                            x       y       z     vdW  Elec       q    Type
REMARK                         _______ _______ _______ _____ _____    ______ ____
ROOT
ATOM      1  N   UNL     1      -1.243   0.848   2.616  0.00  0.00    -0.265 N 
ATOM      2  C   UNL     1      -1.624   2.064   2.076  0.00  0.00    +0.041 A 
ATOM      3  C   UNL     1      -0.905   2.935   1.256  0.00  0.00    +0.024 A 
ATOM      4  C   UNL     1      -1.540   4.099   0.856  0.00  0.00    +0.002 A 
ATOM      5  C   UNL     1      -2.830   4.398   1.245  0.00  0.00    +0.000 A 
ATOM      6  C   UNL     1      -3.558   3.540   2.062  0.00  0.00    +0.007 A 
ATOM      7  C   UNL     1      -2.932   2.380   2.464  0.00  0.00    -0.001 A 
ATOM      8  C   UNL     1      -3.399   1.250   3.328  0.00  0.00    +0.147 C 
ATOM      9  C   UNL     1      -2.223   0.295   3.359  0.00  0.00    +0.241 C 
ATOM     10  O   UNL     1      -2.172  -0.766   3.945  0.00  0.00    -0.274 OA
ATOM     11  C   UNL     1      -4.592   0.568   2.722  0.00  0.00    +0.084 A 
ATOM     12  C   UNL     1      -5.846   0.729   3.274  0.00  0.00    +0.142 A 
ATOM     13  C   UNL     1      -6.943   0.070   2.681  0.00  0.00    +0.068 A 
ATOM     14  C   UNL     1      -6.752  -0.699   1.587  0.00  0.00    +0.022 A 
ATOM     15  N   UNL     1      -5.514  -0.849   1.047  0.00  0.00    -0.314 N 
ATOM     16  C   UNL     1      -4.442  -0.239   1.587  0.00  0.00    +0.260 A 
ATOM     17  O   UNL     1      -3.339  -0.389   1.086  0.00  0.00    -0.267 OA
ATOM     18  C   UNL     1      -7.927  -1.403   0.959  0.00  0.00    +0.064 C 
ATOM     19  O   UNL     1      -6.034   1.504   4.363  0.00  0.00    -0.441 OA
ATOM     20  C   UNL     1      -4.992   1.830   5.148  0.00  0.00    +0.199 C 
ATOM     21  C   UNL     1      -3.712   1.730   4.716  0.00  0.00    +0.110 C 
ENDROOT
BRANCH  20  22
ATOM     22  N   UNL     1      -5.232   2.275   6.424  0.00  0.00    -0.328 N 
ATOM     23  H   UNL     1      -6.144   2.351   6.747  0.00  0.00    +0.145 HD
ATOM     24  H   UNL     1      -4.491   2.513   7.002  0.00  0.00    +0.145 HD
ENDBRANCH  20  22
BRANCH  21  25
ATOM     25  C   UNL     1      -2.641   2.089   5.596  0.00  0.00    +0.102 C 
ATOM     26  N   UNL     1      -1.791   2.374   6.294  0.00  0.00    -0.191 NA
ENDBRANCH  21  25
BRANCH   1  27
ATOM     27  C   UNL     1       0.069   0.232   2.401  0.00  0.00    +0.149 C 
BRANCH  27  34
ATOM     28  C   UNL     1       2.806  -0.693   2.395  0.00  0.00    +0.044 C 
ATOM     29  C   UNL     1       2.364   0.347   3.392  0.00  0.00    -0.046 A 
ATOM     30  C   UNL     1       3.270   0.863   4.300  0.00  0.00    +0.003 A 
ATOM     31  C   UNL     1       2.865   1.817   5.214  0.00  0.00    +0.000 A 
ATOM     32  C   UNL     1       1.554   2.256   5.221  0.00  0.00    +0.000 A 
ATOM     33  C   UNL     1       0.649   1.741   4.312  0.00  0.00    +0.005 A 
ATOM     34  C   UNL     1       1.055   0.790   3.395  0.00  0.00    -0.027 A 
ENDBRANCH  27  34
ENDBRANCH   1  27
BRANCH  15  35
ATOM     35  C   UNL     1      -5.344  -1.687  -0.143  0.00  0.00    +0.106 C 
BRANCH  35  36
ATOM     36  C   UNL     1      -5.513  -0.830  -1.399  0.00  0.00    -0.058 C 
BRANCH  36  37
ATOM     37  N   UNL     1      -5.343  -1.670  -2.592  0.00  0.00    +0.377 N 
ATOM     38  C   UNL     1      -6.423  -2.664  -2.650  0.00  0.00    -0.097 C 
ATOM     39  C   UNL     1      -5.386  -0.828  -3.795  0.00  0.00    -0.097 C 
ATOM     40  H   UNL     1      -4.453  -2.144  -2.545  0.00  0.00    -0.083 HD
ENDBRANCH  36  37
ENDBRANCH  35  36
ENDBRANCH  15  35
TORSDOF 7
