REMARK  Name = ZINC01376002
REMARK  16 active torsions:
REMARK  status: ('A' for Active; 'I' for Inactive)
REMARK    1  A    between atoms: C_1  and  C_2
REMARK    2  A    between atoms: C_2  and  C_3
REMARK    3  A    between atoms: C_3  and  C_5
REMARK    4  A    between atoms: C_3  and  N_16
REMARK    5  A    between atoms: N_9  and  C_10
REMARK    6  A    between atoms: C_10  and  C_11
REMARK    7  A    between atoms: N_16  and  C_17
REMARK    8  A    between atoms: N_16  and  C_29
REMARK    9  A    between atoms: C_17  and  C_18
REMARK   10  A    between atoms: C_18  and  C_19
REMARK   11  A    between atoms: C_22  and  O_27
REMARK   12  A    between atoms: C_23  and  O_25
REMARK   13  A    between atoms: O_25  and  C_26
REMARK   14  A    between atoms: O_27  and  C_28
REMARK   15  A    between atoms: C_29  and  C_30
REMARK   16  A    between atoms: C_36  and  C_42
REMARK                            x       y       z     vdW  Elec       q    Type
REMARK                         _______ _______ _______ _____ _____    ______ ____
ROOT
ATOM      1  N   UNL     1      -0.068  -0.679   1.919  0.00  0.00    +0.389 N 
ATOM      2  H   UNL     1      -0.658  -1.497   1.945  0.00  0.00    -0.080 HD
ENDROOT
BRANCH   1   3
ATOM      3  C   UNL     1       1.059  -0.919   1.007  0.00  0.00    +0.003 C 
BRANCH   3   4
ATOM      4  C   UNL     1       2.295  -0.249   1.550  0.00  0.00    +0.139 A 
ATOM      5  N   UNL     1       2.884  -0.501   2.693  0.00  0.00    -0.115 NA
ATOM      6  N   UNL     1       3.906   0.277   2.795  0.00  0.00    -0.023 NA
ATOM      7  N   UNL     1       3.985   1.019   1.745  0.00  0.00    -0.044 NA
ATOM      8  N   UNL     1       3.012   0.721   0.952  0.00  0.00    -0.223 N 
BRANCH   8   9
ATOM      9  C   UNL     1       2.737   1.327  -0.353  0.00  0.00    +0.221 C 
BRANCH   9  10
ATOM     10  C   UNL     1       2.051   2.654  -0.157  0.00  0.00    +0.126 A 
ATOM     11  C   UNL     1       2.655   3.855  -0.125  0.00  0.00    +0.046 A 
ATOM     12  C   UNL     1       1.641   4.819   0.079  0.00  0.00    +0.041 A 
ATOM     13  C   UNL     1       0.477   4.148   0.161  0.00  0.00    +0.195 A 
ATOM     14  O   UNL     1       0.731   2.838   0.011  0.00  0.00    -0.466 OA
ENDBRANCH   9  10
ENDBRANCH   8   9
ENDBRANCH   3   4
BRANCH   3  16
ATOM     15  C   UNL     1       0.081  -3.094   0.262  0.00  0.00    +0.002 C 
ATOM     16  C   UNL     1       1.306  -2.424   0.887  0.00  0.00    -0.011 C 
ENDBRANCH   3  16
ENDBRANCH   1   3
BRANCH   1  17
ATOM     17  C   UNL     1       0.444  -0.400   3.267  0.00  0.00    -0.073 C 
BRANCH  17  18
ATOM     18  C   UNL     1       1.029  -1.681   3.866  0.00  0.00    +0.017 C 
BRANCH  18  19
ATOM     19  C   UNL     1       1.405  -1.437   5.304  0.00  0.00    -0.045 A 
ATOM     20  C   UNL     1       2.672  -0.980   5.618  0.00  0.00    +0.007 A 
ATOM     21  C   UNL     1       3.022  -0.754   6.936  0.00  0.00    +0.049 A 
ATOM     22  C   UNL     1       2.103  -0.986   7.947  0.00  0.00    +0.161 A 
ATOM     23  C   UNL     1       0.828  -1.445   7.631  0.00  0.00    +0.162 A 
ATOM     24  C   UNL     1       0.481  -1.665   6.307  0.00  0.00    +0.053 A 
BRANCH  23  25
ATOM     25  O   UNL     1      -0.079  -1.674   8.619  0.00  0.00    -0.491 OA
ATOM     26  C   UNL     1      -1.368  -2.145   8.221  0.00  0.00    +0.277 C 
ENDBRANCH  23  25
BRANCH  22  27
ATOM     27  O   UNL     1       2.446  -0.765   9.244  0.00  0.00    -0.491 OA
ATOM     28  C   UNL     1       3.771  -0.294   9.493  0.00  0.00    +0.277 C 
ENDBRANCH  22  27
ENDBRANCH  18  19
ENDBRANCH  17  18
ENDBRANCH   1  17
BRANCH   1  29
ATOM     29  C   UNL     1      -0.846   0.472   1.442  0.00  0.00    -0.037 C 
BRANCH  29  30
ATOM     30  C   UNL     1      -1.658   0.066   0.239  0.00  0.00    +0.001 A 
ATOM     31  C   UNL     1      -2.925  -0.389   0.402  0.00  0.00    +0.017 A 
ATOM     32  C   UNL     1      -3.687  -0.774  -0.787  0.00  0.00    -0.001 A 
ATOM     33  C   UNL     1      -4.998  -1.251  -0.683  0.00  0.00    +0.010 A 
ATOM     34  C   UNL     1      -5.683  -1.602  -1.812  0.00  0.00    +0.001 A 
ATOM     35  C   UNL     1      -5.089  -1.491  -3.062  0.00  0.00    +0.005 A 
ATOM     36  C   UNL     1      -3.798  -1.024  -3.188  0.00  0.00    -0.026 A 
ATOM     37  C   UNL     1      -3.082  -0.660  -2.053  0.00  0.00    +0.052 A 
ATOM     38  N   UNL     1      -1.790  -0.190  -2.150  0.00  0.00    -0.322 N 
ATOM     39  H   UNL     1      -1.374  -0.111  -3.023  0.00  0.00    +0.169 HD
ATOM     40  C   UNL     1      -1.099   0.167  -1.053  0.00  0.00    +0.251 A 
ATOM     41  O   UNL     1       0.040   0.584  -1.177  0.00  0.00    -0.268 OA
ATOM     42  C   UNL     1      -3.166  -0.910  -4.551  0.00  0.00    +0.046 C 
ENDBRANCH  29  30
ENDBRANCH   1  29
TORSDOF 12
