REMARK  Name = ZINC39024789
REMARK  9 active torsions:
REMARK  status: ('A' for Active; 'I' for Inactive)
REMARK    1  A    between atoms: C_1  and  O_2
REMARK    2  A    between atoms: O_2  and  C_3
REMARK    3  A    between atoms: C_8  and  O_9
REMARK    4  A    between atoms: O_9  and  C_10
REMARK    5  A    between atoms: C_14  and  C_16
REMARK    6  A    between atoms: C_19  and  O_23
REMARK    7  A    between atoms: C_21  and  O_22
REMARK    8  A    between atoms: O_23  and  C_24
REMARK    9  A    between atoms: C_24  and  C_25
REMARK                            x       y       z     vdW  Elec       q    Type
REMARK                         _______ _______ _______ _____ _____    ______ ____
ROOT
ATOM      1  C   UNL     1       0.194  -4.860   2.220  0.00  0.00    +0.025 A 
ATOM      2  C   UNL     1       1.279  -5.612   2.630  0.00  0.00    +0.013 A 
ATOM      3  C   UNL     1       1.826  -5.414   3.882  0.00  0.00    +0.046 A 
ATOM      4  C   UNL     1       1.288  -4.459   4.733  0.00  0.00    +0.124 A 
ATOM      5  C   UNL     1       0.200  -3.703   4.325  0.00  0.00    +0.091 A 
ATOM      6  C   UNL     1      -0.345  -3.900   3.065  0.00  0.00    +0.126 A 
ENDROOT
BRANCH   1  11
ATOM      7  C   UNL     1       0.184  -4.101  -0.151  0.00  0.00    +0.154 C 
ATOM      8  C   UNL     1       0.797  -4.897  -1.051  0.00  0.00    +0.176 C 
ATOM      9  N   UNL     1       0.650  -6.185  -0.721  0.00  0.00    -0.182 NA
ATOM     10  N   UNL     1       0.003  -6.387   0.309  0.00  0.00    -0.294 N 
ATOM     11  C   UNL     1      -0.401  -5.079   0.853  0.00  0.00    +0.199 C 
ATOM     12  H   UNL     1      -0.201  -7.253   0.694  0.00  0.00    +0.184 HD
BRANCH   7  13
ATOM     13  O   UNL     1       0.113  -2.753  -0.142  0.00  0.00    -0.453 OA
BRANCH  13  19
ATOM     14  C   UNL     1      -1.250  -0.798  -0.203  0.00  0.00    +0.162 A 
ATOM     15  C   UNL     1      -2.492  -0.215  -0.397  0.00  0.00    +0.049 A 
ATOM     16  C   UNL     1      -3.585  -1.004  -0.704  0.00  0.00    +0.004 A 
ATOM     17  C   UNL     1      -3.443  -2.374  -0.819  0.00  0.00    +0.004 A 
ATOM     18  C   UNL     1      -2.207  -2.962  -0.627  0.00  0.00    +0.050 A 
ATOM     19  C   UNL     1      -1.105  -2.177  -0.325  0.00  0.00    +0.170 A 
BRANCH  14  21
ATOM     20  C   UNL     1      -0.398   1.383   0.209  0.00  0.00    +0.277 C 
ATOM     21  O   UNL     1      -0.174  -0.024   0.100  0.00  0.00    -0.491 OA
ENDBRANCH  14  21
ENDBRANCH  13  19
ENDBRANCH   7  13
ENDBRANCH   1  11
BRANCH   6  22
ATOM     22  O   UNL     1      -1.408  -3.157   2.659  0.00  0.00    -0.506 OA
ATOM     23  H   UNL     1      -2.266  -3.546   2.878  0.00  0.00    +0.292 HD
ENDBRANCH   6  22
BRANCH   4  24
ATOM     24  O   UNL     1       1.827  -4.264   5.965  0.00  0.00    -0.487 OA
BRANCH  24  25
ATOM     25  C   UNL     1       2.946  -5.079   6.320  0.00  0.00    +0.264 C 
BRANCH  25  26
ATOM     26  C   UNL     1       3.405  -4.724   7.711  0.00  0.00    -0.009 A 
ATOM     27  C   UNL     1       4.353  -3.735   7.895  0.00  0.00    +0.008 A 
ATOM     28  C   UNL     1       4.775  -3.410   9.170  0.00  0.00    +0.022 A 
ATOM     29  C   UNL     1       4.248  -4.074  10.264  0.00  0.00    +0.059 A 
ATOM     30  C   UNL     1       3.298  -5.064  10.079  0.00  0.00    +0.060 A 
ATOM     31  C   UNL     1       2.873  -5.385   8.802  0.00  0.00    +0.028 A 
ATOM     32 CL   UNL     1       2.636  -5.898  11.450  0.00  0.00    -0.082 Cl
ATOM     33 CL   UNL     1       4.777  -3.666  11.866  0.00  0.00    -0.082 Cl
ENDBRANCH  25  26
ENDBRANCH  24  25
ENDBRANCH   4  24
TORSDOF 8
