REMARK  Name = ZINC12375404
REMARK  6 active torsions:
REMARK  status: ('A' for Active; 'I' for Inactive)
REMARK    1  A    between atoms: C_4  and  N_11
REMARK    2  A    between atoms: C_5  and  C_7
REMARK    3  A    between atoms: C_14  and  C_21
REMARK    4  A    between atoms: C_16  and  C_19
REMARK    5  A    between atoms: C_17  and  N_18
REMARK    6  A    between atoms: C_24  and  N_26
REMARK                            x       y       z     vdW  Elec       q    Type
REMARK                         _______ _______ _______ _____ _____    ______ ____
ROOT
ATOM      1  N   UNL     1      -3.021   7.260  -0.065  0.00  0.00    -0.260 N 
ATOM      2  C   UNL     1      -3.584   6.834   1.110  0.00  0.00    +0.024 C 
ATOM      3  C   UNL     1      -4.246   5.659   1.169  0.00  0.00    +0.026 C 
ATOM      4  C   UNL     1      -4.368   4.777  -0.048  0.00  0.00    +0.104 C 
ATOM      5  C   UNL     1      -4.087   5.545  -1.305  0.00  0.00    +0.077 C 
ATOM      6  C   UNL     1      -3.432   6.734  -1.269  0.00  0.00    +0.107 C 
ATOM      7  C   UNL     1      -4.843   5.223   2.365  0.00  0.00    +0.162 C 
ATOM      8  O   UNL     1      -5.423   4.155   2.387  0.00  0.00    -0.292 OA
ATOM      9  C   UNL     1      -4.777   6.053   3.617  0.00  0.00    +0.080 C 
ATOM     10  C   UNL     1      -4.673   7.532   3.231  0.00  0.00    +0.014 C 
ATOM     11  C   UNL     1      -3.449   7.712   2.329  0.00  0.00    +0.052 C 
ENDROOT
BRANCH   1  15
ATOM     12  C   UNL     1      -0.037  10.167   0.011  0.00  0.00    +0.001 A 
ATOM     13  C   UNL     1      -1.362  10.541  -0.115  0.00  0.00    +0.002 A 
ATOM     14  C   UNL     1      -2.353   9.581  -0.140  0.00  0.00    +0.024 A 
ATOM     15  C   UNL     1      -2.018   8.236  -0.040  0.00  0.00    +0.051 A 
ATOM     16  C   UNL     1      -0.687   7.864   0.092  0.00  0.00    +0.076 A 
ATOM     17  C   UNL     1       0.300   8.829   0.112  0.00  0.00    +0.014 A 
BRANCH  16  18
ATOM     18  C   UNL     1      -0.319   6.407   0.208  0.00  0.00    +0.419 C 
ATOM     19  F   UNL     1       1.062   6.288   0.398  0.00  0.00    -0.166 F 
ATOM     20  F   UNL     1      -0.990   5.842   1.298  0.00  0.00    -0.166 F 
ATOM     21  F   UNL     1      -0.688   5.738  -0.964  0.00  0.00    -0.166 F 
ENDBRANCH  16  18
ENDBRANCH   1  15
BRANCH   4  22
ATOM     22  C   UNL     1      -3.386   3.639   0.067  0.00  0.00    +0.005 A 
ATOM     23  C   UNL     1      -3.625   2.305   0.095  0.00  0.00    +0.014 A 
ATOM     24  C   UNL     1      -2.556   1.435   0.200  0.00  0.00    +0.041 A 
ATOM     25  C   UNL     1      -1.301   1.942   0.284  0.00  0.00    +0.164 A 
ATOM     26  S   UNL     1      -1.607   3.699   0.200  0.00  0.00    -0.068 S 
BRANCH  25  27
ATOM     27  N   UNL     1      -0.012   1.225   0.407  0.00  0.00    +0.063 N 
ATOM     28  O   UNL     1       0.006   0.008   0.450  0.00  0.00    -0.126 OA
ATOM     29  O   UNL     1       1.031   1.852   0.461  0.00  0.00    -0.126 OA
ENDBRANCH  25  27
ENDBRANCH   4  22
BRANCH   6  30
ATOM     30  N   UNL     1      -3.179   7.414  -2.436  0.00  0.00    -0.345 N 
ATOM     31  H   UNL     1      -2.712   8.264  -2.411  0.00  0.00    +0.144 HD
ATOM     32  H   UNL     1      -3.469   7.045  -3.285  0.00  0.00    +0.144 HD
ENDBRANCH   6  30
BRANCH   5  33
ATOM     33  C   UNL     1      -4.515   5.016  -2.565  0.00  0.00    +0.099 C 
ATOM     34  N   UNL     1      -4.855   4.595  -3.564  0.00  0.00    -0.191 NA
ENDBRANCH   5  33
TORSDOF 6
