REMARK  Name = ZINC49181169
REMARK  17 active torsions:
REMARK  status: ('A' for Active; 'I' for Inactive)
REMARK    1  A    between atoms: C_1  and  C_2
REMARK    2  A    between atoms: C_2  and  C_3
REMARK    3  A    between atoms: C_3  and  C_5
REMARK    4  A    between atoms: C_3  and  C_6
REMARK    5  A    between atoms: C_7  and  C_8
REMARK    6  A    between atoms: C_7  and  C_9
REMARK    7  A    between atoms: C_10  and  C_11
REMARK    8  A    between atoms: C_17  and  C_32
REMARK    9  A    between atoms: C_17  and  O_33
REMARK   10  A    between atoms: N_22  and  C_23
REMARK   11  A    between atoms: C_23  and  C_24
REMARK   12  A    between atoms: C_24  and  C_25
REMARK   13  A    between atoms: C_25  and  CA_26
REMARK   14  A    between atoms: CA_26  and  C_28
REMARK   15  A    between atoms: CA_26  and  N_31
REMARK   16  A    between atoms: O_33  and  C_34
REMARK   17  A    between atoms: C_34  and  C_36
REMARK                            x       y       z     vdW  Elec       q    Type
REMARK                         _______ _______ _______ _____ _____    ______ ____
ROOT
ATOM      1  C   UNL     1      -1.694  -6.612  -2.691  0.00  0.00    +0.034 C 
ATOM      2  C   UNL     1      -2.327  -7.217  -3.761  0.00  0.00    +0.033 C 
ATOM      3  C   UNL     1      -1.984  -8.539  -4.084  0.00  0.00    +0.010 C 
ATOM      4  C   UNL     1      -2.596  -9.250  -5.120  0.00  0.00    +0.096 C 
ATOM      5  C   UNL     1      -2.427 -10.609  -5.258  0.00  0.00    +0.226 C 
ATOM      6  O   UNL     1      -2.948 -11.173  -6.206  0.00  0.00    -0.286 OA
ATOM      7  C   UNL     1      -1.622 -11.424  -4.280  0.00  0.00    +0.235 C 
ATOM      8  C   UNL     1      -0.531 -10.553  -3.687  0.00  0.00    +0.216 C 
ATOM      9  O   UNL     1       0.606 -10.954  -3.551  0.00  0.00    -0.287 OA
ATOM     10  C   UNL     1      -0.927  -9.198  -3.287  0.00  0.00    +0.045 C 
ATOM     11  C   UNL     1      -0.356  -8.528  -2.234  0.00  0.00    +0.087 C 
ATOM     12  N   UNL     1      -0.744  -7.269  -1.951  0.00  0.00    -0.306 N 
ATOM     13  C   UNL     1      -0.990 -12.614  -5.005  0.00  0.00    +0.073 C 
ATOM     14 CL   UNL     1      -3.591  -8.399  -6.259  0.00  0.00    -0.079 Cl
ENDROOT
BRANCH   1  16
ATOM     15  C   UNL     1      -3.047  -4.606  -2.994  0.00  0.00    +0.005 C 
ATOM     16  C   UNL     1      -2.042  -5.235  -2.343  0.00  0.00    +0.024 C 
BRANCH  15  18
ATOM     17  C   UNL     1      -4.459  -2.649  -3.216  0.00  0.00    -0.021 C 
ATOM     18  C   UNL     1      -3.467  -3.269  -2.574  0.00  0.00    -0.054 C 
ATOM     19  C   UNL     1      -2.780  -2.592  -1.416  0.00  0.00    +0.043 C 
BRANCH  17  20
ATOM     20  C   UNL     1      -4.985  -1.335  -2.700  0.00  0.00    +0.009 C 
ATOM     21  C   UNL     1      -4.666  -0.227  -3.706  0.00  0.00    +0.012 C 
BRANCH  20  23
ATOM     22  C   UNL     1      -7.017  -0.141  -1.870  0.00  0.00    +0.004 C 
ATOM     23  C   UNL     1      -6.500  -1.431  -2.510  0.00  0.00    +0.004 C 
ENDBRANCH  20  23
ENDBRANCH  17  20
ENDBRANCH  15  18
ENDBRANCH   1  16
BRANCH  12  24
ATOM     24  C   UNL     1      -0.133  -6.580  -0.811  0.00  0.00    +0.110 C 
BRANCH  24  25
ATOM     25  C   UNL     1      -1.003  -6.781   0.432  0.00  0.00    +0.018 C 
BRANCH  25  26
ATOM     26  C   UNL     1      -0.365  -6.062   1.622  0.00  0.00    -0.004 C 
BRANCH  26  27
ATOM     27  CA  UNL     1      -1.235  -6.263   2.865  0.00  0.00    +0.040 C 
BRANCH  27  28
ATOM     28  N   UNL     1      -2.534  -5.607   2.665  0.00  0.00    +0.387 N 
ATOM     29  H1  UNL     1      -2.995  -6.011   1.863  0.00  0.00    -0.089 HD
ATOM     30  H2  UNL     1      -3.108  -5.740   3.484  0.00  0.00    -0.089 HD
ATOM     31  H3  UNL     1      -2.392  -4.620   2.510  0.00  0.00    -0.089 HD
ENDBRANCH  27  28
BRANCH  27  32
ATOM     32  C   UNL     1      -0.547  -5.660   4.062  0.00  0.00    +0.342 C 
ATOM     33  O   UNL     1      -0.997  -4.652   4.580  0.00  0.00    -0.248 OA
ATOM     34  OXT UNL     1       0.459  -6.181   4.513  0.00  0.00    -0.248 OA
ENDBRANCH  27  32
ENDBRANCH  26  27
ENDBRANCH  25  26
ENDBRANCH  24  25
ENDBRANCH  12  24
BRANCH   7  35
ATOM     35  O   UNL     1      -2.476 -11.898  -3.237  0.00  0.00    -0.442 OA
BRANCH  35  36
ATOM     36  C   UNL     1      -3.503 -12.682  -3.599  0.00  0.00    +0.305 C 
ATOM     37  O   UNL     1      -3.673 -12.957  -4.763  0.00  0.00    -0.251 OA
ATOM     38  C   UNL     1      -4.446 -13.219  -2.553  0.00  0.00    +0.136 C 
ENDBRANCH  35  36
ENDBRANCH   7  35
TORSDOF 12
