REMARK  Name = ZINC14459721
REMARK  9 active torsions:
REMARK  status: ('A' for Active; 'I' for Inactive)
REMARK    1  A    between atoms: C_1  and  C_2
REMARK    2  A    between atoms: C_4  and  C_37
REMARK    3  A    between atoms: C_6  and  N_8
REMARK    4  A    between atoms: N_8  and  S_9
REMARK    5  A    between atoms: S_9  and  C_12
REMARK    6  A    between atoms: C_25  and  C_28
REMARK    7  A    between atoms: C_32  and  O_35
REMARK    8  A    between atoms: C_33  and  O_34
REMARK    9  A    between atoms: O_35  and  C_36
REMARK                            x       y       z     vdW  Elec       q    Type
REMARK                         _______ _______ _______ _____ _____    ______ ____
ROOT
ATOM      1  C   UNL     1      -1.127   1.926   1.436  0.00  0.00    +0.109 A 
ATOM      2  C   UNL     1      -1.935   0.962   2.011  0.00  0.00    +0.030 A 
ATOM      3  C   UNL     1      -2.757   1.288   3.070  0.00  0.00    +0.025 A 
ATOM      4  C   UNL     1      -2.780   2.586   3.567  0.00  0.00    +0.031 A 
ATOM      5  C   UNL     1      -1.951   3.554   2.987  0.00  0.00    -0.018 A 
ATOM      6  C   UNL     1      -1.134   3.217   1.929  0.00  0.00    +0.034 A 
ATOM      7  C   UNL     1      -1.987   4.916   3.561  0.00  0.00    +0.049 C 
ATOM      8  C   UNL     1      -1.660   6.118   2.753  0.00  0.00    -0.023 C 
ATOM      9  C   UNL     1      -2.347   7.146   3.207  0.00  0.00    -0.030 C 
ATOM     10  C   UNL     1      -3.267   6.693   4.342  0.00  0.00    +0.033 C 
ATOM     11  C   UNL     1      -3.448   5.204   4.018  0.00  0.00    +0.029 C 
ATOM     12  C   UNL     1      -3.699   4.267   5.186  0.00  0.00    +0.109 C 
ATOM     13  N   UNL     1      -3.646   2.901   4.620  0.00  0.00    -0.336 N 
ATOM     14  H   UNL     1      -4.222   2.212   4.986  0.00  0.00    +0.147 HD
ENDROOT
BRANCH  12  15
ATOM     15  C   UNL     1      -2.628   4.439   6.232  0.00  0.00    +0.018 A 
ATOM     16  C   UNL     1      -1.526   3.604   6.236  0.00  0.00    +0.009 A 
ATOM     17  C   UNL     1      -0.541   3.759   7.194  0.00  0.00    +0.004 A 
ATOM     18  C   UNL     1      -0.653   4.751   8.151  0.00  0.00    +0.049 A 
ATOM     19  C   UNL     1      -1.755   5.591   8.152  0.00  0.00    +0.162 A 
ATOM     20  C   UNL     1      -2.744   5.438   7.185  0.00  0.00    +0.163 A 
BRANCH  20  21
ATOM     21  O   UNL     1      -3.824   6.264   7.178  0.00  0.00    -0.503 OA
ATOM     22  H   UNL     1      -4.567   5.944   7.709  0.00  0.00    +0.292 HD
ENDBRANCH  20  21
BRANCH  19  23
ATOM     23  O   UNL     1      -1.867   6.567   9.093  0.00  0.00    -0.491 OA
ATOM     24  C   UNL     1      -0.811   6.669  10.051  0.00  0.00    +0.277 C 
ENDBRANCH  19  23
ENDBRANCH  12  15
BRANCH   1  25
ATOM     25  S   UNL     1      -0.085   1.506   0.079  0.00  0.00    +0.072 S 
ATOM     26  O   UNL     1       0.039   0.091   0.084  0.00  0.00    -0.150 OA
ATOM     27  O   UNL     1       1.042   2.370   0.150  0.00  0.00    -0.150 OA
BRANCH  25  28
ATOM     28  N   UNL     1      -0.900   1.905  -1.307  0.00  0.00    -0.216 N 
ATOM     29  H   UNL     1      -0.543   2.583  -1.902  0.00  0.00    +0.174 HD
BRANCH  28  35
ATOM     30  C   UNL     1      -3.517  -2.239  -1.666  0.00  0.00    +0.044 C 
ATOM     31  C   UNL     1      -3.399  -0.743  -1.802  0.00  0.00    -0.048 A 
ATOM     32  C   UNL     1      -4.483  -0.002  -2.236  0.00  0.00    +0.006 A 
ATOM     33  C   UNL     1      -4.379   1.371  -2.362  0.00  0.00    -0.048 A 
ATOM     34  C   UNL     1      -3.192   2.007  -2.055  0.00  0.00    +0.028 A 
ATOM     35  C   UNL     1      -2.102   1.265  -1.618  0.00  0.00    +0.049 A 
ATOM     36  C   UNL     1      -2.208  -0.114  -1.498  0.00  0.00    +0.028 A 
ATOM     37  C   UNL     1      -5.562   2.175  -2.837  0.00  0.00    +0.044 C 
ENDBRANCH  28  35
ENDBRANCH  25  28
ENDBRANCH   1  25
TORSDOF 6
