REMARK  Name = ZINC43735895
REMARK  7 active torsions:
REMARK  status: ('A' for Active; 'I' for Inactive)
REMARK    1  A    between atoms: C_1  and  C_2
REMARK    2  A    between atoms: C_17  and  C_37
REMARK    3  A    between atoms: C_22  and  C_23
REMARK    4  A    between atoms: C_22  and  O_36
REMARK    5  A    between atoms: C_23  and  N_24
REMARK    6  A    between atoms: C_25  and  C_26
REMARK    7  A    between atoms: C_28  and  N_33
REMARK                            x       y       z     vdW  Elec       q    Type
REMARK                         _______ _______ _______ _____ _____    ______ ____
ROOT
ATOM      1  C   UNL     1      -0.632  -3.501   3.478  0.00  0.00    +0.012 C 
ATOM      2  C   UNL     1      -1.748  -4.468   3.018  0.00  0.00    -0.026 C 
ATOM      3  C   UNL     1      -1.117  -5.551   2.152  0.00  0.00    +0.007 C 
ATOM      4  C   UNL     1      -0.134  -6.410   2.947  0.00  0.00    +0.001 C 
ATOM      5  C   UNL     1      -0.863  -7.049   4.130  0.00  0.00    +0.000 C 
ATOM      6  C   UNL     1      -1.395  -5.941   5.038  0.00  0.00    +0.004 C 
ATOM      7  C   UNL     1      -2.376  -5.055   4.277  0.00  0.00    -0.005 C 
ATOM      8  C   UNL     1      -3.628  -5.858   3.921  0.00  0.00    +0.004 C 
ATOM      9  C   UNL     1      -4.658  -4.883   3.350  0.00  0.00    +0.004 C 
ATOM     10  C   UNL     1      -4.130  -4.277   2.051  0.00  0.00    -0.004 C 
ATOM     11  C   UNL     1      -2.755  -3.649   2.219  0.00  0.00    -0.001 C 
ATOM     12  C   UNL     1      -2.154  -3.185   0.895  0.00  0.00    +0.005 C 
ATOM     13  C   UNL     1      -2.272  -4.206  -0.240  0.00  0.00    +0.010 C 
ATOM     14  C   UNL     1      -3.718  -4.628  -0.384  0.00  0.00    +0.001 C 
ATOM     15  C   UNL     1      -4.136  -5.299   0.946  0.00  0.00    +0.001 C 
ATOM     16  C   UNL     1      -5.494  -5.912   0.579  0.00  0.00    +0.007 C 
ATOM     17  C   UNL     1      -5.236  -6.485  -0.842  0.00  0.00    +0.037 C 
ATOM     18  C   UNL     1      -4.004  -5.733  -1.406  0.00  0.00    +0.089 C 
ATOM     19  C   UNL     1      -4.594  -3.423  -0.719  0.00  0.00    +0.014 C 
ENDROOT
BRANCH  18  20
ATOM     20  O   UNL     1      -2.888  -6.616  -1.507  0.00  0.00    -0.386 OA
ATOM     21  H   UNL     1      -3.012  -7.337  -2.140  0.00  0.00    +0.210 HD
ENDBRANCH  18  20
BRANCH  18  22
ATOM     22  C   UNL     1      -4.329  -5.120  -2.768  0.00  0.00    +0.147 C 
BRANCH  22  23
ATOM     23  N   UNL     1      -4.022  -6.087  -3.825  0.00  0.00    -0.387 N 
ATOM     24  C   UNL     1      -4.732  -6.085  -4.962  0.00  0.00    +0.090 C 
ATOM     25  H   UNL     1      -3.305  -6.729  -3.701  0.00  0.00    +0.159 HD
BRANCH  24  26
ATOM     26  C   UNL     1      -5.875  -5.289  -5.071  0.00  0.00    +0.039 A 
ATOM     27  C   UNL     1      -5.909  -3.994  -4.508  0.00  0.00    +0.045 A 
ATOM     28  C   UNL     1      -7.031  -3.235  -4.624  0.00  0.00    +0.127 A 
ATOM     29  C   UNL     1      -8.160  -3.703  -5.289  0.00  0.00    +0.036 A 
ATOM     30  C   UNL     1      -8.193  -4.941  -5.853  0.00  0.00    +0.054 A 
ATOM     31  C   UNL     1      -7.066  -5.778  -5.777  0.00  0.00    +0.188 A 
ATOM     32  O   UNL     1      -7.079  -6.891  -6.284  0.00  0.00    -0.287 OA
BRANCH  28  33
ATOM     33  N   UNL     1      -7.051  -1.880  -4.029  0.00  0.00    +0.056 N 
ATOM     34  O   UNL     1      -6.078  -1.460  -3.448  0.00  0.00    -0.126 OA
ATOM     35  O   UNL     1      -8.042  -1.193  -4.124  0.00  0.00    -0.126 OA
ENDBRANCH  28  33
ENDBRANCH  24  26
ENDBRANCH  22  23
ENDBRANCH  18  22
TORSDOF 5
