REMARK  Name = ZINC01079557
REMARK  9 active torsions:
REMARK  status: ('A' for Active; 'I' for Inactive)
REMARK    1  A    between atoms: C_1  and  C_2
REMARK    2  A    between atoms: C_7  and  C_8
REMARK    3  A    between atoms: C_10  and  C_23
REMARK    4  A    between atoms: C_11  and  N_22
REMARK    5  A    between atoms: C_18  and  C_20
REMARK    6  A    between atoms: C_18  and  C_21
REMARK    7  A    between atoms: C_28  and  C_33
REMARK    8  A    between atoms: C_28  and  C_34
REMARK    9  A    between atoms: C_30  and  C_32
REMARK                            x       y       z     vdW  Elec       q    Type
REMARK                         _______ _______ _______ _____ _____    ______ ____
ROOT
ATOM      1  C   UNL     1      -0.018   1.503   0.010  0.00  0.00    +0.044 C 
ATOM      2  C   UNL     1       0.002  -0.004   0.002  0.00  0.00    -0.047 A 
ATOM      3  C   UNL     1       0.005  -0.665  -1.218  0.00  0.00    +0.009 A 
ATOM      4  C   UNL     1       0.023  -2.038  -1.271  0.00  0.00    -0.022 A 
ATOM      5  C   UNL     1       0.036  -2.715  -0.052  0.00  0.00    +0.045 A 
ATOM      6  C   UNL     1       0.035  -2.058   1.171  0.00  0.00    +0.002 A 
ATOM      7  C   UNL     1       0.023  -0.681   1.220  0.00  0.00    -0.041 A 
ATOM      8  C   UNL     1       0.027   0.060   2.532  0.00  0.00    +0.044 C 
ATOM      9  C   UNL     1       0.052  -3.143   2.199  0.00  0.00    +0.145 C 
ATOM     10  C   UNL     1      -1.175  -3.092   3.061  0.00  0.00    +0.110 C 
ATOM     11  C   UNL     1      -1.095  -2.641   4.338  0.00  0.00    +0.199 C 
ATOM     12  O   UNL     1       0.076  -2.232   4.855  0.00  0.00    -0.445 OA
ATOM     13  C   UNL     1       1.242  -2.629   4.310  0.00  0.00    +0.116 C 
ATOM     14  C   UNL     1       1.300  -3.070   3.039  0.00  0.00    +0.058 C 
ATOM     15  C   UNL     1       2.519  -3.473   2.461  0.00  0.00    +0.165 C 
ATOM     16  O   UNL     1       2.532  -3.872   1.314  0.00  0.00    -0.292 OA
ATOM     17  C   UNL     1       3.807  -3.416   3.238  0.00  0.00    +0.086 C 
ATOM     18  C   UNL     1       3.705  -2.304   4.286  0.00  0.00    -0.021 C 
ATOM     19  C   UNL     1       2.484  -2.575   5.167  0.00  0.00    +0.081 C 
ATOM     20  C   UNL     1       3.544  -0.952   3.587  0.00  0.00    +0.012 C 
ATOM     21  C   UNL     1       4.969  -2.293   5.149  0.00  0.00    +0.012 C 
ATOM     22  C   UNL     1       0.061  -4.434   1.395  0.00  0.00    +0.241 C 
ATOM     23  O   UNL     1       0.075  -5.560   1.845  0.00  0.00    -0.273 OA
ATOM     24  N   UNL     1       0.050  -4.100   0.095  0.00  0.00    -0.264 N 
ATOM     25  C   UNL     1       0.050  -4.972  -1.093  0.00  0.00    +0.037 C 
ATOM     26  C   UNL     1      -0.635  -4.223  -2.242  0.00  0.00    +0.033 C 
ATOM     27  C   UNL     1       0.032  -2.872  -2.519  0.00  0.00    +0.020 C 
ATOM     28  C   UNL     1      -0.735  -2.142  -3.624  0.00  0.00    +0.012 C 
ATOM     29  C   UNL     1       1.490  -5.311  -1.484  0.00  0.00    +0.032 C 
ATOM     30  C   UNL     1      -0.718  -6.259  -0.787  0.00  0.00    +0.032 C 
ENDROOT
BRANCH  11  31
ATOM     31  N   UNL     1      -2.226  -2.603   5.115  0.00  0.00    -0.328 N 
ATOM     32  H   UNL     1      -3.075  -2.897   4.749  0.00  0.00    +0.145 HD
ATOM     33  H   UNL     1      -2.177  -2.283   6.029  0.00  0.00    +0.145 HD
ENDBRANCH  11  31
BRANCH  10  34
ATOM     34  C   UNL     1      -2.436  -3.519   2.534  0.00  0.00    +0.102 C 
ATOM     35  N   UNL     1      -3.437  -3.858   2.116  0.00  0.00    -0.191 NA
ENDBRANCH  10  34
TORSDOF 2
