REMARK  Name = ZINC38612258
REMARK  11 active torsions:
REMARK  status: ('A' for Active; 'I' for Inactive)
REMARK    1  A    between atoms: C_1  and  C_2
REMARK    2  A    between atoms: C_2  and  O_3
REMARK    3  A    between atoms: O_3  and  C_4
REMARK    4  A    between atoms: C_4  and  C_6
REMARK    5  A    between atoms: N_9  and  C_12
REMARK    6  A    between atoms: C_12  and  C_14
REMARK    7  A    between atoms: C_12  and  C_15
REMARK    8  A    between atoms: N_17  and  C_18
REMARK    9  A    between atoms: C_26  and  C_28
REMARK   10  A    between atoms: C_28  and  O_30
REMARK   11  A    between atoms: O_30  and  C_31
REMARK                            x       y       z     vdW  Elec       q    Type
REMARK                         _______ _______ _______ _____ _____    ______ ____
ROOT
ATOM      1  C   UNL     1       6.319  -4.835  -5.272  0.00  0.00    +0.203 C 
ATOM      2  O   UNL     1       6.147  -3.893  -4.528  0.00  0.00    -0.277 OA
ATOM      3  N   UNL     1       7.465  -4.939  -5.973  0.00  0.00    -0.288 N 
ATOM      4  H   UNL     1       7.572  -5.651  -6.624  0.00  0.00    +0.155 HD
ENDROOT
BRANCH   3   5
ATOM      5  C   UNL     1       8.473  -4.046  -5.768  0.00  0.00    +0.053 C 
ATOM      6  C   UNL     1       9.665  -3.957  -6.466  0.00  0.00    +0.019 A 
ATOM      7  C   UNL     1      10.200  -4.704  -7.543  0.00  0.00    +0.031 A 
ATOM      8  C   UNL     1      11.422  -4.388  -8.040  0.00  0.00    +0.042 A 
ATOM      9  C   UNL     1      12.177  -3.335  -7.513  0.00  0.00    +0.022 A 
ATOM     10  C   UNL     1      11.728  -2.578  -6.483  0.00  0.00    +0.027 A 
ATOM     11  C   UNL     1      10.458  -2.847  -5.909  0.00  0.00    +0.045 A 
ATOM     12  N   UNL     1       9.808  -2.268  -4.920  0.00  0.00    -0.367 N 
ATOM     13  C   UNL     1       8.518  -2.942  -4.735  0.00  0.00    +0.234 C 
ATOM     14 CL   UNL     1      12.065  -5.313  -9.361  0.00  0.00    -0.084 Cl
ATOM     15  H   UNL     1      10.129  -1.515  -4.400  0.00  0.00    +0.161 HD
BRANCH  13  16
ATOM     16  C   UNL     1       8.435  -3.525  -3.348  0.00  0.00    +0.335 C 
ATOM     17  O   UNL     1       9.423  -3.985  -2.825  0.00  0.00    -0.248 OA
BRANCH  16  18
ATOM     18  O   UNL     1       7.263  -3.534  -2.693  0.00  0.00    -0.466 OA
ATOM     19  C   UNL     1       7.257  -4.103  -1.382  0.00  0.00    +0.280 C 
ENDBRANCH  16  18
ENDBRANCH  13  16
ENDBRANCH   3   5
BRANCH   1  20
ATOM     20  C   UNL     1       5.250  -5.888  -5.414  0.00  0.00    +0.016 C 
ATOM     21  C   UNL     1       5.522  -7.026  -4.428  0.00  0.00    -0.004 C 
BRANCH  20  25
ATOM     22  C   UNL     1       1.226  -4.547  -5.822  0.00  0.00    +0.094 C 
ATOM     23  C   UNL     1       2.355  -3.518  -5.717  0.00  0.00    -0.004 C 
ATOM     24  C   UNL     1       3.685  -4.192  -6.062  0.00  0.00    -0.077 C 
ATOM     25  N   UNL     1       3.937  -5.294  -5.127  0.00  0.00    +0.387 N 
ATOM     26  C   UNL     1       2.896  -6.319  -5.273  0.00  0.00    -0.077 C 
ATOM     27  C   UNL     1       1.536  -5.727  -4.897  0.00  0.00    -0.004 C 
ATOM     28  H   UNL     1       3.929  -4.941  -4.182  0.00  0.00    -0.081 HD
BRANCH  22  29
ATOM     29  C   UNL     1      -0.076  -3.910  -5.407  0.00  0.00    +0.310 C 
ATOM     30  O   UNL     1      -0.693  -4.354  -4.468  0.00  0.00    -0.251 OA
BRANCH  29  31
ATOM     31  O   UNL     1      -0.549  -2.850  -6.081  0.00  0.00    -0.465 OA
BRANCH  31  33
ATOM     32  C   UNL     1      -2.164  -1.106  -6.516  0.00  0.00    +0.048 C 
ATOM     33  C   UNL     1      -1.788  -2.298  -5.633  0.00  0.00    +0.229 C 
ENDBRANCH  31  33
ENDBRANCH  29  31
ENDBRANCH  22  29
ENDBRANCH  20  25
ENDBRANCH   1  20
TORSDOF 8
