REMARK  Name = ZINC10219031
REMARK  5 active torsions:
REMARK  status: ('A' for Active; 'I' for Inactive)
REMARK    1  A    between atoms: C_4  and  C_27
REMARK    2  A    between atoms: C_6  and  S_7
REMARK    3  A    between atoms: S_7  and  N_10
REMARK    4  A    between atoms: C_15  and  N_16
REMARK    5  A    between atoms: C_15  and  N_54
REMARK                            x       y       z     vdW  Elec       q    Type
REMARK                         _______ _______ _______ _____ _____    ______ ____
ROOT
ATOM      1  N   UNL     1      -0.020   1.652   0.011  0.00  0.00    -0.180 NA
ATOM      2  C   UNL     1      -1.293   2.389   0.021  0.00  0.00    +0.091 C 
ATOM      3  C   UNL     1      -1.246   3.415   1.165  0.00  0.00    -0.059 C 
ATOM      4  C   UNL     1       1.179   3.448   1.142  0.00  0.00    -0.059 C 
ATOM      5  C   UNL     1       1.232   2.424   0.003  0.00  0.00    +0.091 C 
ATOM      6  N   UNL     1      -0.047   4.263   0.991  0.00  0.00    +0.392 N 
ATOM      7  H   UNL     1      -0.061   4.671   0.049  0.00  0.00    -0.079 HD
ENDROOT
BRANCH   1   8
ATOM      8  S   UNL     1       0.002  -0.004   0.002  0.00  0.00    +0.061 S 
ATOM      9  O   UNL     1      -1.243  -0.424  -0.539  0.00  0.00    -0.153 OA
ATOM     10  O   UNL     1       1.248  -0.390  -0.563  0.00  0.00    -0.153 OA
BRANCH   8  16
ATOM     11  C   UNL     1       1.231  -0.731   2.328  0.00  0.00    +0.030 A 
ATOM     12  C   UNL     1       1.250  -1.141   3.648  0.00  0.00    +0.022 A 
ATOM     13  C   UNL     1       0.061  -1.366   4.319  0.00  0.00    +0.053 A 
ATOM     14  C   UNL     1      -1.146  -1.174   3.670  0.00  0.00    +0.075 A 
ATOM     15  C   UNL     1      -1.163  -0.758   2.353  0.00  0.00    +0.042 A 
ATOM     16  C   UNL     1       0.025  -0.534   1.682  0.00  0.00    +0.106 A 
ATOM     17 CL   UNL     1       0.084  -1.888   5.974  0.00  0.00    -0.083 Cl
BRANCH  14  18
ATOM     18  C   UNL     1      -2.441  -1.419   4.401  0.00  0.00    +0.419 C 
ATOM     19  F   UNL     1      -3.516  -1.159   3.544  0.00  0.00    -0.166 F 
ATOM     20  F   UNL     1      -2.493  -2.751   4.824  0.00  0.00    -0.166 F 
ATOM     21  F   UNL     1      -2.516  -0.573   5.512  0.00  0.00    -0.166 F 
ENDBRANCH  14  18
ENDBRANCH   8  16
ENDBRANCH   1   8
BRANCH   6  22
ATOM     22  C   UNL     1      -0.052   5.355   1.986  0.00  0.00    +0.043 C 
BRANCH  22  23
ATOM     23  N   UNL     1      -1.434   5.749   2.269  0.00  0.00    -0.241 N 
ATOM     24  C   UNL     1      -2.188   5.217   3.256  0.00  0.00    +0.245 C 
ATOM     25  O   UNL     1      -1.865   4.356   4.046  0.00  0.00    -0.273 OA
ATOM     26  C   UNL     1      -3.518   5.922   3.164  0.00  0.00    +0.112 C 
ATOM     27  C   UNL     1      -3.836   6.669   4.466  0.00  0.00    +0.035 C 
ATOM     28  C   UNL     1      -5.375   6.536   4.608  0.00  0.00    +0.003 C 
ATOM     29  C   UNL     1      -5.646   5.102   4.087  0.00  0.00    +0.003 C 
ATOM     30  C   UNL     1      -4.657   4.931   2.913  0.00  0.00    +0.035 C 
ATOM     31  N   UNL     1      -3.362   6.854   2.045  0.00  0.00    -0.285 N 
ATOM     32  C   UNL     1      -2.106   6.685   1.586  0.00  0.00    +0.308 C 
ATOM     33  O   UNL     1      -1.637   7.309   0.655  0.00  0.00    -0.252 OA
ATOM     34  H   UNL     1      -4.028   7.471   1.705  0.00  0.00    +0.151 HD
ENDBRANCH  22  23
ENDBRANCH   6  22
TORSDOF 5
