REMARK  Name = ZINC14541793
REMARK  12 active torsions:
REMARK  status: ('A' for Active; 'I' for Inactive)
REMARK    1  A    between atoms: C_1  and  C_2
REMARK    2  A    between atoms: C_2  and  C_3
REMARK    3  A    between atoms: C_2  and  C_4
REMARK    4  A    between atoms: C_2  and  C_26
REMARK    5  A    between atoms: C_4  and  N_64
REMARK    6  A    between atoms: C_5  and  N_64
REMARK    7  A    between atoms: C_11  and  C_17
REMARK    8  A    between atoms: N_13  and  C_14
REMARK    9  A    between atoms: C_14  and  C_15
REMARK   10  A    between atoms: C_26  and  N_67
REMARK   11  A    between atoms: C_27  and  N_67
REMARK   12  A    between atoms: C_28  and  N_67
REMARK                            x       y       z     vdW  Elec       q    Type
REMARK                         _______ _______ _______ _____ _____    ______ ____
ROOT
ATOM      1  C   UNL     1       5.218  -1.360   1.618  0.00  0.00    -0.067 C 
ATOM      2  C   UNL     1       5.008  -1.338   0.102  0.00  0.00    -0.009 C 
ATOM      3  C   UNL     1       3.711  -0.587  -0.229  0.00  0.00    +0.054 C 
ATOM      4  C   UNL     1       3.728   0.731   0.501  0.00  0.00    +0.043 A 
ATOM      5  C   UNL     1       4.556   1.011   1.538  0.00  0.00    +0.004 A 
ATOM      6  C   UNL     1       4.258   2.329   1.925  0.00  0.00    +0.151 A 
ATOM      7  N   UNL     1       3.300   2.752   1.119  0.00  0.00    -0.166 NA
ATOM      8  N   UNL     1       2.977   1.824   0.286  0.00  0.00    -0.264 N 
ATOM      9  C   UNL     1       5.565   0.053   2.108  0.00  0.00    +0.023 C 
ENDROOT
BRANCH   6  10
ATOM     10  C   UNL     1       4.897   3.094   3.015  0.00  0.00    +0.267 C 
ATOM     11  O   UNL     1       5.854   2.629   3.604  0.00  0.00    -0.268 OA
ATOM     12  N   UNL     1       4.419   4.306   3.357  0.00  0.00    -0.295 N 
ATOM     13  C   UNL     1       3.189   4.800   2.735  0.00  0.00    +0.119 C 
ATOM     14  C   UNL     1       2.093   4.919   3.807  0.00  0.00    +0.088 C 
ATOM     15  S   UNL     1       2.689   6.019   5.127  0.00  0.00    -0.158 S 
ATOM     16  C   UNL     1       4.279   5.275   5.599  0.00  0.00    +0.088 C 
ATOM     17  C   UNL     1       5.139   5.116   4.341  0.00  0.00    +0.119 C 
ENDBRANCH   6  10
BRANCH   1  18
ATOM     18  N   UNL     1       6.328  -2.273   1.949  0.00  0.00    +0.381 N 
ATOM     19  H   UNL     1       7.039  -2.222   1.210  0.00  0.00    -0.085 HD
ATOM     20  H   UNL     1       6.744  -1.990   2.844  0.00  0.00    -0.085 HD
BRANCH  18  21
ATOM     21  C   UNL     1       5.836  -3.659   2.057  0.00  0.00    -0.078 C 
BRANCH  21  23
ATOM     22  C   UNL     1       8.065  -4.495   1.296  0.00  0.00    +0.007 C 
ATOM     23  C   UNL     1       7.008  -4.582   2.399  0.00  0.00    -0.065 C 
ATOM     24  C   UNL     1       7.625  -4.150   3.731  0.00  0.00    +0.007 C 
BRANCH  23  25
ATOM     25  C   UNL     1       6.506  -6.023   2.513  0.00  0.00    -0.075 C 
BRANCH  25  28
ATOM     26  C   UNL     1       7.988  -7.038   4.136  0.00  0.00    -0.097 C 
ATOM     27  C   UNL     1       7.384  -8.246   2.127  0.00  0.00    -0.097 C 
ATOM     28  N   UNL     1       7.671  -6.913   2.698  0.00  0.00    +0.376 N 
ATOM     29  H   UNL     1       8.480  -6.510   2.212  0.00  0.00    -0.083 HD
ENDBRANCH  25  28
ENDBRANCH  23  25
ENDBRANCH  21  23
ENDBRANCH  18  21
ENDBRANCH   1  18
BRANCH   8  30
ATOM     30  C   UNL     1       1.947   1.945  -0.749  0.00  0.00    +0.170 C 
BRANCH  30  31
ATOM     31  C   UNL     1       0.621   1.498  -0.192  0.00  0.00    -0.012 C 
ATOM     32  C   UNL     1      -0.417   2.296  -0.250  0.00  0.00    +0.006 C 
ENDBRANCH  30  31
ENDBRANCH   8  30
TORSDOF 8
