REMARK  Name = ZINC40687410
REMARK  6 active torsions:
REMARK  status: ('A' for Active; 'I' for Inactive)
REMARK    1  A    between atoms: C_1  and  C_2
REMARK    2  A    between atoms: C_5  and  S_8
REMARK    3  A    between atoms: S_8  and  N_11
REMARK    4  A    between atoms: N_11  and  N_12
REMARK    5  A    between atoms: C_14  and  N_28
REMARK    6  A    between atoms: C_15  and  N_19
REMARK                            x       y       z     vdW  Elec       q    Type
REMARK                         _______ _______ _______ _____ _____    ______ ____
ROOT
ATOM      1  N   UNL     1       2.391  -4.626   1.126  0.00  0.00    -0.244 N 
ATOM      2  C   UNL     1       3.151  -5.591   1.775  0.00  0.00    +0.159 A 
ATOM      3  C   UNL     1       4.019  -5.233   2.808  0.00  0.00    +0.105 A 
ATOM      4  C   UNL     1       4.759  -6.242   3.427  0.00  0.00    +0.129 A 
ATOM      5  N   UNL     1       4.611  -7.498   3.012  0.00  0.00    -0.332 N 
ATOM      6  C   UNL     1       3.780  -7.793   2.033  0.00  0.00    +0.200 A 
ATOM      7  N   UNL     1       3.059  -6.872   1.426  0.00  0.00    -0.220 NA
ATOM      8  H   UNL     1       2.464  -3.695   1.386  0.00  0.00    +0.169 HD
ATOM      9  H   UNL     1       5.121  -8.205   3.436  0.00  0.00    +0.168 HD
ENDROOT
BRANCH   4  10
ATOM     10  N   UNL     1       5.639  -5.939   4.461  0.00  0.00    -0.284 N 
ATOM     11  C   UNL     1       5.303  -5.975   5.887  0.00  0.00    +0.117 C 
ATOM     12  C   UNL     1       6.593  -5.566   6.615  0.00  0.00    +0.056 C 
ATOM     13  C   UNL     1       7.594  -5.323   5.508  0.00  0.00    -0.025 A 
ATOM     14  C   UNL     1       6.973  -5.564   4.292  0.00  0.00    +0.038 A 
ATOM     15  C   UNL     1       7.707  -5.409   3.114  0.00  0.00    +0.024 A 
ATOM     16  C   UNL     1       9.030  -5.026   3.165  0.00  0.00    +0.002 A 
ATOM     17  C   UNL     1       9.641  -4.792   4.383  0.00  0.00    +0.000 A 
ATOM     18  C   UNL     1       8.918  -4.934   5.554  0.00  0.00    +0.005 A 
ENDBRANCH   4  10
BRANCH   3  19
ATOM     19  N   UNL     1       4.145  -3.894   3.214  0.00  0.00    -0.353 N 
ATOM     20  H   UNL     1       3.696  -3.193   2.716  0.00  0.00    +0.143 HD
ATOM     21  H   UNL     1       4.679  -3.671   3.992  0.00  0.00    +0.143 HD
ENDBRANCH   3  19
BRANCH   1  22
ATOM     22  N   UNL     1       1.519  -4.999   0.094  0.00  0.00    -0.109 NA
ATOM     23  H   UNL     1       1.853  -5.499  -0.666  0.00  0.00    +0.172 HD
BRANCH  22  24
ATOM     24  S   UNL     1      -0.083  -4.585   0.174  0.00  0.00    +0.074 S 
ATOM     25  O   UNL     1      -0.564  -5.063   1.422  0.00  0.00    -0.152 OA
ATOM     26  O   UNL     1      -0.664  -4.969  -1.065  0.00  0.00    -0.152 OA
BRANCH  24  31
ATOM     27  C   UNL     1      -0.361   1.438   0.411  0.00  0.00    +0.044 C 
ATOM     28  C   UNL     1      -0.292  -0.066   0.352  0.00  0.00    -0.050 A 
ATOM     29  C   UNL     1      -0.306  -0.711  -0.871  0.00  0.00    +0.005 A 
ATOM     30  C   UNL     1      -0.242  -2.091  -0.925  0.00  0.00    +0.029 A 
ATOM     31  C   UNL     1      -0.163  -2.826   0.243  0.00  0.00    +0.107 A 
ATOM     32  C   UNL     1      -0.147  -2.181   1.466  0.00  0.00    +0.029 A 
ATOM     33  C   UNL     1      -0.207  -0.801   1.520  0.00  0.00    +0.005 A 
ENDBRANCH  24  31
ENDBRANCH  22  24
ENDBRANCH   1  22
TORSDOF 5
