REMARK  Name = ZINC35326013
REMARK  4 active torsions:
REMARK  status: ('A' for Active; 'I' for Inactive)
REMARK    1  A    between atoms: C_6  and  C_7
REMARK    2  A    between atoms: C_7  and  C_9
REMARK    3  A    between atoms: C_10  and  N_24
REMARK    4  A    between atoms: C_14  and  C_18
REMARK                            x       y       z     vdW  Elec       q    Type
REMARK                         _______ _______ _______ _____ _____    ______ ____
ROOT
ATOM      1  C   UNL     1      -2.499  -0.077   0.132  0.00  0.00    +0.083 A 
ATOM      2  C   UNL     1      -3.766  -0.612   0.258  0.00  0.00    +0.052 A 
ATOM      3  C   UNL     1      -4.891   0.302   0.369  0.00  0.00    +0.029 A 
ATOM      4  C   UNL     1      -6.269  -0.006   0.506  0.00  0.00    +0.014 A 
ATOM      5  C   UNL     1      -7.173   1.010   0.595  0.00  0.00    +0.029 A 
ATOM      6  C   UNL     1      -6.748   2.341   0.551  0.00  0.00    +0.072 A 
ATOM      7  N   UNL     1      -5.458   2.627   0.423  0.00  0.00    -0.239 NA
ATOM      8  C   UNL     1      -4.555   1.676   0.335  0.00  0.00    +0.111 A 
ATOM      9  S   UNL     1      -2.787   1.681   0.167  0.00  0.00    -0.064 S 
ENDROOT
BRANCH   6  10
ATOM     10  C   UNL     1      -7.741   3.438   0.648  0.00  0.00    +0.003 A 
ATOM     11  C   UNL     1      -9.104   3.161   0.789  0.00  0.00    +0.030 A 
ATOM     12  C   UNL     1      -9.995   4.212   0.876  0.00  0.00    +0.111 A 
ATOM     13  N   UNL     1      -9.575   5.462   0.827  0.00  0.00    -0.263 NA
ATOM     14  C   UNL     1      -8.298   5.766   0.695  0.00  0.00    +0.111 A 
ATOM     15  C   UNL     1      -7.340   4.776   0.607  0.00  0.00    +0.030 A 
ENDBRANCH   6  10
BRANCH   2  16
ATOM     16  N   UNL     1      -3.961  -1.984   0.278  0.00  0.00    -0.356 N 
ATOM     17  H   UNL     1      -3.201  -2.583   0.203  0.00  0.00    +0.142 HD
ATOM     18  H   UNL     1      -4.856  -2.346   0.367  0.00  0.00    +0.142 HD
ENDBRANCH   2  16
BRANCH   1  19
ATOM     19  C   UNL     1      -1.266  -0.762   0.010  0.00  0.00    +0.202 C 
ATOM     20  O   UNL     1      -1.252  -1.974  -0.112  0.00  0.00    -0.286 OA
BRANCH  19  26
ATOM     21  C   UNL     1       1.141  -0.534  -0.585  0.00  0.00    +0.015 A 
ATOM     22  C   UNL     1       2.325   0.172  -0.565  0.00  0.00    +0.050 A 
ATOM     23  C   UNL     1       2.391   1.407   0.064  0.00  0.00    +0.166 A 
ATOM     24  C   UNL     1       1.257   1.940   0.680  0.00  0.00    +0.167 A 
ATOM     25  C   UNL     1       0.069   1.237   0.664  0.00  0.00    +0.061 A 
ATOM     26  C   UNL     1       0.003  -0.007   0.030  0.00  0.00    +0.027 A 
ATOM     27  O   UNL     1       1.583   3.151   1.220  0.00  0.00    -0.453 OA
ATOM     28  C   UNL     1       3.022   3.168   1.284  0.00  0.00    +0.466 C 
ATOM     29  O   UNL     1       3.423   2.286   0.219  0.00  0.00    -0.453 OA
ENDBRANCH  19  26
ENDBRANCH   1  19
TORSDOF 4
