REMARK  Name = ZINC00525592
REMARK  6 active torsions:
REMARK  status: ('A' for Active; 'I' for Inactive)
REMARK    1  A    between atoms: C_1  and  C_2
REMARK    2  A    between atoms: C_5  and  C_8
REMARK    3  A    between atoms: C_11  and  S_14
REMARK    4  A    between atoms: N_12  and  N_13
REMARK    5  A    between atoms: S_14  and  C_15
REMARK    6  A    between atoms: C_15  and  C_16
REMARK                            x       y       z     vdW  Elec       q    Type
REMARK                         _______ _______ _______ _____ _____    ______ ____
ROOT
ATOM      1  C   UNL     1      -0.663   3.846   0.029  0.00  0.00    +0.182 A 
ATOM      2  N   UNL     1       0.648   3.780   0.016  0.00  0.00    -0.127 NA
ATOM      3  N   UNL     1       1.026   2.552   0.006  0.00  0.00    -0.121 NA
ATOM      4  C   UNL     1      -0.022   1.758   0.012  0.00  0.00    +0.209 A 
ATOM      5  N   UNL     1      -1.132   2.553   0.021  0.00  0.00    -0.224 N 
ENDROOT
BRANCH   1  10
ATOM      6  C   UNL     1      -3.846   8.640   0.084  0.00  0.00    +0.044 C 
ATOM      7  C   UNL     1      -3.012   7.384   0.069  0.00  0.00    -0.050 A 
ATOM      8  C   UNL     1      -1.669   7.454  -0.253  0.00  0.00    +0.004 A 
ATOM      9  C   UNL     1      -0.900   6.308  -0.268  0.00  0.00    +0.012 A 
ATOM     10  C   UNL     1      -1.480   5.078   0.043  0.00  0.00    +0.021 A 
ATOM     11  C   UNL     1      -2.838   5.014   0.362  0.00  0.00    +0.012 A 
ATOM     12  C   UNL     1      -3.594   6.168   0.379  0.00  0.00    +0.004 A 
ENDBRANCH   1  10
BRANCH   5  13
ATOM     13  N   UNL     1      -2.437   2.148   0.023  0.00  0.00    -0.295 N 
ATOM     14  H   UNL     1      -2.779   2.036   0.966  0.00  0.00    +0.163 HD
ATOM     15  H   UNL     1      -3.015   2.791  -0.497  0.00  0.00    +0.163 HD
ENDBRANCH   5  13
BRANCH   4  16
ATOM     16  S   UNL     1       0.002  -0.004   0.002  0.00  0.00    -0.080 S 
BRANCH  16  17
ATOM     17  C   UNL     1       1.789  -0.294  -0.016  0.00  0.00    +0.112 C 
BRANCH  17  18
ATOM     18  C   UNL     1       2.057  -1.777  -0.026  0.00  0.00    -0.036 A 
ATOM     19  C   UNL     1       2.169  -2.451  -1.228  0.00  0.00    +0.004 A 
ATOM     20  C   UNL     1       2.416  -3.811  -1.239  0.00  0.00    +0.002 A 
ATOM     21  C   UNL     1       2.550  -4.498  -0.047  0.00  0.00    +0.020 A 
ATOM     22  C   UNL     1       2.438  -3.825   1.156  0.00  0.00    +0.041 A 
ATOM     23  C   UNL     1       2.196  -2.462   1.166  0.00  0.00    +0.024 A 
ATOM     24 CL   UNL     1       2.607  -4.687   2.653  0.00  0.00    -0.084 Cl
ENDBRANCH  17  18
ENDBRANCH  16  17
ENDBRANCH   4  16
TORSDOF 5
