REMARK  Name = ZINC59166734
REMARK  8 active torsions:
REMARK  status: ('A' for Active; 'I' for Inactive)
REMARK    1  A    between atoms: C_1  and  C_2
REMARK    2  A    between atoms: C_5  and  N_9
REMARK    3  A    between atoms: N_9  and  C_10
REMARK    4  A    between atoms: C_10  and  N_12
REMARK    5  A    between atoms: N_12  and  N_13
REMARK    6  A    between atoms: C_17  and  C_24
REMARK    7  A    between atoms: C_24  and  C_25
REMARK    8  A    between atoms: C_24  and  C_26
REMARK                            x       y       z     vdW  Elec       q    Type
REMARK                         _______ _______ _______ _____ _____    ______ ____
ROOT
ATOM      1  N   UNL     1       0.299  -6.881  -0.102  0.00  0.00    -0.175 NA
ATOM      2  C   UNL     1       0.415  -8.188  -0.118  0.00  0.00    +0.152 C 
ATOM      3  C   UNL     1       0.444  -9.077  -1.303  0.00  0.00    +0.028 A 
ATOM      4  C   UNL     1       0.364  -8.843  -2.671  0.00  0.00    +0.016 A 
ATOM      5  C   UNL     1       0.421  -9.904  -3.552  0.00  0.00    -0.044 A 
ATOM      6  C   UNL     1       0.558 -11.196  -3.074  0.00  0.00    +0.006 A 
ATOM      7  C   UNL     1       0.639 -11.439  -1.717  0.00  0.00    +0.024 A 
ATOM      8  C   UNL     1       0.583 -10.382  -0.815  0.00  0.00    +0.043 A 
ATOM      9  N   UNL     1       0.641 -10.350   0.574  0.00  0.00    -0.280 N 
ATOM     10  C   UNL     1       0.553  -9.092   1.040  0.00  0.00    +0.269 C 
ATOM     11  O   UNL     1       0.580  -8.758   2.210  0.00  0.00    -0.268 OA
ATOM     12  H   UNL     1       0.736 -11.135   1.136  0.00  0.00    +0.155 HD
ENDROOT
BRANCH   5  13
ATOM     13  C   UNL     1       0.335  -9.656  -5.036  0.00  0.00    +0.013 C 
ATOM     14  C   UNL     1       1.607 -10.169  -5.714  0.00  0.00    +0.012 C 
ATOM     15  C   UNL     1      -0.879 -10.393  -5.606  0.00  0.00    +0.012 C 
ENDBRANCH   5  13
BRANCH   1  16
ATOM     16  N   UNL     1       0.296  -6.193   1.118  0.00  0.00    -0.217 N 
ATOM     17  H   UNL     1       0.380  -6.683   1.951  0.00  0.00    +0.176 HD
BRANCH  16  18
ATOM     18  C   UNL     1       0.176  -4.851   1.134  0.00  0.00    +0.154 C 
ATOM     19  S   UNL     1       0.173  -4.010   2.626  0.00  0.00    -0.017 S 
BRANCH  18  20
ATOM     20  N   UNL     1       0.059  -4.171  -0.023  0.00  0.00    -0.296 N 
ATOM     21  H   UNL     1      -0.019  -4.651  -0.862  0.00  0.00    +0.154 HD
BRANCH  20  26
ATOM     22  C   UNL     1       0.033   1.503   0.014  0.00  0.00    +0.047 C 
ATOM     23  C   UNL     1       0.040  -0.004   0.004  0.00  0.00    -0.015 A 
ATOM     24  C   UNL     1       0.926  -0.696   0.809  0.00  0.00    +0.008 A 
ATOM     25  C   UNL     1       0.934  -2.076   0.802  0.00  0.00    +0.024 A 
ATOM     26  C   UNL     1       0.052  -2.772  -0.015  0.00  0.00    +0.035 A 
ATOM     27  C   UNL     1      -0.837  -2.077  -0.823  0.00  0.00    +0.062 A 
ATOM     28  C   UNL     1      -0.845  -0.693  -0.809  0.00  0.00    +0.128 A 
ATOM     29  F   UNL     1      -1.713  -0.015  -1.591  0.00  0.00    -0.205 F 
ENDBRANCH  20  26
ENDBRANCH  18  20
ENDBRANCH  16  18
ENDBRANCH   1  16
TORSDOF 5
