REMARK  Name = ZINC39095220
REMARK  0 active torsions:
REMARK  status: ('A' for Active; 'I' for Inactive)
REMARK                            x       y       z     vdW  Elec       q    Type
REMARK                         _______ _______ _______ _____ _____    ______ ____
ROOT
ATOM      1  C   UNL     1      -0.019   1.536   0.011  0.00  0.00    -0.024 C 
ATOM      2  C   UNL     1       1.469   1.961  -0.001  0.00  0.00    -0.067 C 
ATOM      3  C   UNL     1       2.189   0.706   0.531  0.00  0.00    -0.291 C 
ATOM      4  N   UNL     1       1.422  -0.420  -0.042  0.00  0.00    +0.353 N 
ATOM      5  C   UNL     1       0.002  -0.004   0.002  0.00  0.00    -0.088 C 
ATOM      6  N   UNL     1       2.153   0.672   1.992  0.00  0.00    +0.339 NA
ATOM      7  C   UNL     1       3.482   0.190   2.422  0.00  0.00    -0.188 C 
ATOM      8  C   UNL     1       4.427   0.626   1.284  0.00  0.00    -0.188 C 
ATOM      9  N   UNL     1       3.578   0.676   0.080  0.00  0.00    +0.339 NA
ATOM     10  H   UNL     1       1.707  -0.586  -0.995  0.00  0.00    -0.091 HD
ATOM     11  H   UNL     1       1.558  -1.252   0.513  0.00  0.00    -0.091 HD
ENDROOT
TORSDOF 0
