REMARK  Name = ZINC39531997
REMARK  12 active torsions:
REMARK  status: ('A' for Active; 'I' for Inactive)
REMARK    1  A    between atoms: C_1  and  C_2
REMARK    2  A    between atoms: C_5  and  C_8
REMARK    3  A    between atoms: C_8  and  C_10
REMARK    4  A    between atoms: C_8  and  N_18
REMARK    5  A    between atoms: C_10  and  N_11
REMARK    6  A    between atoms: N_11  and  S_12
REMARK    7  A    between atoms: S_12  and  C_15
REMARK    8  A    between atoms: C_15  and  C_16
REMARK    9  A    between atoms: C_15  and  C_17
REMARK   10  A    between atoms: C_22  and  S_25
REMARK   11  A    between atoms: S_25  and  O_28
REMARK   12  A    between atoms: O_28  and  C_29
REMARK                            x       y       z     vdW  Elec       q    Type
REMARK                         _______ _______ _______ _____ _____    ______ ____
ROOT
ATOM      1  N   UNL     1      -0.672  -5.142   0.540  0.00  0.00    -0.296 NA
ATOM      2  C   UNL     1      -0.334  -6.523   0.912  0.00  0.00    +0.066 C 
ATOM      3  C   UNL     1      -1.223  -6.967   2.076  0.00  0.00    -0.064 C 
ATOM      4  N   UNL     1      -2.634  -6.881   1.676  0.00  0.00    +0.398 N 
ATOM      5  C   UNL     1      -2.963  -5.492   1.331  0.00  0.00    +0.130 C 
ATOM      6  C   UNL     1      -2.088  -5.036   0.161  0.00  0.00    +0.095 C 
ATOM      7  H   UNL     1      -2.792  -7.473   0.875  0.00  0.00    -0.083 HD
ATOM      8  H   UNL     1      -3.219  -7.185   2.440  0.00  0.00    -0.083 HD
ENDROOT
BRANCH   5   9
ATOM      9  S   UNL     1      -4.710  -5.384   0.858  0.00  0.00    +0.109 S 
ATOM     10  O   UNL     1      -5.090  -4.025   0.694  0.00  0.00    -0.138 OA
ATOM     11  O   UNL     1      -5.006  -6.345  -0.146  0.00  0.00    -0.138 OA
BRANCH   9  12
ATOM     12  O   UNL     1      -5.478  -5.856   2.085  0.00  0.00    -0.347 OA
BRANCH  12  13
ATOM     13  C   UNL     1      -5.520  -4.947   3.094  0.00  0.00    +0.156 A 
ATOM     14  C   UNL     1      -4.527  -4.938   4.063  0.00  0.00    +0.048 A 
ATOM     15  C   UNL     1      -4.572  -4.012   5.087  0.00  0.00    +0.004 A 
ATOM     16  C   UNL     1      -5.606  -3.096   5.148  0.00  0.00    +0.000 A 
ATOM     17  C   UNL     1      -6.597  -3.104   4.184  0.00  0.00    +0.004 A 
ATOM     18  C   UNL     1      -6.553  -4.024   3.154  0.00  0.00    +0.048 A 
ENDBRANCH  12  13
ENDBRANCH   9  12
ENDBRANCH   5   9
BRANCH   1  19
ATOM     19  C   UNL     1       0.199  -4.659  -0.539  0.00  0.00    +0.102 C 
BRANCH  19  24
ATOM     20  C   UNL     1      -0.778   0.966  -1.431  0.00  0.00    +0.044 C 
ATOM     21  C   UNL     1      -0.523  -0.501  -1.198  0.00  0.00    -0.050 A 
ATOM     22  C   UNL     1      -0.316  -1.345  -2.273  0.00  0.00    +0.003 A 
ATOM     23  C   UNL     1      -0.082  -2.691  -2.059  0.00  0.00    +0.005 A 
ATOM     24  C   UNL     1      -0.055  -3.192  -0.771  0.00  0.00    -0.029 A 
ATOM     25  C   UNL     1      -0.262  -2.348   0.303  0.00  0.00    +0.005 A 
ATOM     26  C   UNL     1      -0.491  -1.001   0.090  0.00  0.00    +0.003 A 
ENDBRANCH  19  24
BRANCH  19  27
ATOM     27  C   UNL     1       1.663  -4.867  -0.144  0.00  0.00    +0.129 C 
BRANCH  27  28
ATOM     28  N   UNL     1       2.531  -4.450  -1.248  0.00  0.00    -0.192 NA
ATOM     29  H   UNL     1       2.362  -4.774  -2.147  0.00  0.00    +0.148 HD
BRANCH  28  30
ATOM     30  S   UNL     1       3.800  -3.426  -0.962  0.00  0.00    +0.032 S 
ATOM     31  O   UNL     1       4.383  -3.206  -2.239  0.00  0.00    -0.158 OA
ATOM     32  O   UNL     1       3.238  -2.348  -0.227  0.00  0.00    -0.158 OA
BRANCH  30  33
ATOM     33  C   UNL     1       4.936  -4.373   0.088  0.00  0.00    +0.142 C 
ATOM     34  C   UNL     1       6.174  -3.528   0.393  0.00  0.00    +0.033 C 
ATOM     35  C   UNL     1       4.234  -4.739   1.398  0.00  0.00    +0.033 C 
ENDBRANCH  30  33
ENDBRANCH  28  30
ENDBRANCH  27  28
ENDBRANCH  19  27
ENDBRANCH   1  19
TORSDOF 9
