REMARK  Name = ZINC00705313
REMARK  4 active torsions:
REMARK  status: ('A' for Active; 'I' for Inactive)
REMARK    1  A    between atoms: C_12  and  C_20
REMARK    2  A    between atoms: C_14  and  C_18
REMARK    3  A    between atoms: C_15  and  N_17
REMARK    4  A    between atoms: C_23  and  C_26
REMARK                            x       y       z     vdW  Elec       q    Type
REMARK                         _______ _______ _______ _____ _____    ______ ____
ROOT
ATOM      1  C   UNL     1      -1.206   3.549   0.032  0.00  0.00    +0.001 A 
ATOM      2  C   UNL     1       0.001   4.235   0.024  0.00  0.00    +0.004 A 
ATOM      3  C   UNL     1       1.198   3.550   0.009  0.00  0.00    +0.047 A 
ATOM      4  C   UNL     1       1.202   2.162   0.002  0.00  0.00    +0.143 A 
ATOM      5  C   UNL     1      -0.018   1.467   0.010  0.00  0.00    +0.060 A 
ATOM      6  C   UNL     1      -1.223   2.172   0.031  0.00  0.00    +0.015 A 
ATOM      7  C   UNL     1       0.002  -0.004   0.002  0.00  0.00    +0.152 A 
ATOM      8  C   UNL     1       1.212  -0.632  -0.012  0.00  0.00    +0.092 A 
ATOM      9  C   UNL     1       2.392   0.133  -0.018  0.00  0.00    +0.345 A 
ATOM     10  O   UNL     1       3.468  -0.438  -0.030  0.00  0.00    -0.245 OA
ATOM     11  O   UNL     1       2.365   1.475  -0.012  0.00  0.00    -0.422 OA
ATOM     12  C   UNL     1       1.296  -2.135  -0.021  0.00  0.00    +0.105 C 
ATOM     13  C   UNL     1      -0.022  -2.731   0.387  0.00  0.00    +0.098 C 
ATOM     14  C   UNL     1      -1.157  -1.991   0.379  0.00  0.00    +0.199 C 
ATOM     15  O   UNL     1      -1.152  -0.698   0.008  0.00  0.00    -0.440 OA
ENDROOT
BRANCH  12  16
ATOM     16  C   UNL     1       1.649  -2.606  -1.409  0.00  0.00    -0.034 A 
ATOM     17  C   UNL     1       0.806  -2.328  -2.468  0.00  0.00    +0.005 A 
ATOM     18  C   UNL     1       1.132  -2.756  -3.742  0.00  0.00    +0.012 A 
ATOM     19  C   UNL     1       2.295  -3.472  -3.954  0.00  0.00    +0.055 A 
ATOM     20  C   UNL     1       3.135  -3.755  -2.893  0.00  0.00    +0.012 A 
ATOM     21  C   UNL     1       2.812  -3.322  -1.621  0.00  0.00    +0.005 A 
BRANCH  19  22
ATOM     22  C   UNL     1       2.647  -3.944  -5.340  0.00  0.00    +0.417 C 
ATOM     23  F   UNL     1       2.103  -5.215  -5.553  0.00  0.00    -0.166 F 
ATOM     24  F   UNL     1       2.127  -3.051  -6.283  0.00  0.00    -0.166 F 
ATOM     25  F   UNL     1       4.039  -4.004  -5.473  0.00  0.00    -0.166 F 
ENDBRANCH  19  22
ENDBRANCH  12  16
BRANCH  14  26
ATOM     26  N   UNL     1      -2.339  -2.574   0.759  0.00  0.00    -0.328 N 
ATOM     27  H   UNL     1      -3.159  -2.055   0.758  0.00  0.00    +0.145 HD
ATOM     28  H   UNL     1      -2.356  -3.506   1.029  0.00  0.00    +0.145 HD
ENDBRANCH  14  26
BRANCH  13  29
ATOM     29  C   UNL     1      -0.079  -4.103   0.791  0.00  0.00    +0.101 C 
ATOM     30  N   UNL     1      -0.124  -5.192   1.112  0.00  0.00    -0.191 NA
ENDBRANCH  13  29
TORSDOF 4
