REMARK  Name = ZINC08596365
REMARK  11 active torsions:
REMARK  status: ('A' for Active; 'I' for Inactive)
REMARK    1  A    between atoms: C_1  and  C_2
REMARK    2  A    between atoms: C_2  and  O_3
REMARK    3  A    between atoms: O_3  and  C_4
REMARK    4  A    between atoms: C_4  and  C_6
REMARK    5  A    between atoms: C_10  and  N_12
REMARK    6  A    between atoms: C_13  and  C_15
REMARK    7  A    between atoms: C_15  and  C_17
REMARK    8  A    between atoms: C_15  and  N_24
REMARK    9  A    between atoms: C_17  and  C_18
REMARK   10  A    between atoms: N_24  and  S_25
REMARK   11  A    between atoms: S_25  and  C_28
REMARK                            x       y       z     vdW  Elec       q    Type
REMARK                         _______ _______ _______ _____ _____    ______ ____
ROOT
ATOM      1  C   UNL     1       3.716  -7.062   5.411  0.00  0.00    +0.167 C 
ENDROOT
BRANCH   1   3
ATOM      2  N   UNL     1       3.831  -4.699   4.690  0.00  0.00    -0.284 N 
ATOM      3  C   UNL     1       4.216  -5.649   5.565  0.00  0.00    +0.236 C 
ATOM      4  O   UNL     1       4.965  -5.366   6.476  0.00  0.00    -0.274 OA
ATOM      5  H   UNL     1       3.179  -4.908   4.003  0.00  0.00    +0.155 HD
BRANCH   2  10
ATOM      6  C   UNL     1       6.218  -1.948   5.261  0.00  0.00    +0.061 A 
ATOM      7  C   UNL     1       5.424  -0.846   4.934  0.00  0.00    +0.015 A 
ATOM      8  C   UNL     1       4.118  -1.032   4.531  0.00  0.00    +0.003 A 
ATOM      9  C   UNL     1       3.590  -2.307   4.450  0.00  0.00    +0.023 A 
ATOM     10  C   UNL     1       4.371  -3.410   4.773  0.00  0.00    +0.034 A 
ATOM     11  C   UNL     1       5.686  -3.235   5.173  0.00  0.00    +0.038 A 
BRANCH   6  12
ATOM     12  C   UNL     1       7.617  -1.752   5.692  0.00  0.00    +0.339 C 
ATOM     13  O   UNL     1       8.307  -2.712   5.971  0.00  0.00    -0.245 OA
BRANCH  12  14
ATOM     14  O   UNL     1       8.128  -0.508   5.776  0.00  0.00    -0.461 OA
BRANCH  14  16
ATOM     15  C   UNL     1       9.888   1.084   6.234  0.00  0.00    +0.048 C 
ATOM     16  C   UNL     1       9.488  -0.392   6.200  0.00  0.00    +0.229 C 
ENDBRANCH  14  16
ENDBRANCH  12  14
ENDBRANCH   6  12
ENDBRANCH   2  10
ENDBRANCH   1   3
BRANCH   1  17
ATOM     17  N   UNL     1       4.275  -7.896   6.478  0.00  0.00    -0.178 NA
ATOM     18  H   UNL     1       4.013  -7.745   7.399  0.00  0.00    +0.149 HD
BRANCH  17  19
ATOM     19  S   UNL     1       5.353  -9.098   6.110  0.00  0.00    +0.061 S 
ATOM     20  O   UNL     1       5.726  -9.700   7.342  0.00  0.00    -0.153 OA
ATOM     21  O   UNL     1       4.785  -9.841   5.041  0.00  0.00    -0.153 OA
BRANCH  19  22
ATOM     22  C   UNL     1       6.800  -8.322   5.470  0.00  0.00    +0.133 A 
ATOM     23  C   UNL     1       7.936  -8.300   6.205  0.00  0.00    +0.031 A 
ATOM     24  C   UNL     1       9.100  -7.695   5.731  0.00  0.00    +0.004 A 
ATOM     25  C   UNL     1       9.143  -7.103   4.514  0.00  0.00    +0.031 A 
ATOM     26  C   UNL     1       7.988  -7.087   3.687  0.00  0.00    +0.102 A 
ATOM     27  C   UNL     1       6.773  -7.724   4.181  0.00  0.00    +0.126 A 
ATOM     28  N   UNL     1       5.756  -7.653   3.321  0.00  0.00    -0.189 NA
ATOM     29  S   UNL     1       6.326  -6.863   2.040  0.00  0.00    +0.117 S 
ATOM     30  N   UNL     1       7.845  -6.556   2.472  0.00  0.00    -0.191 NA
ENDBRANCH  19  22
ENDBRANCH  17  19
ENDBRANCH   1  17
BRANCH   1  31
ATOM     31  C   UNL     1       2.189  -7.075   5.500  0.00  0.00    +0.065 C 
BRANCH  31  32
ATOM     32  C   UNL     1       1.681  -8.467   5.225  0.00  0.00    -0.045 A 
ATOM     33  C   UNL     1       1.383  -8.851   3.930  0.00  0.00    +0.004 A 
ATOM     34  C   UNL     1       0.918 -10.127   3.678  0.00  0.00    +0.000 A 
ATOM     35  C   UNL     1       0.751 -11.021   4.719  0.00  0.00    +0.000 A 
ATOM     36  C   UNL     1       1.049 -10.638   6.013  0.00  0.00    +0.000 A 
ATOM     37  C   UNL     1       1.519  -9.362   6.265  0.00  0.00    +0.004 A 
ENDBRANCH  31  32
ENDBRANCH   1  31
TORSDOF 10
