REMARK  Name = ZINC54369950
REMARK  14 active torsions:
REMARK  status: ('A' for Active; 'I' for Inactive)
REMARK    1  A    between atoms: C_1  and  C_2
REMARK    2  A    between atoms: C_2  and  C_3
REMARK    3  A    between atoms: C_3  and  C_4
REMARK    4  A    between atoms: C_4  and  C_5
REMARK    5  A    between atoms: C_5  and  S_6
REMARK    6  A    between atoms: S_6  and  C_7
REMARK    7  A    between atoms: C_17  and  C_19
REMARK    8  A    between atoms: C_22  and  N_25
REMARK    9  A    between atoms: N_25  and  C_26
REMARK   10  A    between atoms: N_25  and  C_28
REMARK   11  A    between atoms: C_26  and  C_27
REMARK   12  A    between atoms: C_28  and  C_29
REMARK   13  A    between atoms: C_33  and  C_35
REMARK   14  A    between atoms: C_33  and  C_36
REMARK                            x       y       z     vdW  Elec       q    Type
REMARK                         _______ _______ _______ _____ _____    ______ ____
ROOT
ATOM      1  C   UNL     1       2.402  -4.784   3.933  0.00  0.00    +0.171 A 
ATOM      2  N   UNL     1       2.844  -3.826   4.720  0.00  0.00    -0.185 NA
ATOM      3  C   UNL     1       3.512  -4.112   5.848  0.00  0.00    +0.280 A 
ATOM      4  O   UNL     1       3.918  -3.211   6.568  0.00  0.00    -0.265 OA
ATOM      5  C   UNL     1       3.744  -5.460   6.199  0.00  0.00    +0.069 A 
ATOM      6  C   UNL     1       3.285  -6.440   5.376  0.00  0.00    +0.111 A 
ATOM      7  N   UNL     1       2.604  -6.096   4.238  0.00  0.00    -0.322 N 
ATOM      8  N   UNL     1       3.504  -7.763   5.685  0.00  0.00    -0.304 N 
ATOM      9  C   UNL     1       4.480  -8.119   6.575  0.00  0.00    +0.017 C 
ATOM     10  C   UNL     1       4.980  -7.216   7.446  0.00  0.00    +0.024 C 
ATOM     11  C   UNL     1       4.479  -5.795   7.463  0.00  0.00    +0.092 C 
ATOM     12  C   UNL     1       5.980  -7.576   8.367  0.00  0.00    +0.162 C 
ATOM     13  O   UNL     1       6.422  -6.735   9.124  0.00  0.00    -0.292 OA
ATOM     14  C   UNL     1       6.512  -8.981   8.433  0.00  0.00    +0.086 C 
ATOM     15  C   UNL     1       5.421  -9.950   7.963  0.00  0.00    -0.023 C 
ATOM     16  C   UNL     1       4.984  -9.541   6.555  0.00  0.00    +0.058 C 
ATOM     17  C   UNL     1       4.225  -9.877   8.915  0.00  0.00    +0.011 C 
ATOM     18  C   UNL     1       5.976 -11.375   7.936  0.00  0.00    +0.011 C 
ATOM     19  H   UNL     1       2.960  -8.449   5.268  0.00  0.00    +0.153 HD
ATOM     20  H   UNL     1       2.268  -6.788   3.646  0.00  0.00    +0.169 HD
ENDROOT
BRANCH  11  21
ATOM     21  C   UNL     1       3.551  -5.614   8.637  0.00  0.00    -0.035 A 
ATOM     22  C   UNL     1       2.388  -6.358   8.717  0.00  0.00    +0.006 A 
ATOM     23  C   UNL     1       1.535  -6.195   9.791  0.00  0.00    +0.023 A 
ATOM     24  C   UNL     1       1.846  -5.282  10.791  0.00  0.00    +0.030 A 
ATOM     25  C   UNL     1       3.015  -4.537  10.707  0.00  0.00    +0.023 A 
ATOM     26  C   UNL     1       3.866  -4.709   9.633  0.00  0.00    +0.006 A 
BRANCH  24  27
ATOM     27  N   UNL     1       0.986  -5.114  11.878  0.00  0.00    -0.330 N 
BRANCH  27  28
ATOM     28  C   UNL     1       1.316  -4.151  12.932  0.00  0.00    +0.102 C 
ATOM     29  C   UNL     1       0.722  -2.786  12.579  0.00  0.00    +0.024 C 
ENDBRANCH  27  28
BRANCH  27  30
ATOM     30  C   UNL     1      -0.247  -5.901  11.965  0.00  0.00    +0.102 C 
ATOM     31  C   UNL     1       0.033  -7.205  12.715  0.00  0.00    +0.024 C 
ENDBRANCH  27  30
ENDBRANCH  24  27
ENDBRANCH  11  21
BRANCH   1  32
ATOM     32  S   UNL     1       1.527  -4.361   2.463  0.00  0.00    -0.088 S 
BRANCH  32  33
ATOM     33  C   UNL     1       1.503  -2.548   2.473  0.00  0.00    +0.077 C 
BRANCH  33  34
ATOM     34  C   UNL     1       0.763  -2.041   1.233  0.00  0.00    +0.011 C 
BRANCH  34  35
ATOM     35  C   UNL     1       0.742  -0.511   1.242  0.00  0.00    +0.001 C 
BRANCH  35  37
ATOM     36  C   UNL     1      -0.019   1.526   0.010  0.00  0.00    +0.004 C 
ATOM     37  C   UNL     1       0.002  -0.004   0.002  0.00  0.00    -0.003 C 
ENDBRANCH  35  37
ENDBRANCH  34  35
ENDBRANCH  33  34
ENDBRANCH  32  33
ENDBRANCH   1  32
TORSDOF 9
