REMARK  Name = ZINC29801356
REMARK  8 active torsions:
REMARK  status: ('A' for Active; 'I' for Inactive)
REMARK    1  A    between atoms: C_5  and  C_7
REMARK    2  A    between atoms: C_7  and  C_9
REMARK    3  A    between atoms: C_7  and  N_27
REMARK    4  A    between atoms: C_9  and  N_10
REMARK    5  A    between atoms: C_11  and  C_13
REMARK    6  A    between atoms: C_13  and  N_14
REMARK    7  A    between atoms: N_17  and  C_20
REMARK    8  A    between atoms: C_25  and  O_26
REMARK                            x       y       z     vdW  Elec       q    Type
REMARK                         _______ _______ _______ _____ _____    ______ ____
ROOT
ATOM      1  N   UNL     1       1.746  -3.902  -1.684  0.00  0.00    -0.315 N 
ATOM      2  C   UNL     1       2.155  -4.374  -2.878  0.00  0.00    +0.227 C 
ATOM      3  O   UNL     1       2.381  -3.605  -3.789  0.00  0.00    -0.274 OA
ATOM      4  H   UNL     1       1.565  -4.517  -0.956  0.00  0.00    +0.149 HD
ENDROOT
BRANCH   1   5
ATOM      5  C   UNL     1       1.575  -2.461  -1.485  0.00  0.00    +0.093 C 
BRANCH   5   6
ATOM      6  C   UNL     1       1.232  -2.185  -0.020  0.00  0.00    -0.019 C 
BRANCH   6  11
ATOM      7  C   UNL     1      -1.386  -4.581   1.268  0.00  0.00    +0.000 A 
ATOM      8  C   UNL     1      -2.554  -3.934   0.909  0.00  0.00    +0.001 A 
ATOM      9  C   UNL     1      -2.498  -2.721   0.249  0.00  0.00    +0.020 A 
ATOM     10  C   UNL     1      -1.272  -2.154  -0.052  0.00  0.00    +0.043 A 
ATOM     11  C   UNL     1      -0.104  -2.802   0.308  0.00  0.00    -0.041 A 
ATOM     12  C   UNL     1      -0.162  -4.015   0.967  0.00  0.00    +0.003 A 
ATOM     13 CL   UNL     1      -1.200  -0.630  -0.880  0.00  0.00    -0.083 Cl
ENDBRANCH   6  11
BRANCH   6  14
ATOM     14  N   UNL     1       2.266  -2.769   0.844  0.00  0.00    +0.385 N 
ATOM     15  C   UNL     1       3.596  -2.200   0.507  0.00  0.00    -0.078 C 
ATOM     16  C   UNL     1       4.423  -2.447   1.794  0.00  0.00    -0.020 C 
ATOM     17  C   UNL     1       3.392  -2.207   2.920  0.00  0.00    -0.020 C 
ATOM     18  C   UNL     1       2.017  -2.406   2.256  0.00  0.00    -0.078 C 
ATOM     19  H   UNL     1       2.280  -3.773   0.740  0.00  0.00    -0.081 HD
ENDBRANCH   6  14
ENDBRANCH   5   6
ENDBRANCH   1   5
BRANCH   2  20
ATOM     20  C   UNL     1       2.331  -5.856  -3.083  0.00  0.00    +0.180 C 
BRANCH  20  21
ATOM     21  N   UNL     1       2.780  -6.111  -4.458  0.00  0.00    -0.291 NA
ATOM     22  C   UNL     1       1.742  -5.738  -5.428  0.00  0.00    +0.104 C 
ATOM     23  C   UNL     1       2.311  -5.847  -6.847  0.00  0.00    +0.120 C 
ATOM     24  N   UNL     1       2.872  -7.195  -7.023  0.00  0.00    -0.325 N 
ATOM     25  C   UNL     1       3.817  -7.693  -6.013  0.00  0.00    +0.120 C 
ATOM     26  C   UNL     1       3.189  -7.512  -4.627  0.00  0.00    +0.104 C 
BRANCH  24  27
ATOM     27  C   UNL     1       2.515  -7.983  -8.124  0.00  0.00    +0.072 A 
ATOM     28  C   UNL     1       3.255  -7.917  -9.295  0.00  0.00    +0.027 A 
ATOM     29  C   UNL     1       2.901  -8.696 -10.381  0.00  0.00    +0.002 A 
ATOM     30  C   UNL     1       1.811  -9.543 -10.302  0.00  0.00    +0.004 A 
ATOM     31  C   UNL     1       1.069  -9.614  -9.138  0.00  0.00    +0.047 A 
ATOM     32  C   UNL     1       1.420  -8.840  -8.044  0.00  0.00    +0.138 A 
BRANCH  32  33
ATOM     33  O   UNL     1       0.694  -8.913  -6.896  0.00  0.00    -0.505 OA
ATOM     34  H   UNL     1      -0.043  -8.288  -6.856  0.00  0.00    +0.292 HD
ENDBRANCH  32  33
ENDBRANCH  24  27
ENDBRANCH  20  21
ENDBRANCH   2  20
TORSDOF 8
