REMARK  Name = ZINC39069723
REMARK  2 active torsions:
REMARK  status: ('A' for Active; 'I' for Inactive)
REMARK    1  A    between atoms: C_1  and  C_2
REMARK    2  A    between atoms: C_2  and  O_9
REMARK                            x       y       z     vdW  Elec       q    Type
REMARK                         _______ _______ _______ _____ _____    ______ ____
ROOT
ATOM      1  C   UNL     1      -0.018   1.503   0.010  0.00  0.00    +0.089 C 
ATOM      2  C   UNL     1       0.002  -0.004   0.002  0.00  0.00    +0.137 C 
ATOM      3  C   UNL     1       0.023  -0.707   1.204  0.00  0.00    +0.214 C 
ATOM      4  N   UNL     1       0.048  -2.051   1.347  0.00  0.00    -0.196 NA
ATOM      5  C   UNL     1       0.062  -2.304   2.641  0.00  0.00    +0.222 C 
ATOM      6  S   UNL     1       0.097  -3.902   3.381  0.00  0.00    -0.008 SA
ATOM      7  N   UNL     1       0.046  -1.137   3.294  0.00  0.00    -0.119 NA
ATOM      8  N   UNL     1       0.028  -0.176   2.436  0.00  0.00    -0.124 NA
ENDROOT
BRANCH   2   9
ATOM      9  O   UNL     1       0.000  -0.667  -1.161  0.00  0.00    -0.508 OA
ATOM     10  H   UNL     1       0.014  -1.629  -1.065  0.00  0.00    +0.292 HD
ENDBRANCH   2   9
TORSDOF 1
