REMARK  Name = ZINC00713598
REMARK  6 active torsions:
REMARK  status: ('A' for Active; 'I' for Inactive)
REMARK    1  A    between atoms: C_1  and  S_2
REMARK    2  A    between atoms: S_2  and  C_3
REMARK    3  A    between atoms: C_6  and  C_9
REMARK    4  A    between atoms: C_11  and  C_28
REMARK    5  A    between atoms: C_12  and  N_27
REMARK    6  A    between atoms: N_13  and  C_21
REMARK                            x       y       z     vdW  Elec       q    Type
REMARK                         _______ _______ _______ _____ _____    ______ ____
ROOT
ATOM      1  C   UNL     1       3.252  -1.405  -5.021  0.00  0.00    +0.097 C 
ATOM      2  C   UNL     1       1.999  -2.100  -5.466  0.00  0.00    +0.077 C 
ATOM      3  C   UNL     1       1.965  -3.448  -5.629  0.00  0.00    +0.107 C 
ATOM      4  N   UNL     1       3.093  -4.201  -5.394  0.00  0.00    -0.260 N 
ATOM      5  C   UNL     1       4.332  -3.615  -5.391  0.00  0.00    +0.024 C 
ATOM      6  C   UNL     1       4.461  -2.284  -5.216  0.00  0.00    +0.025 C 
ATOM      7  C   UNL     1       5.729  -1.675  -5.209  0.00  0.00    +0.162 C 
ATOM      8  O   UNL     1       5.811  -0.471  -5.064  0.00  0.00    -0.292 OA
ATOM      9  C   UNL     1       6.984  -2.486  -5.377  0.00  0.00    +0.080 C 
ATOM     10  C   UNL     1       6.736  -3.903  -4.846  0.00  0.00    +0.014 C 
ATOM     11  C   UNL     1       5.542  -4.494  -5.591  0.00  0.00    +0.052 C 
ENDROOT
BRANCH   1  15
ATOM     12  C   UNL     1       2.901  -0.403  -0.881  0.00  0.00    +0.008 A 
ATOM     13  C   UNL     1       3.071   0.599  -1.828  0.00  0.00    +0.015 A 
ATOM     14  C   UNL     1       3.184   0.272  -3.165  0.00  0.00    +0.005 A 
ATOM     15  C   UNL     1       3.128  -1.052  -3.561  0.00  0.00    -0.035 A 
ATOM     16  C   UNL     1       2.959  -2.052  -2.622  0.00  0.00    +0.005 A 
ATOM     17  C   UNL     1       2.852  -1.733  -1.282  0.00  0.00    +0.015 A 
BRANCH  12  19
ATOM     18  C   UNL     1       2.878   1.820   0.851  0.00  0.00    +0.090 C 
ATOM     19  S   UNL     1       2.757   0.010   0.826  0.00  0.00    -0.129 S 
ENDBRANCH  12  19
ENDBRANCH   1  15
BRANCH   4  20
ATOM     20  C   UNL     1       2.975  -5.575  -5.157  0.00  0.00    +0.040 A 
ATOM     21  C   UNL     1       2.815  -6.046  -3.860  0.00  0.00    +0.024 A 
ATOM     22  C   UNL     1       2.699  -7.403  -3.628  0.00  0.00    +0.002 A 
ATOM     23  C   UNL     1       2.740  -8.292  -4.687  0.00  0.00    +0.000 A 
ATOM     24  C   UNL     1       2.899  -7.827  -5.979  0.00  0.00    +0.002 A 
ATOM     25  C   UNL     1       3.010  -6.471  -6.218  0.00  0.00    +0.024 A 
ENDBRANCH   4  20
BRANCH   3  26
ATOM     26  N   UNL     1       0.802  -4.062  -6.029  0.00  0.00    -0.345 N 
ATOM     27  H   UNL     1      -0.016  -3.546  -6.109  0.00  0.00    +0.144 HD
ATOM     28  H   UNL     1       0.798  -5.011  -6.230  0.00  0.00    +0.144 HD
ENDBRANCH   3  26
BRANCH   2  29
ATOM     29  C   UNL     1       0.820  -1.330  -5.724  0.00  0.00    +0.099 C 
ATOM     30  N   UNL     1      -0.116  -0.719  -5.928  0.00  0.00    -0.191 NA
ENDBRANCH   2  29
TORSDOF 5
