REMARK  Name = ZINC41586163
REMARK  9 active torsions:
REMARK  status: ('A' for Active; 'I' for Inactive)
REMARK    1  A    between atoms: C_1  and  C_2
REMARK    2  A    between atoms: C_2  and  O_3
REMARK    3  A    between atoms: O_3  and  C_4
REMARK    4  A    between atoms: C_4  and  C_6
REMARK    5  A    between atoms: N_9  and  C_12
REMARK    6  A    between atoms: C_12  and  C_13
REMARK    7  A    between atoms: C_14  and  O_32
REMARK    8  A    between atoms: C_16  and  C_31
REMARK    9  A    between atoms: C_21  and  C_22
REMARK                            x       y       z     vdW  Elec       q    Type
REMARK                         _______ _______ _______ _____ _____    ______ ____
ROOT
ATOM      1  C   UNL     1       1.837  -6.165   6.040  0.00  0.00    +0.020 A 
ATOM      2  C   UNL     1       0.852  -6.737   6.830  0.00  0.00    +0.122 A 
ATOM      3  C   UNL     1       0.877  -8.098   7.120  0.00  0.00    +0.050 A 
ATOM      4  C   UNL     1       1.878  -8.886   6.625  0.00  0.00    -0.033 A 
ATOM      5  C   UNL     1       2.876  -8.325   5.828  0.00  0.00    +0.071 A 
ATOM      6  C   UNL     1       2.858  -6.953   5.525  0.00  0.00    +0.145 A 
ATOM      7  O   UNL     1       3.913  -6.646   4.739  0.00  0.00    -0.451 OA
ATOM      8  C   UNL     1       4.672  -7.734   4.468  0.00  0.00    +0.176 C 
ATOM      9  C   UNL     1       5.797  -7.758   3.709  0.00  0.00    +0.061 C 
ATOM     10  C   UNL     1       4.064  -8.883   5.157  0.00  0.00    +0.232 C 
ATOM     11  O   UNL     1       4.448 -10.039   5.160  0.00  0.00    -0.283 OA
ATOM     12  C   UNL     1       1.904 -10.360   6.941  0.00  0.00    +0.045 C 
ENDROOT
BRANCH   9  13
ATOM     13  C   UNL     1       6.422  -9.041   3.363  0.00  0.00    +0.014 A 
ATOM     14  C   UNL     1       5.630 -10.133   2.990  0.00  0.00    +0.011 A 
ATOM     15  C   UNL     1       6.224 -11.333   2.667  0.00  0.00    +0.001 A 
ATOM     16  C   UNL     1       7.602 -11.463   2.710  0.00  0.00    +0.003 A 
ATOM     17  C   UNL     1       8.395 -10.391   3.078  0.00  0.00    +0.039 A 
ATOM     18  C   UNL     1       7.817  -9.178   3.399  0.00  0.00    +0.131 A 
ATOM     19  F   UNL     1       8.592  -8.129   3.752  0.00  0.00    -0.205 F 
ENDBRANCH   9  13
BRANCH   2  20
ATOM     20  O   UNL     1      -0.146  -5.962   7.327  0.00  0.00    -0.506 OA
ATOM     21  H   UNL     1      -0.920  -5.899   6.750  0.00  0.00    +0.292 HD
ENDBRANCH   2  20
BRANCH   1  22
ATOM     22  C   UNL     1       1.796  -4.690   5.736  0.00  0.00    -0.036 C 
BRANCH  22  26
ATOM     23  C   UNL     1       0.654  -3.432   1.828  0.00  0.00    +0.094 C 
ATOM     24  C   UNL     1       0.001  -2.779   3.050  0.00  0.00    -0.004 C 
ATOM     25  C   UNL     1       0.879  -3.021   4.280  0.00  0.00    -0.078 C 
ATOM     26  N   UNL     1       1.019  -4.464   4.510  0.00  0.00    +0.383 N 
ATOM     27  C   UNL     1       1.708  -5.085   3.373  0.00  0.00    -0.078 C 
ATOM     28  C   UNL     1       0.863  -4.923   2.108  0.00  0.00    -0.004 C 
ATOM     29  H   UNL     1       0.104  -4.877   4.614  0.00  0.00    -0.081 HD
BRANCH  23  30
ATOM     30  C   UNL     1      -0.243  -3.265   0.629  0.00  0.00    +0.310 C 
ATOM     31  O   UNL     1      -0.672  -4.238   0.055  0.00  0.00    -0.251 OA
BRANCH  30  32
ATOM     32  O   UNL     1      -0.565  -2.036   0.197  0.00  0.00    -0.465 OA
BRANCH  32  34
ATOM     33  C   UNL     1      -1.673  -0.482  -1.286  0.00  0.00    +0.048 C 
ATOM     34  C   UNL     1      -1.419  -1.952  -0.945  0.00  0.00    +0.229 C 
ENDBRANCH  32  34
ENDBRANCH  30  32
ENDBRANCH  23  30
ENDBRANCH  22  26
ENDBRANCH   1  22
TORSDOF 7
