REMARK  Name = ZINC39671757
REMARK  11 active torsions:
REMARK  status: ('A' for Active; 'I' for Inactive)
REMARK    1  A    between atoms: C_1  and  C_2
REMARK    2  A    between atoms: C_2  and  C_3
REMARK    3  A    between atoms: C_3  and  C_5
REMARK    4  A    between atoms: C_3  and  C_11
REMARK    5  A    between atoms: C_15  and  C_24
REMARK    6  A    between atoms: N_26  and  C_27
REMARK    7  A    between atoms: C_27  and  C_28
REMARK    8  A    between atoms: C_28  and  C_29
REMARK    9  A    between atoms: C_29  and  N_30
REMARK   10  A    between atoms: C_31  and  C_36
REMARK   11  A    between atoms: C_33  and  C_35
REMARK                            x       y       z     vdW  Elec       q    Type
REMARK                         _______ _______ _______ _____ _____    ______ ____
ROOT
ATOM      1  C   UNL     1       0.139  -0.044   2.302  0.00  0.00    +0.223 C 
ATOM      2  O   UNL     1      -0.087  -0.862   3.169  0.00  0.00    -0.275 OA
ATOM      3  N   UNL     1      -0.160   1.254   2.506  0.00  0.00    -0.300 N 
ATOM      4  C   UNL     1       0.120   2.402   1.611  0.00  0.00    +0.121 C 
ATOM      5  C   UNL     1      -1.138   3.293   1.714  0.00  0.00    +0.100 C 
ATOM      6  C   UNL     1      -1.764   2.932   3.072  0.00  0.00    -0.004 C 
ATOM      7  C   UNL     1      -0.849   1.856   3.672  0.00  0.00    +0.115 C 
ATOM      8  C   UNL     1      -3.169   2.371   2.873  0.00  0.00    -0.010 C 
ATOM      9  C   UNL     1      -3.792   2.072   4.239  0.00  0.00    -0.082 C 
ATOM     10  N   UNL     1      -3.845   3.305   5.035  0.00  0.00    +0.379 N 
ATOM     11  C   UNL     1      -2.484   3.788   5.300  0.00  0.00    -0.082 C 
ATOM     12  C   UNL     1      -1.805   4.159   3.978  0.00  0.00    -0.010 C 
ATOM     13  H   UNL     1      -4.357   4.010   4.526  0.00  0.00    -0.086 HD
ATOM     14  H   UNL     1      -4.311   3.120   5.910  0.00  0.00    -0.086 HD
ENDROOT
BRANCH   5  15
ATOM     15  C   UNL     1      -0.753   4.750   1.683  0.00  0.00    +0.218 C 
ATOM     16  O   UNL     1       0.339   5.097   2.082  0.00  0.00    -0.275 OA
ATOM     17  N   UNL     1      -1.621   5.666   1.210  0.00  0.00    -0.315 N 
ATOM     18  H   UNL     1      -2.493   5.388   0.891  0.00  0.00    +0.149 HD
BRANCH  17  19
ATOM     19  C   UNL     1      -1.246   7.082   1.179  0.00  0.00    +0.106 C 
BRANCH  19  20
ATOM     20  C   UNL     1      -2.402   7.903   0.603  0.00  0.00    +0.042 C 
BRANCH  20  21
ATOM     21  C   UNL     1      -2.011   9.382   0.570  0.00  0.00    +0.145 C 
BRANCH  21  22
ATOM     22  N   UNL     1      -3.117  10.167   0.018  0.00  0.00    -0.268 N 
ATOM     23  C   UNL     1      -3.311  10.459  -1.286  0.00  0.00    +0.036 A 
ATOM     24  C   UNL     1      -4.439  11.200  -1.379  0.00  0.00    +0.047 A 
ATOM     25  C   UNL     1      -4.952  11.368  -0.089  0.00  0.00    +0.060 A 
ATOM     26  N   UNL     1      -4.164  10.744   0.749  0.00  0.00    -0.176 NA
ATOM     27  C   UNL     1      -6.201  12.129   0.273  0.00  0.00    +0.067 C 
ATOM     28  C   UNL     1      -2.429  10.034  -2.431  0.00  0.00    +0.065 C 
ENDBRANCH  21  22
ENDBRANCH  20  21
ENDBRANCH  19  20
ENDBRANCH  17  19
ENDBRANCH   5  15
BRANCH   1  29
ATOM     29  C   UNL     1       0.754  -0.480   0.997  0.00  0.00    +0.105 C 
BRANCH  29  30
ATOM     30  C   UNL     1       2.256  -0.483   1.126  0.00  0.00    -0.036 A 
ATOM     31  C   UNL     1       2.867  -1.292   2.065  0.00  0.00    +0.004 A 
ATOM     32  C   UNL     1       4.245  -1.295   2.183  0.00  0.00    +0.000 A 
ATOM     33  C   UNL     1       5.010  -0.488   1.362  0.00  0.00    +0.000 A 
ATOM     34  C   UNL     1       4.399   0.320   0.422  0.00  0.00    +0.000 A 
ATOM     35  C   UNL     1       3.021   0.320   0.301  0.00  0.00    +0.004 A 
ENDBRANCH  29  30
BRANCH  29  37
ATOM     36  C   UNL     1      -1.236  -1.859   0.380  0.00  0.00    +0.005 C 
ATOM     37  C   UNL     1       0.269  -1.889   0.650  0.00  0.00    +0.014 C 
ENDBRANCH  29  37
ENDBRANCH   1  29
TORSDOF 8
