REMARK  Name = ZINC08451237
REMARK  8 active torsions:
REMARK  status: ('A' for Active; 'I' for Inactive)
REMARK    1  A    between atoms: C_1  and  C_2
REMARK    2  A    between atoms: C_2  and  C_3
REMARK    3  A    between atoms: C_2  and  C_4
REMARK    4  A    between atoms: C_2  and  C_5
REMARK    5  A    between atoms: C_7  and  C_27
REMARK    6  A    between atoms: C_9  and  N_26
REMARK    7  A    between atoms: C_10  and  C_14
REMARK    8  A    between atoms: C_14  and  C_16
REMARK                            x       y       z     vdW  Elec       q    Type
REMARK                         _______ _______ _______ _____ _____    ______ ____
ROOT
ATOM      1  C   UNL     1      -0.018   1.503   0.010  0.00  0.00    +0.048 A 
ATOM      2  C   UNL     1       1.176   2.208   0.003  0.00  0.00    +0.037 A 
ATOM      3  C   UNL     1       1.172   3.583   0.010  0.00  0.00    +0.068 A 
ATOM      4  C   UNL     1      -0.070   4.266   0.026  0.00  0.00    +0.041 A 
ATOM      5  C   UNL     1      -0.316   5.699   0.036  0.00  0.00    +0.052 A 
ATOM      6  C   UNL     1      -1.629   6.137   0.051  0.00  0.00    +0.078 A 
ATOM      7  S   UNL     1      -2.567   4.622   0.052  0.00  0.00    -0.064 S 
ATOM      8  C   UNL     1      -1.228   3.457   0.032  0.00  0.00    +0.111 A 
ATOM      9  N   UNL     1      -1.172   2.142   0.019  0.00  0.00    -0.244 NA
ENDROOT
BRANCH   1  11
ATOM     10  C   UNL     1       0.396  -0.516   1.389  0.00  0.00    +0.017 C 
ATOM     11  C   UNL     1       0.002  -0.004   0.002  0.00  0.00    +0.005 C 
ATOM     12  C   UNL     1      -1.388  -0.531  -0.361  0.00  0.00    +0.017 C 
ATOM     13  C   UNL     1       1.019  -0.495  -1.030  0.00  0.00    +0.017 C 
ENDBRANCH   1  11
BRANCH   3  14
ATOM     14  C   UNL     1       2.469   4.351   0.002  0.00  0.00    +0.418 C 
ATOM     15  F   UNL     1       3.542   3.455  -0.012  0.00  0.00    -0.166 F 
ATOM     16  F   UNL     1       2.523   5.163  -1.136  0.00  0.00    -0.166 F 
ATOM     17  F   UNL     1       2.544   5.150   1.148  0.00  0.00    -0.166 F 
ENDBRANCH   3  14
BRANCH   5  18
ATOM     18  N   UNL     1       0.734   6.601   0.032  0.00  0.00    -0.356 N 
ATOM     19  H   UNL     1       1.649   6.280   0.021  0.00  0.00    +0.142 HD
ATOM     20  H   UNL     1       0.555   7.554   0.039  0.00  0.00    +0.142 HD
ENDBRANCH   5  18
BRANCH   6  21
ATOM     21  C   UNL     1      -2.107   7.458   0.064  0.00  0.00    +0.178 C 
ATOM     22  O   UNL     1      -1.323   8.387   0.062  0.00  0.00    -0.291 OA
BRANCH  21  23
ATOM     23  C   UNL     1      -3.590   7.722   0.080  0.00  0.00    +0.035 C 
ATOM     24  C   UNL     1      -4.207   7.094   1.331  0.00  0.00    +0.018 C 
ATOM     25  C   UNL     1      -5.713   7.363   1.347  0.00  0.00    -0.010 C 
ATOM     26  C   UNL     1      -5.962   8.873   1.359  0.00  0.00    +0.007 C 
ATOM     27  C   UNL     1      -5.345   9.501   0.107  0.00  0.00    -0.010 C 
ATOM     28  C   UNL     1      -3.839   9.232   0.091  0.00  0.00    +0.018 C 
ATOM     29  C   UNL     1      -5.986   8.888  -1.139  0.00  0.00    +0.007 C 
ATOM     30  C   UNL     1      -5.737   7.378  -1.151  0.00  0.00    -0.010 C 
ATOM     31  C   UNL     1      -6.354   6.750   0.101  0.00  0.00    +0.007 C 
ATOM     32  C   UNL     1      -4.231   7.109  -1.167  0.00  0.00    +0.018 C 
ENDBRANCH  21  23
ENDBRANCH   6  21
TORSDOF 5
