REMARK  Name = ZINC15108089
REMARK  4 active torsions:
REMARK  status: ('A' for Active; 'I' for Inactive)
REMARK    1  A    between atoms: C_1  and  C_2
REMARK    2  A    between atoms: C_3  and  C_21
REMARK    3  A    between atoms: C_4  and  C_16
REMARK    4  A    between atoms: C_21  and  C_23
REMARK                            x       y       z     vdW  Elec       q    Type
REMARK                         _______ _______ _______ _____ _____    ______ ____
ROOT
ATOM      1  C   UNL     1      -0.018   1.503   0.010  0.00  0.00    +0.066 C 
ATOM      2  C   UNL     1       0.002  -0.004   0.002  0.00  0.00    +0.050 C 
ATOM      3  C   UNL     1      -1.196  -0.698   0.004  0.00  0.00    +0.044 C 
ATOM      4  C   UNL     1      -1.112  -2.213  -0.005  0.00  0.00    +0.182 C 
ATOM      5  N   UNL     1       0.242  -2.789  -0.015  0.00  0.00    -0.256 N 
ATOM      6  C   UNL     1       0.697  -4.101  -0.026  0.00  0.00    +0.059 A 
ATOM      7  C   UNL     1       0.051  -5.330  -0.031  0.00  0.00    +0.025 A 
ATOM      8  C   UNL     1       0.791  -6.495  -0.043  0.00  0.00    +0.002 A 
ATOM      9  C   UNL     1       2.175  -6.444  -0.049  0.00  0.00    +0.002 A 
ATOM     10  C   UNL     1       2.826  -5.227  -0.044  0.00  0.00    +0.025 A 
ATOM     11  C   UNL     1       2.092  -4.049  -0.033  0.00  0.00    +0.055 A 
ATOM     12  N   UNL     1       2.453  -2.707  -0.026  0.00  0.00    -0.285 N 
ATOM     13  C   UNL     1       1.314  -1.951  -0.016  0.00  0.00    +0.193 C 
ATOM     14  N   UNL     1       1.163  -0.634  -0.012  0.00  0.00    -0.222 NA
ATOM     15  H   UNL     1       3.360  -2.364  -0.028  0.00  0.00    +0.155 HD
ENDROOT
BRANCH   4  16
ATOM     16  C   UNL     1      -1.828  -2.730   1.216  0.00  0.00    +0.130 A 
ATOM     17  C   UNL     1      -3.076  -3.230   1.243  0.00  0.00    +0.047 A 
ATOM     18  C   UNL     1      -3.344  -3.592   2.584  0.00  0.00    +0.041 A 
ATOM     19  C   UNL     1      -2.243  -3.291   3.295  0.00  0.00    +0.195 A 
ATOM     20  O   UNL     1      -1.326  -2.775   2.461  0.00  0.00    -0.466 OA
ENDBRANCH   4  16
BRANCH   3  21
ATOM     21  C   UNL     1      -2.421  -0.036   0.014  0.00  0.00    +0.160 C 
ATOM     22  O   UNL     1      -2.456   1.180   0.022  0.00  0.00    -0.293 OA
ATOM     23  C   UNL     1      -3.705  -0.826   0.016  0.00  0.00    +0.091 C 
ENDBRANCH   3  21
TORSDOF 2
