REMARK  Name = ZINC04754204
REMARK  3 active torsions:
REMARK  status: ('A' for Active; 'I' for Inactive)
REMARK    1  A    between atoms: C_6  and  C_7
REMARK    2  A    between atoms: N_13  and  C_15
REMARK    3  A    between atoms: C_15  and  C_16
REMARK                            x       y       z     vdW  Elec       q    Type
REMARK                         _______ _______ _______ _____ _____    ______ ____
ROOT
ATOM      1  C   UNL     1      -0.014   1.212   0.009  0.00  0.00    +0.249 C 
ATOM      2  O   UNL     1       0.002  -0.004   0.002  0.00  0.00    -0.270 OA
ATOM      3  N   UNL     1      -1.191   1.870   0.018  0.00  0.00    -0.265 N 
ATOM      4  C   UNL     1      -2.394   1.153   0.020  0.00  0.00    +0.147 A 
ATOM      5  C   UNL     1      -2.522  -0.245   0.007  0.00  0.00    +0.065 A 
ATOM      6  C   UNL     1      -3.841  -0.542   0.016  0.00  0.00    +0.110 A 
ATOM      7  N   UNL     1      -4.527   0.620   0.026  0.00  0.00    -0.265 N 
ATOM      8  N   UNL     1      -3.600   1.671   0.028  0.00  0.00    -0.156 NA
ATOM      9  H   UNL     1      -1.204   2.840   0.023  0.00  0.00    +0.157 HD
ENDROOT
BRANCH   1  15
ATOM     10  C   UNL     1       1.236   3.364   0.003  0.00  0.00    +0.017 A 
ATOM     11  C   UNL     1       2.421   4.067   0.001  0.00  0.00    +0.050 A 
ATOM     12  C   UNL     1       3.635   3.393  -0.014  0.00  0.00    +0.166 A 
ATOM     13  C   UNL     1       3.658   1.997  -0.022  0.00  0.00    +0.167 A 
ATOM     14  C   UNL     1       2.474   1.286  -0.015  0.00  0.00    +0.062 A 
ATOM     15  C   UNL     1       1.254   1.967   0.001  0.00  0.00    +0.041 A 
ATOM     16  O   UNL     1       4.960   1.584  -0.037  0.00  0.00    -0.453 OA
ATOM     17  C   UNL     1       5.722   2.733  -0.451  0.00  0.00    +0.466 C 
ATOM     18  O   UNL     1       4.920   3.849  -0.023  0.00  0.00    -0.453 OA
ENDBRANCH   1  15
BRANCH   7  19
ATOM     19  C   UNL     1      -5.985   0.759   0.032  0.00  0.00    +0.180 C 
BRANCH  19  20
ATOM     20  C   UNL     1      -6.403   1.611   1.202  0.00  0.00    -0.008 A 
ATOM     21  C   UNL     1      -6.791   1.015   2.388  0.00  0.00    +0.008 A 
ATOM     22  C   UNL     1      -7.169   1.796   3.463  0.00  0.00    +0.020 A 
ATOM     23  C   UNL     1      -7.171   3.176   3.350  0.00  0.00    +0.042 A 
ATOM     24  C   UNL     1      -6.789   3.772   2.163  0.00  0.00    +0.040 A 
ATOM     25  C   UNL     1      -6.405   2.990   1.088  0.00  0.00    +0.047 A 
ATOM     26 CL   UNL     1      -5.925   3.739  -0.403  0.00  0.00    -0.083 Cl
ATOM     27 CL   UNL     1      -7.654   4.156   4.699  0.00  0.00    -0.083 Cl
ENDBRANCH  19  20
ENDBRANCH   7  19
TORSDOF 3
