REMARK  Name = ZINC39596098
REMARK  8 active torsions:
REMARK  status: ('A' for Active; 'I' for Inactive)
REMARK    1  A    between atoms: C_1  and  C_2
REMARK    2  A    between atoms: C_5  and  C_10
REMARK    3  A    between atoms: C_14  and  C_23
REMARK    4  A    between atoms: N_25  and  C_26
REMARK    5  A    between atoms: C_26  and  C_27
REMARK    6  A    between atoms: C_27  and  C_29
REMARK    7  A    between atoms: C_27  and  O_30
REMARK    8  A    between atoms: O_30  and  C_31
REMARK                            x       y       z     vdW  Elec       q    Type
REMARK                         _______ _______ _______ _____ _____    ______ ____
ROOT
ATOM      1  C   UNL     1      -0.888  -3.107  -0.657  0.00  0.00    +0.250 C 
ATOM      2  O   UNL     1      -0.944  -3.558   0.471  0.00  0.00    -0.270 OA
ATOM      3  N   UNL     1      -0.866  -3.941  -1.715  0.00  0.00    -0.296 N 
ATOM      4  C   UNL     1      -0.695  -3.591  -3.145  0.00  0.00    +0.121 C 
ATOM      5  C   UNL     1       0.208  -4.707  -3.715  0.00  0.00    +0.100 C 
ATOM      6  C   UNL     1      -0.005  -5.904  -2.772  0.00  0.00    -0.004 C 
ATOM      7  C   UNL     1      -1.003  -5.418  -1.712  0.00  0.00    +0.115 C 
ATOM      8  C   UNL     1       1.312  -6.293  -2.108  0.00  0.00    -0.010 C 
ATOM      9  C   UNL     1       1.087  -7.520  -1.220  0.00  0.00    -0.082 C 
ATOM     10  N   UNL     1       0.579  -8.630  -2.035  0.00  0.00    +0.379 N 
ATOM     11  C   UNL     1      -0.732  -8.282  -2.595  0.00  0.00    -0.082 C 
ATOM     12  C   UNL     1      -0.583  -7.087  -3.542  0.00  0.00    -0.010 C 
ATOM     13  H   UNL     1       1.226  -8.817  -2.786  0.00  0.00    -0.086 HD
ATOM     14  H   UNL     1       0.489  -9.454  -1.460  0.00  0.00    -0.086 HD
ENDROOT
BRANCH   1  19
ATOM     15  C   UNL     1      -0.717   2.587  -1.481  0.00  0.00    +0.047 C 
ATOM     16  C   UNL     1      -0.760   1.097  -1.264  0.00  0.00    -0.012 A 
ATOM     17  C   UNL     1      -1.420   0.287  -2.172  0.00  0.00    +0.007 A 
ATOM     18  C   UNL     1      -1.465  -1.078  -1.981  0.00  0.00    +0.016 A 
ATOM     19  C   UNL     1      -0.842  -1.646  -0.867  0.00  0.00    +0.075 A 
ATOM     20  C   UNL     1      -0.176  -0.826   0.048  0.00  0.00    +0.171 A 
ATOM     21  C   UNL     1      -0.135   0.544  -0.160  0.00  0.00    +0.162 A 
ATOM     22  F   UNL     1       0.513   1.340   0.718  0.00  0.00    -0.202 F 
ATOM     23  F   UNL     1       0.429  -1.366   1.128  0.00  0.00    -0.202 F 
ENDBRANCH   1  19
BRANCH   5  24
ATOM     24  C   UNL     1      -0.216  -5.060  -5.118  0.00  0.00    +0.218 C 
ATOM     25  O   UNL     1      -1.368  -4.898  -5.462  0.00  0.00    -0.275 OA
ATOM     26  N   UNL     1       0.684  -5.555  -5.990  0.00  0.00    -0.312 N 
ATOM     27  H   UNL     1       1.606  -5.684  -5.715  0.00  0.00    +0.149 HD
BRANCH  26  28
ATOM     28  C   UNL     1       0.272  -5.898  -7.353  0.00  0.00    +0.148 C 
BRANCH  28  29
ATOM     29  C   UNL     1       1.476  -6.434  -8.130  0.00  0.00    +0.187 C 
ATOM     30  C   UNL     1       1.045  -6.792  -9.554  0.00  0.00    +0.053 C 
BRANCH  29  31
ATOM     31  O   UNL     1       2.496  -5.434  -8.178  0.00  0.00    -0.488 OA
BRANCH  31  32
ATOM     32  C   UNL     1       3.774  -5.864  -8.349  0.00  0.00    +0.121 A 
ATOM     33  C   UNL     1       4.825  -4.961  -8.284  0.00  0.00    +0.048 A 
ATOM     34  C   UNL     1       6.123  -5.400  -8.458  0.00  0.00    +0.042 A 
ATOM     35  C   UNL     1       6.376  -6.740  -8.697  0.00  0.00    +0.124 A 
ATOM     36  C   UNL     1       5.328  -7.642  -8.764  0.00  0.00    +0.042 A 
ATOM     37  C   UNL     1       4.029  -7.207  -8.583  0.00  0.00    +0.048 A 
ATOM     38  F   UNL     1       7.646  -7.167  -8.868  0.00  0.00    -0.205 F 
ENDBRANCH  31  32
ENDBRANCH  29  31
ENDBRANCH  28  29
ENDBRANCH  26  28
ENDBRANCH   5  24
TORSDOF 6
