REMARK  Name = ZINC19392772
REMARK  9 active torsions:
REMARK  status: ('A' for Active; 'I' for Inactive)
REMARK    1  A    between atoms: C_1  and  C_2
REMARK    2  A    between atoms: C_2  and  O_3
REMARK    3  A    between atoms: O_3  and  C_4
REMARK    4  A    between atoms: C_4  and  C_6
REMARK    5  A    between atoms: C_7  and  C_19
REMARK    6  A    between atoms: C_12  and  C_14
REMARK    7  A    between atoms: C_19  and  S_20
REMARK    8  A    between atoms: S_20  and  C_21
REMARK    9  A    between atoms: C_29  and  C_31
REMARK                            x       y       z     vdW  Elec       q    Type
REMARK                         _______ _______ _______ _____ _____    ______ ____
ROOT
ATOM      1  C   UNL     1       3.610  -6.276   1.090  0.00  0.00    +0.082 C 
ATOM      2  C   UNL     1       3.127  -5.816  -0.085  0.00  0.00    +0.034 C 
ATOM      3  N   UNL     1       3.756  -6.096  -1.264  0.00  0.00    -0.272 N 
ATOM      4  C   UNL     1       4.879  -6.820  -1.353  0.00  0.00    +0.304 C 
ATOM      5  O   UNL     1       5.370  -7.011  -2.448  0.00  0.00    -0.252 OA
ATOM      6  N   UNL     1       5.481  -7.347  -0.268  0.00  0.00    -0.285 N 
ATOM      7  C   UNL     1       4.877  -7.107   1.054  0.00  0.00    +0.179 C 
ATOM      8  H   UNL     1       3.342  -5.720  -2.211  0.00  0.00    +0.156 HD
ATOM      9  H   UNL     1       6.401  -7.944  -0.352  0.00  0.00    +0.151 HD
ENDROOT
BRANCH   7  10
ATOM     10  C   UNL     1       5.905  -6.424   1.917  0.00  0.00    +0.130 A 
ATOM     11  C   UNL     1       6.224  -6.764   3.179  0.00  0.00    +0.047 A 
ATOM     12  C   UNL     1       7.229  -5.864   3.604  0.00  0.00    +0.041 A 
ATOM     13  C   UNL     1       7.464  -5.029   2.577  0.00  0.00    +0.195 A 
ATOM     14  O   UNL     1       6.664  -5.376   1.556  0.00  0.00    -0.466 OA
ENDBRANCH   7  10
BRANCH   1  15
ATOM     15  C   UNL     1       2.957  -5.992   2.311  0.00  0.00    +0.339 C 
ATOM     16  O   UNL     1       2.257  -6.836   2.838  0.00  0.00    -0.245 OA
BRANCH  15  17
ATOM     17  O   UNL     1       3.110  -4.784   2.893  0.00  0.00    -0.462 OA
BRANCH  17  19
ATOM     18  C   UNL     1       2.713  -3.150   4.629  0.00  0.00    +0.048 C 
ATOM     19  C   UNL     1       2.421  -4.565   4.125  0.00  0.00    +0.229 C 
ENDBRANCH  17  19
ENDBRANCH  15  17
ENDBRANCH   1  15
BRANCH   2  20
ATOM     20  C   UNL     1       1.869  -4.987  -0.094  0.00  0.00    +0.127 C 
BRANCH  20  21
ATOM     21  S   UNL     1       2.296  -3.248  -0.361  0.00  0.00    -0.099 S 
BRANCH  21  22
ATOM     22  C   UNL     1       0.687  -2.530  -0.328  0.00  0.00    +0.109 A 
ATOM     23  C   UNL     1       0.509  -1.134  -0.500  0.00  0.00    +0.032 A 
ATOM     24  C   UNL     1       1.587  -0.266  -0.704  0.00  0.00    +0.012 A 
ATOM     25  C   UNL     1       1.354   1.068  -0.864  0.00  0.00    +0.001 A 
ATOM     26  C   UNL     1       0.059   1.577  -0.828  0.00  0.00    +0.002 A 
ATOM     27  C   UNL     1      -1.013   0.757  -0.631  0.00  0.00    +0.028 A 
ATOM     28  C   UNL     1      -0.809  -0.619  -0.463  0.00  0.00    +0.076 A 
ATOM     29  N   UNL     1      -1.829  -1.469  -0.267  0.00  0.00    -0.224 NA
ATOM     30  C   UNL     1      -1.605  -2.753  -0.114  0.00  0.00    +0.236 A 
ATOM     31  N   UNL     1      -0.391  -3.280  -0.140  0.00  0.00    -0.217 NA
BRANCH  30  32
ATOM     32  C   UNL     1      -2.782  -3.667   0.104  0.00  0.00    +0.452 C 
ATOM     33  F   UNL     1      -2.331  -4.904   0.579  0.00  0.00    -0.163 F 
ATOM     34  F   UNL     1      -3.650  -3.096   1.042  0.00  0.00    -0.163 F 
ATOM     35  F   UNL     1      -3.459  -3.852  -1.106  0.00  0.00    -0.163 F 
ENDBRANCH  30  32
ENDBRANCH  21  22
ENDBRANCH  20  21
ENDBRANCH   2  20
TORSDOF 8
