REMARK  Name = ZINC00648624
REMARK  10 active torsions:
REMARK  status: ('A' for Active; 'I' for Inactive)
REMARK    1  A    between atoms: C_1  and  C_2
REMARK    2  A    between atoms: C_2  and  C_33
REMARK    3  A    between atoms: C_6  and  C_16
REMARK    4  A    between atoms: C_8  and  C_12
REMARK    5  A    between atoms: C_9  and  N_11
REMARK    6  A    between atoms: C_12  and  O_14
REMARK    7  A    between atoms: O_14  and  C_15
REMARK    8  A    between atoms: C_19  and  C_21
REMARK    9  A    between atoms: C_21  and  O_22
REMARK   10  A    between atoms: O_22  and  C_23
REMARK                            x       y       z     vdW  Elec       q    Type
REMARK                         _______ _______ _______ _____ _____    ______ ____
ROOT
ATOM      1  C   UNL     1       6.890  11.975   3.160  0.00  0.00    +0.012 C 
ATOM      2  C   UNL     1       5.543  11.501   3.710  0.00  0.00    -0.021 C 
ATOM      3  C   UNL     1       5.752  10.263   4.584  0.00  0.00    +0.081 C 
ATOM      4  C   UNL     1       6.348   9.150   3.754  0.00  0.00    +0.115 C 
ATOM      5  C   UNL     1       6.064   9.043   2.444  0.00  0.00    +0.048 C 
ATOM      6  C   UNL     1       6.649   7.921   1.619  0.00  0.00    +0.133 C 
ATOM      7  C   UNL     1       7.138   6.820   2.519  0.00  0.00    +0.108 C 
ATOM      8  C   UNL     1       7.367   7.061   3.836  0.00  0.00    +0.195 C 
ATOM      9  O   UNL     1       7.169   8.276   4.368  0.00  0.00    -0.446 OA
ATOM     10  C   UNL     1       5.220   9.969   1.800  0.00  0.00    +0.164 C 
ATOM     11  O   UNL     1       4.974   9.830   0.618  0.00  0.00    -0.292 OA
ATOM     12  C   UNL     1       4.617  11.126   2.549  0.00  0.00    +0.086 C 
ATOM     13  C   UNL     1       4.904  12.618   4.537  0.00  0.00    +0.012 C 
ENDROOT
BRANCH   6  14
ATOM     14  C   UNL     1       5.591   7.378   0.694  0.00  0.00    +0.118 A 
ATOM     15  C   UNL     1       5.657   7.355  -0.649  0.00  0.00    +0.046 A 
ATOM     16  C   UNL     1       4.458   6.763  -1.109  0.00  0.00    +0.048 A 
ATOM     17  C   UNL     1       3.731   6.460  -0.018  0.00  0.00    +0.142 A 
ATOM     18  O   UNL     1       4.419   6.839   1.070  0.00  0.00    -0.460 OA
BRANCH  17  19
ATOM     19  C   UNL     1       2.371   5.810  -0.019  0.00  0.00    +0.303 C 
BRANCH  19  20
ATOM     20  O   UNL     1       2.522   4.389   0.030  0.00  0.00    -0.484 OA
BRANCH  20  21
ATOM     21  C   UNL     1       1.383   3.648   0.036  0.00  0.00    +0.122 A 
ATOM     22  C   UNL     1       0.146   4.274  -0.004  0.00  0.00    +0.046 A 
ATOM     23  C   UNL     1      -1.011   3.519   0.003  0.00  0.00    +0.005 A 
ATOM     24  C   UNL     1      -0.936   2.139   0.043  0.00  0.00    +0.015 A 
ATOM     25  C   UNL     1       0.296   1.512   0.088  0.00  0.00    +0.021 A 
ATOM     26  C   UNL     1       1.456   2.264   0.082  0.00  0.00    +0.061 A 
ATOM     27 BR   UNL     1       0.394  -0.376   0.151  0.00  0.00    -0.050 Br
ENDBRANCH  20  21
ENDBRANCH  19  20
ENDBRANCH  17  19
ENDBRANCH   6  14
BRANCH   8  28
ATOM     28  N   UNL     1       7.808   6.042   4.637  0.00  0.00    -0.329 N 
ATOM     29  H   UNL     1       7.478   5.140   4.501  0.00  0.00    +0.145 HD
ATOM     30  H   UNL     1       8.451   6.222   5.341  0.00  0.00    +0.145 HD
ENDBRANCH   8  28
BRANCH   7  31
ATOM     31  C   UNL     1       7.359   5.537   1.994  0.00  0.00    +0.341 C 
ATOM     32  O   UNL     1       7.656   4.619   2.737  0.00  0.00    -0.245 OA
BRANCH  31  33
ATOM     33  O   UNL     1       7.244   5.321   0.666  0.00  0.00    -0.465 OA
ATOM     34  C   UNL     1       7.483   3.991   0.202  0.00  0.00    +0.280 C 
ENDBRANCH  31  33
ENDBRANCH   7  31
TORSDOF 7
