REMARK  Name = ZINC39197245
REMARK  9 active torsions:
REMARK  status: ('A' for Active; 'I' for Inactive)
REMARK    1  A    between atoms: C_1  and  C_2
REMARK    2  A    between atoms: C_2  and  C_3
REMARK    3  A    between atoms: C_8  and  N_9
REMARK    4  A    between atoms: C_10  and  C_29
REMARK    5  A    between atoms: C_12  and  C_14
REMARK    6  A    between atoms: N_16  and  C_17
REMARK    7  A    between atoms: C_24  and  C_28
REMARK    8  A    between atoms: C_25  and  C_26
REMARK    9  A    between atoms: C_25  and  C_27
REMARK                            x       y       z     vdW  Elec       q    Type
REMARK                         _______ _______ _______ _____ _____    ______ ____
ROOT
ATOM      1  N   UNL     1       3.096  -0.365  -0.132  0.00  0.00    -0.231 N 
ATOM      2  C   UNL     1       4.425  -0.055  -0.200  0.00  0.00    +0.075 A 
ATOM      3  C   UNL     1       4.744   0.575   0.971  0.00  0.00    +0.063 A 
ATOM      4  C   UNL     1       3.545   0.613   1.716  0.00  0.00    +0.148 A 
ATOM      5  N   UNL     1       2.609   0.037   0.986  0.00  0.00    -0.161 NA
ENDROOT
BRANCH   2   6
ATOM      6  C   UNL     1       5.342  -0.344  -1.324  0.00  0.00    +0.002 A 
ATOM      7  C   UNL     1       4.833  -0.539  -2.609  0.00  0.00    +0.014 A 
ATOM      8  C   UNL     1       5.688  -0.809  -3.659  0.00  0.00    +0.048 A 
ATOM      9  C   UNL     1       7.054  -0.885  -3.440  0.00  0.00    +0.142 A 
ATOM     10  C   UNL     1       7.569  -0.691  -2.158  0.00  0.00    +0.076 A 
ATOM     11  C   UNL     1       6.718  -0.415  -1.103  0.00  0.00    +0.037 A 
ATOM     12  N   UNL     1       8.954  -0.773  -1.956  0.00  0.00    -0.280 N 
ATOM     13  C   UNL     1       9.776  -0.721  -3.026  0.00  0.00    +0.255 C 
ATOM     14  O   UNL     1      10.976  -0.820  -2.878  0.00  0.00    -0.272 OA
ATOM     15  C   UNL     1       9.196  -0.539  -4.406  0.00  0.00    +0.325 C 
ATOM     16  O   UNL     1       7.905  -1.148  -4.468  0.00  0.00    -0.481 OA
ATOM     17  H   UNL     1       9.317  -0.866  -1.061  0.00  0.00    +0.155 HD
ENDBRANCH   2   6
BRANCH   1  23
ATOM     18  C   UNL     1       1.252  -0.418  -1.692  0.00  0.00    -0.022 A 
ATOM     19  C   UNL     1       0.542  -1.065  -2.685  0.00  0.00    +0.006 A 
ATOM     20  C   UNL     1       0.943  -2.314  -3.121  0.00  0.00    +0.000 A 
ATOM     21  C   UNL     1       2.055  -2.920  -2.565  0.00  0.00    +0.002 A 
ATOM     22  C   UNL     1       2.769  -2.279  -1.572  0.00  0.00    +0.028 A 
ATOM     23  C   UNL     1       2.372  -1.021  -1.135  0.00  0.00    +0.069 A 
BRANCH  18  25
ATOM     24  C   UNL     1       1.665   2.019  -1.894  0.00  0.00    +0.009 C 
ATOM     25  C   UNL     1       0.813   0.944  -1.216  0.00  0.00    +0.034 C 
ENDBRANCH  18  25
ENDBRANCH   1  23
BRANCH   4  26
ATOM     26  C   UNL     1       3.369   1.196   3.062  0.00  0.00    +0.264 C 
ATOM     27  O   UNL     1       4.315   1.705   3.631  0.00  0.00    -0.268 OA
ATOM     28  N   UNL     1       2.161   1.163   3.658  0.00  0.00    -0.307 N 
ATOM     29  H   UNL     1       1.407   0.757   3.203  0.00  0.00    +0.149 HD
BRANCH  28  30
ATOM     30  C   UNL     1       1.987   1.741   4.993  0.00  0.00    +0.080 C 
ATOM     31  C   UNL     1       0.513   2.148   5.216  0.00  0.00    +0.027 C 
ATOM     32  C   UNL     1       0.044   1.285   6.427  0.00  0.00    -0.003 C 
ATOM     33  C   UNL     1      -0.049  -0.164   5.860  0.00  0.00    +0.005 C 
ATOM     34  C   UNL     1       1.419  -0.587   5.624  0.00  0.00    +0.009 C 
ATOM     35  C   UNL     1       2.274   0.671   6.090  0.00  0.00    -0.008 C 
ATOM     36  C   UNL     1       1.373   1.208   7.259  0.00  0.00    -0.025 C 
ATOM     37  C   UNL     1       1.827   2.587   7.744  0.00  0.00    +0.012 C 
ATOM     38  C   UNL     1       1.271   0.207   8.412  0.00  0.00    +0.012 C 
ATOM     39  C   UNL     1       3.749   0.420   6.410  0.00  0.00    +0.013 C 
ENDBRANCH  28  30
ENDBRANCH   4  26
TORSDOF 5
