REMARK  Name = ZINC08607057
REMARK  6 active torsions:
REMARK  status: ('A' for Active; 'I' for Inactive)
REMARK    1  A    between atoms: C_2  and  N_26
REMARK    2  A    between atoms: C_4  and  S_8
REMARK    3  A    between atoms: S_8  and  C_9
REMARK    4  A    between atoms: C_9  and  C_10
REMARK    5  A    between atoms: N_12  and  C_13
REMARK    6  A    between atoms: C_14  and  C_24
REMARK                            x       y       z     vdW  Elec       q    Type
REMARK                         _______ _______ _______ _____ _____    ______ ____
ROOT
ATOM      1  C   UNL     1       6.510  -0.045  -0.060  0.00  0.00    +0.228 C 
ATOM      2  O   UNL     1       6.649  -1.250  -0.068  0.00  0.00    -0.275 OA
ATOM      3  N   UNL     1       7.593   0.758  -0.066  0.00  0.00    -0.278 N 
ATOM      4  H   UNL     1       7.482   1.722  -0.060  0.00  0.00    +0.155 HD
ENDROOT
BRANCH   3   5
ATOM      5  C   UNL     1       8.866   0.206  -0.082  0.00  0.00    +0.090 A 
ATOM      6  C   UNL     1      10.078   0.865  -0.084  0.00  0.00    +0.084 A 
ATOM      7  C   UNL     1      11.303   0.058  -0.106  0.00  0.00    -0.018 A 
ATOM      8  C   UNL     1      11.054  -1.264  -0.148  0.00  0.00    -0.004 A 
ATOM      9  S   UNL     1       9.289  -1.416  -0.094  0.00  0.00    -0.077 S 
ATOM     10  C   UNL     1      12.039  -2.393  -0.276  0.00  0.00    +0.043 C 
ATOM     11  C   UNL     1      12.454  -2.469  -1.756  0.00  0.00    +0.005 C 
ATOM     12  C   UNL     1      12.951  -1.085  -2.186  0.00  0.00    +0.000 C 
ATOM     13  C   UNL     1      14.160  -0.797  -1.319  0.00  0.00    +0.000 C 
ATOM     14  C   UNL     1      13.814  -0.236   0.049  0.00  0.00    +0.005 C 
ATOM     15  C   UNL     1      12.657   0.754  -0.014  0.00  0.00    +0.037 C 
BRANCH   6  16
ATOM     16  C   UNL     1      10.139   2.296  -0.066  0.00  0.00    +0.102 C 
ATOM     17  N   UNL     1      10.187   3.430  -0.052  0.00  0.00    -0.191 NA
ENDBRANCH   6  16
ENDBRANCH   3   5
BRANCH   1  18
ATOM     18  C   UNL     1       5.128   0.555  -0.044  0.00  0.00    +0.173 C 
BRANCH  18  19
ATOM     19  S   UNL     1       3.893  -0.774  -0.039  0.00  0.00    -0.078 S 
BRANCH  19  23
ATOM     20  C   UNL     1      -0.017   1.394   0.010  0.00  0.00    +0.113 A 
ATOM     21  C   UNL     1       1.191   2.078   0.002  0.00  0.00    +0.124 A 
ATOM     22  N   UNL     1       2.341   1.395  -0.013  0.00  0.00    -0.209 NA
ATOM     23  C   UNL     1       2.350   0.077  -0.020  0.00  0.00    +0.171 A 
ATOM     24  N   UNL     1       1.192  -0.640  -0.013  0.00  0.00    -0.302 N 
ATOM     25  C   UNL     1       0.002  -0.004   0.002  0.00  0.00    +0.254 A 
ATOM     26  O   UNL     1      -1.041  -0.639   0.009  0.00  0.00    -0.268 OA
ATOM     27  H   UNL     1       1.223  -1.609  -0.019  0.00  0.00    +0.171 HD
BRANCH  21  28
ATOM     28  N   UNL     1       1.205   3.458   0.009  0.00  0.00    -0.343 N 
ATOM     29  H   UNL     1       0.370   3.952   0.019  0.00  0.00    +0.144 HD
ATOM     30  H   UNL     1       2.050   3.935   0.003  0.00  0.00    +0.144 HD
ENDBRANCH  21  28
ENDBRANCH  19  23
ENDBRANCH  18  19
ENDBRANCH   1  18
TORSDOF 6
