REMARK  Name = ZINC16312933
REMARK  16 active torsions:
REMARK  status: ('A' for Active; 'I' for Inactive)
REMARK    1  A    between atoms: C_1  and  C_2
REMARK    2  A    between atoms: C_2  and  C_3
REMARK    3  A    between atoms: C_3  and  C_4
REMARK    4  A    between atoms: C_4  and  N_5
REMARK    5  A    between atoms: N_5  and  C_6
REMARK    6  A    between atoms: C_7  and  N_19
REMARK    7  A    between atoms: N_8  and  C_15
REMARK    8  A    between atoms: C_15  and  C_16
REMARK    9  A    between atoms: C_16  and  C_17
REMARK   10  A    between atoms: C_16  and  C_18
REMARK   11  A    between atoms: C_20  and  C_22
REMARK   12  A    between atoms: C_22  and  N_65
REMARK   13  A    between atoms: C_23  and  N_65
REMARK   14  A    between atoms: C_24  and  C_25
REMARK   15  A    between atoms: C_24  and  N_65
REMARK   16  A    between atoms: C_27  and  N_32
REMARK                            x       y       z     vdW  Elec       q    Type
REMARK                         _______ _______ _______ _____ _____    ______ ____
ROOT
ATOM      1  N   UNL     1      -2.052   4.665  -0.095  0.00  0.00    -0.266 N 
ATOM      2  C   UNL     1      -1.997   3.343   0.173  0.00  0.00    +0.203 C 
ATOM      3  O   UNL     1      -2.682   2.567  -0.460  0.00  0.00    -0.277 OA
ENDROOT
BRANCH   1   4
ATOM      4  C   UNL     1      -2.831   5.134  -1.173  0.00  0.00    +0.140 A 
ATOM      5  C   UNL     1      -2.527   4.769  -2.469  0.00  0.00    +0.127 A 
ATOM      6  N   UNL     1      -3.305   5.243  -3.500  0.00  0.00    -0.280 N 
ATOM      7  C   UNL     1      -4.349   6.053  -3.248  0.00  0.00    +0.331 A 
ATOM      8  O   UNL     1      -5.025   6.462  -4.173  0.00  0.00    -0.246 OA
ATOM      9  N   UNL     1      -4.660   6.419  -1.992  0.00  0.00    -0.273 N 
ATOM     10  H   UNL     1      -5.439   7.026  -1.832  0.00  0.00    +0.173 HD
ATOM     11  C   UNL     1      -3.933   5.978  -0.946  0.00  0.00    +0.277 A 
ATOM     12  O   UNL     1      -4.227   6.312   0.190  0.00  0.00    -0.266 OA
BRANCH   5  13
ATOM     13  N   UNL     1      -1.461   3.942  -2.727  0.00  0.00    -0.343 N 
ATOM     14  H   UNL     1      -0.851   3.700  -2.013  0.00  0.00    +0.144 HD
ATOM     15  H   UNL     1      -1.317   3.600  -3.623  0.00  0.00    +0.144 HD
ENDBRANCH   5  13
BRANCH   6  16
ATOM     16  C   UNL     1      -2.995   4.863  -4.880  0.00  0.00    +0.131 C 
BRANCH  16  17
ATOM     17  C   UNL     1      -3.750   3.581  -5.238  0.00  0.00    +0.003 C 
ATOM     18  C   UNL     1      -5.256   3.854  -5.222  0.00  0.00    +0.009 C 
ATOM     19  C   UNL     1      -3.332   3.115  -6.634  0.00  0.00    +0.009 C 
ENDBRANCH  16  17
ENDBRANCH   6  16
ENDBRANCH   1   4
BRANCH   1  20
ATOM     20  C   UNL     1      -1.302   5.612   0.734  0.00  0.00    +0.114 C 
BRANCH  20  21
ATOM     21  C   UNL     1       0.074   5.856   0.112  0.00  0.00    +0.019 C 
BRANCH  21  23
ATOM     22  C   UNL     1       2.233   7.089   0.356  0.00  0.00    +0.004 C 
ATOM     23  C   UNL     1       0.857   6.845   0.978  0.00  0.00    -0.002 C 
ENDBRANCH  21  23
ENDBRANCH  20  21
ENDBRANCH   1  20
BRANCH   2  24
ATOM     24  C   UNL     1      -1.086   2.831   1.258  0.00  0.00    +0.019 C 
BRANCH  24  26
ATOM     25  C   UNL     1      -0.704   0.720   0.137  0.00  0.00    -0.095 C 
ATOM     26  N   UNL     1      -1.236   1.364   1.355  0.00  0.00    +0.386 N 
ATOM     27  H   UNL     1      -2.234   1.137   1.444  0.00  0.00    -0.081 HD
BRANCH  26  28
ATOM     28  C   UNL     1      -0.521   0.860   2.547  0.00  0.00    -0.041 C 
BRANCH  28  29
ATOM     29  C   UNL     1      -0.871  -0.592   2.746  0.00  0.00    -0.043 A 
ATOM     30  C   UNL     1       0.050  -1.574   2.432  0.00  0.00    +0.036 A 
ATOM     31  C   UNL     1      -0.268  -2.906   2.619  0.00  0.00    +0.126 A 
ATOM     32  C   UNL     1      -1.512  -3.257   3.110  0.00  0.00    +0.034 A 
ATOM     33  C   UNL     1      -2.436  -2.277   3.418  0.00  0.00    +0.022 A 
ATOM     34  C   UNL     1      -2.116  -0.943   3.236  0.00  0.00    +0.042 A 
ATOM     35 CL   UNL     1      -3.276   0.289   3.623  0.00  0.00    -0.083 Cl
BRANCH  31  36
ATOM     36  N   UNL     1       0.721  -3.956   2.289  0.00  0.00    +0.056 N 
ATOM     37  O   UNL     1       0.438  -5.130   2.449  0.00  0.00    -0.126 OA
ATOM     38  O   UNL     1       1.816  -3.647   1.857  0.00  0.00    -0.126 OA
ENDBRANCH  31  36
ENDBRANCH  28  29
ENDBRANCH  26  28
ENDBRANCH  24  26
ENDBRANCH   2  24
TORSDOF 12
