REMARK  Name = ZINC01249972
REMARK  9 active torsions:
REMARK  status: ('A' for Active; 'I' for Inactive)
REMARK    1  A    between atoms: C_1  and  O_2
REMARK    2  A    between atoms: O_2  and  C_3
REMARK    3  A    between atoms: C_5  and  C_13
REMARK    4  A    between atoms: C_7  and  O_11
REMARK    5  A    between atoms: C_8  and  O_9
REMARK    6  A    between atoms: O_9  and  C_10
REMARK    7  A    between atoms: O_11  and  C_12
REMARK    8  A    between atoms: C_25  and  C_27
REMARK    9  A    between atoms: C_35  and  C_38
REMARK                            x       y       z     vdW  Elec       q    Type
REMARK                         _______ _______ _______ _____ _____    ______ ____
ROOT
ATOM      1  C   UNL     1      -1.263   2.203  -0.395  0.00  0.00    +0.252 C 
ATOM      2  O   UNL     1      -1.317   3.408  -0.551  0.00  0.00    -0.270 OA
ATOM      3  N   UNL     1      -0.071   1.598  -0.223  0.00  0.00    -0.253 N 
ATOM      4  C   UNL     1      -0.027   0.232   0.059  0.00  0.00    +0.059 A 
ATOM      5  C   UNL     1      -0.542  -0.281   1.238  0.00  0.00    +0.025 A 
ATOM      6  C   UNL     1      -0.434  -1.637   1.494  0.00  0.00    +0.002 A 
ATOM      7  C   UNL     1       0.186  -2.474   0.583  0.00  0.00    +0.002 A 
ATOM      8  C   UNL     1       0.685  -1.967  -0.604  0.00  0.00    +0.025 A 
ATOM      9  C   UNL     1       0.557  -0.615  -0.871  0.00  0.00    +0.053 A 
ATOM     10  N   UNL     1       0.932  -0.059  -2.088  0.00  0.00    -0.316 N 
ATOM     11  C   UNL     1       1.901   0.877  -2.250  0.00  0.00    +0.017 C 
ATOM     12  C   UNL     1       2.032   1.981  -1.494  0.00  0.00    +0.038 C 
ATOM     13  C   UNL     1       1.146   2.374  -0.338  0.00  0.00    +0.153 C 
ATOM     14  C   UNL     1       3.083   2.895  -1.746  0.00  0.00    +0.163 C 
ATOM     15  O   UNL     1       3.165   3.897  -1.062  0.00  0.00    -0.292 OA
ATOM     16  C   UNL     1       4.100   2.671  -2.825  0.00  0.00    +0.088 C 
ATOM     17  C   UNL     1       4.246   1.162  -3.054  0.00  0.00    +0.032 C 
ATOM     18  C   UNL     1       2.863   0.608  -3.394  0.00  0.00    +0.059 C 
ATOM     19  H   UNL     1       0.430  -0.375  -3.014  0.00  0.00    +0.152 HD
ENDROOT
BRANCH  17  20
ATOM     20  C   UNL     1       5.194   0.907  -4.197  0.00  0.00    -0.043 A 
ATOM     21  C   UNL     1       4.924   1.429  -5.448  0.00  0.00    +0.007 A 
ATOM     22  C   UNL     1       5.796   1.200  -6.496  0.00  0.00    +0.038 A 
ATOM     23  C   UNL     1       6.934   0.438  -6.295  0.00  0.00    +0.123 A 
ATOM     24  C   UNL     1       7.201  -0.088  -5.042  0.00  0.00    +0.038 A 
ATOM     25  C   UNL     1       6.331   0.146  -3.995  0.00  0.00    +0.007 A 
ATOM     26  F   UNL     1       7.784   0.210  -7.319  0.00  0.00    -0.205 F 
ENDBRANCH  17  20
BRANCH   1  29
ATOM     27  C   UNL     1      -4.844   1.191   0.120  0.00  0.00    +0.166 A 
ATOM     28  C   UNL     1      -3.684   1.943   0.121  0.00  0.00    +0.062 A 
ATOM     29  C   UNL     1      -2.503   1.403  -0.394  0.00  0.00    +0.044 A 
ATOM     30  C   UNL     1      -2.499   0.106  -0.914  0.00  0.00    +0.062 A 
ATOM     31  C   UNL     1      -3.661  -0.643  -0.909  0.00  0.00    +0.166 A 
ATOM     32  C   UNL     1      -4.837  -0.102  -0.394  0.00  0.00    +0.204 A 
BRANCH  27  34
ATOM     33  C   UNL     1      -5.929   3.049   1.134  0.00  0.00    +0.277 C 
ATOM     34  O   UNL     1      -5.994   1.716   0.622  0.00  0.00    -0.491 OA
ENDBRANCH  27  34
BRANCH  32  35
ATOM     35  O   UNL     1      -5.979  -0.839  -0.394  0.00  0.00    -0.488 OA
ATOM     36  C   UNL     1      -6.818  -0.734  -1.546  0.00  0.00    +0.277 C 
ENDBRANCH  32  35
BRANCH  31  37
ATOM     37  O   UNL     1      -3.658  -1.907  -1.410  0.00  0.00    -0.491 OA
ATOM     38  C   UNL     1      -2.395  -2.441  -1.815  0.00  0.00    +0.277 C 
ENDBRANCH  31  37
ENDBRANCH   1  29
BRANCH  13  39
ATOM     39  C   UNL     1       1.931   2.223   0.939  0.00  0.00    +0.015 A 
ATOM     40  C   UNL     1       2.632   3.158   1.625  0.00  0.00    +0.013 A 
ATOM     41  C   UNL     1       3.283   2.789   2.788  0.00  0.00    +0.008 A 
ATOM     42  C   UNL     1       3.201   1.503   3.207  0.00  0.00    +0.045 A 
ATOM     43  S   UNL     1       2.174   0.768   1.944  0.00  0.00    -0.099 S 
ENDBRANCH  13  39
TORSDOF 6
