REMARK  Name = ZINC39874586
REMARK  5 active torsions:
REMARK  status: ('A' for Active; 'I' for Inactive)
REMARK    1  A    between atoms: C_3  and  N_8
REMARK    2  A    between atoms: C_9  and  C_25
REMARK    3  A    between atoms: C_28  and  O_31
REMARK    4  A    between atoms: O_31  and  C_32
REMARK    5  A    between atoms: C_32  and  C_33
REMARK                            x       y       z     vdW  Elec       q    Type
REMARK                         _______ _______ _______ _____ _____    ______ ____
ROOT
ATOM      1  N   UNL     1       3.583   2.124  -0.021  0.00  0.00    -0.253 N 
ATOM      2  C   UNL     1       4.935   1.543  -0.043  0.00  0.00    +0.150 C 
ATOM      3  C   UNL     1       5.877   2.702  -0.041  0.00  0.00    +0.072 A 
ATOM      4  C   UNL     1       7.342   2.757  -0.048  0.00  0.00    +0.199 A 
ATOM      5  O   UNL     1       8.045   1.779  -0.233  0.00  0.00    -0.287 OA
ATOM      6  C   UNL     1       7.887   4.117   0.192  0.00  0.00    +0.066 A 
ATOM      7  C   UNL     1       9.252   4.301   0.413  0.00  0.00    +0.035 A 
ATOM      8  C   UNL     1       9.740   5.570   0.640  0.00  0.00    +0.042 A 
ATOM      9  C   UNL     1       8.874   6.657   0.648  0.00  0.00    +0.023 A 
ATOM     10  C   UNL     1       7.526   6.486   0.430  0.00  0.00    +0.048 A 
ATOM     11  C   UNL     1       7.008   5.213   0.196  0.00  0.00    +0.140 A 
ATOM     12  O   UNL     1       5.681   5.075  -0.026  0.00  0.00    -0.450 OA
ATOM     13  C   UNL     1       5.129   3.846  -0.025  0.00  0.00    +0.199 A 
ATOM     14  C   UNL     1       3.706   3.467  -0.016  0.00  0.00    +0.287 C 
ATOM     15  O   UNL     1       2.777   4.251  -0.003  0.00  0.00    -0.266 OA
ATOM     16 CL   UNL     1      11.437   5.810   0.916  0.00  0.00    -0.084 Cl
ENDROOT
BRANCH   1  19
ATOM     17  C   UNL     1      -0.017   1.378   0.010  0.00  0.00    +0.003 A 
ATOM     18  C   UNL     1       1.169   2.087   0.002  0.00  0.00    +0.023 A 
ATOM     19  C   UNL     1       2.382   1.410  -0.013  0.00  0.00    +0.039 A 
ATOM     20  C   UNL     1       2.398   0.021  -0.021  0.00  0.00    +0.043 A 
ATOM     21  C   UNL     1       1.208  -0.683  -0.013  0.00  0.00    +0.043 A 
ATOM     22  C   UNL     1       0.002  -0.004   0.002  0.00  0.00    +0.020 A 
ATOM     23 CL   UNL     1       1.227  -2.419  -0.023  0.00  0.00    -0.083 Cl
ENDBRANCH   1  19
BRANCH   2  24
ATOM     24  C   UNL     1       5.154   0.691   1.180  0.00  0.00    -0.022 A 
ATOM     25  C   UNL     1       4.671   1.107   2.407  0.00  0.00    +0.009 A 
ATOM     26  C   UNL     1       4.871   0.328   3.530  0.00  0.00    +0.046 A 
ATOM     27  C   UNL     1       5.558  -0.874   3.426  0.00  0.00    +0.121 A 
ATOM     28  C   UNL     1       6.041  -1.289   2.194  0.00  0.00    +0.046 A 
ATOM     29  C   UNL     1       5.834  -0.509   1.073  0.00  0.00    +0.009 A 
BRANCH  27  30
ATOM     30  O   UNL     1       5.756  -1.642   4.529  0.00  0.00    -0.483 OA
BRANCH  30  31
ATOM     31  C   UNL     1       6.471  -2.865   4.348  0.00  0.00    +0.324 C 
BRANCH  31  32
ATOM     32  C   UNL     1       6.594  -3.577   5.671  0.00  0.00    +0.248 C 
ATOM     33  O   UNL     1       6.115  -3.084   6.670  0.00  0.00    -0.272 OA
ATOM     34  N   UNL     1       7.234  -4.761   5.742  0.00  0.00    -0.327 N 
ATOM     35  H   UNL     1       7.617  -5.154   4.943  0.00  0.00    +0.145 HD
ATOM     36  H   UNL     1       7.313  -5.218   6.594  0.00  0.00    +0.145 HD
ENDBRANCH  31  32
ENDBRANCH  30  31
ENDBRANCH  27  30
ENDBRANCH   2  24
TORSDOF 5
