REMARK  Name = ZINC18325133
REMARK  8 active torsions:
REMARK  status: ('A' for Active; 'I' for Inactive)
REMARK    1  A    between atoms: C_1  and  C_2
REMARK    2  A    between atoms: C_3  and  C_23
REMARK    3  A    between atoms: C_4  and  N_22
REMARK    4  A    between atoms: C_6  and  S_10
REMARK    5  A    between atoms: C_7  and  C_8
REMARK    6  A    between atoms: S_10  and  C_11
REMARK    7  A    between atoms: C_11  and  C_12
REMARK    8  A    between atoms: N_14  and  C_15
REMARK                            x       y       z     vdW  Elec       q    Type
REMARK                         _______ _______ _______ _____ _____    ______ ____
ROOT
ATOM      1  C   UNL     1       0.278   0.850  -6.529  0.00  0.00    +0.046 C 
ATOM      2  C   UNL     1       0.591   0.637  -5.071  0.00  0.00    -0.010 A 
ATOM      3  C   UNL     1       1.692  -0.129  -4.678  0.00  0.00    +0.095 A 
ATOM      4  C   UNL     1       1.951  -0.304  -3.305  0.00  0.00    +0.135 A 
ATOM      5  N   UNL     1       1.167   0.246  -2.392  0.00  0.00    -0.224 NA
ATOM      6  C   UNL     1       0.115   0.979  -2.723  0.00  0.00    +0.117 A 
ATOM      7  C   UNL     1      -0.215   1.197  -4.077  0.00  0.00    +0.088 A 
ENDROOT
BRANCH   4   8
ATOM      8  N   UNL     1       3.036  -1.059  -2.907  0.00  0.00    -0.342 N 
ATOM      9  H   UNL     1       3.219  -1.184  -1.962  0.00  0.00    +0.144 HD
ATOM     10  H   UNL     1       3.614  -1.465  -3.571  0.00  0.00    +0.144 HD
ENDBRANCH   4   8
BRANCH   7  11
ATOM     11  C   UNL     1      -1.358   1.985  -4.427  0.00  0.00    +0.102 C 
ATOM     12  N   UNL     1      -2.264   2.610  -4.705  0.00  0.00    -0.191 NA
ENDBRANCH   7  11
BRANCH   3  13
ATOM     13  C   UNL     1       2.545  -0.729  -5.660  0.00  0.00    +0.103 C 
ATOM     14  N   UNL     1       3.222  -1.204  -6.439  0.00  0.00    -0.191 NA
ENDBRANCH   3  13
BRANCH   6  15
ATOM     15  S   UNL     1      -0.889   1.683  -1.458  0.00  0.00    -0.095 S 
BRANCH  15  16
ATOM     16  C   UNL     1      -0.016   1.080   0.008  0.00  0.00    +0.172 C 
BRANCH  16  17
ATOM     17  C   UNL     1      -0.717   1.573   1.248  0.00  0.00    +0.227 C 
ATOM     18  O   UNL     1      -1.709   2.265   1.150  0.00  0.00    -0.275 OA
ATOM     19  N   UNL     1      -0.242   1.246   2.466  0.00  0.00    -0.285 N 
ATOM     20  H   UNL     1       0.511   0.639   2.546  0.00  0.00    +0.155 HD
BRANCH  19  21
ATOM     21  C   UNL     1      -0.833   1.782   3.615  0.00  0.00    +0.033 A 
ATOM     22  C   UNL     1      -0.052   2.086   4.723  0.00  0.00    +0.024 A 
ATOM     23  C   UNL     1      -0.638   2.620   5.854  0.00  0.00    +0.017 A 
ATOM     24  C   UNL     1      -2.004   2.841   5.888  0.00  0.00    +0.018 A 
ATOM     25  C   UNL     1      -2.785   2.534   4.788  0.00  0.00    +0.017 A 
ATOM     26  C   UNL     1      -2.204   2.006   3.652  0.00  0.00    +0.024 A 
ATOM     27 BR   UNL     1      -2.803   3.566   7.441  0.00  0.00    -0.050 Br
ENDBRANCH  19  21
ENDBRANCH  16  17
ENDBRANCH  15  16
ENDBRANCH   6  15
TORSDOF 7
