REMARK  Name = ZINC36646115
REMARK  6 active torsions:
REMARK  status: ('A' for Active; 'I' for Inactive)
REMARK    1  A    between atoms: C_1  and  C_2
REMARK    2  A    between atoms: C_5  and  C_8
REMARK    3  A    between atoms: N_15  and  N_23
REMARK    4  A    between atoms: C_16  and  S_18
REMARK    5  A    between atoms: S_18  and  C_19
REMARK    6  A    between atoms: C_19  and  C_20
REMARK                            x       y       z     vdW  Elec       q    Type
REMARK                         _______ _______ _______ _____ _____    ______ ____
ROOT
ATOM      1  C   UNL     1       0.060  -4.255  -0.021  0.00  0.00    +0.004 A 
ATOM      2  C   UNL     1      -0.824  -4.952  -0.774  0.00  0.00    +0.056 A 
ATOM      3  S   UNL     1      -0.398  -6.651  -0.445  0.00  0.00    -0.076 S 
ATOM      4  C   UNL     1       0.945  -6.389   0.685  0.00  0.00    +0.117 A 
ATOM      5  C   UNL     1       1.036  -4.990   0.777  0.00  0.00    +0.081 A 
ATOM      6  C   UNL     1       2.061  -4.487   1.636  0.00  0.00    +0.280 A 
ATOM      7  O   UNL     1       2.210  -3.285   1.781  0.00  0.00    -0.265 OA
ATOM      8  N   UNL     1       2.858  -5.355   2.285  0.00  0.00    -0.209 N 
ATOM      9  C   UNL     1       2.705  -6.703   2.135  0.00  0.00    +0.190 A 
ATOM     10  N   UNL     1       1.762  -7.193   1.357  0.00  0.00    -0.215 NA
ENDROOT
BRANCH   1  15
ATOM     11  C   UNL     1      -0.018   1.503   0.010  0.00  0.00    +0.044 C 
ATOM     12  C   UNL     1       0.002  -0.004   0.002  0.00  0.00    -0.050 A 
ATOM     13  C   UNL     1       0.006  -0.686  -1.201  0.00  0.00    +0.004 A 
ATOM     14  C   UNL     1       0.024  -2.066  -1.215  0.00  0.00    +0.009 A 
ATOM     15  C   UNL     1       0.040  -2.772  -0.013  0.00  0.00    -0.017 A 
ATOM     16  C   UNL     1       0.037  -2.079   1.196  0.00  0.00    +0.009 A 
ATOM     17  C   UNL     1       0.023  -0.699   1.198  0.00  0.00    +0.004 A 
ENDBRANCH   1  15
BRANCH   8  18
ATOM     18  N   UNL     1       3.839  -4.879   3.107  0.00  0.00    -0.293 N 
ATOM     19  H   UNL     1       4.359  -5.636   3.526  0.00  0.00    +0.163 HD
ATOM     20  H   UNL     1       4.453  -4.250   2.612  0.00  0.00    +0.163 HD
ENDBRANCH   8  18
BRANCH   9  21
ATOM     21  S   UNL     1       3.774  -7.801   3.004  0.00  0.00    -0.077 S 
BRANCH  21  22
ATOM     22  C   UNL     1       3.208  -9.451   2.506  0.00  0.00    +0.172 C 
BRANCH  22  23
ATOM     23  C   UNL     1       4.050 -10.498   3.187  0.00  0.00    +0.221 C 
ATOM     24  O   UNL     1       4.944 -10.165   3.936  0.00  0.00    -0.275 OA
ATOM     25  N   UNL     1       3.809 -11.806   2.965  0.00  0.00    -0.329 N 
ATOM     26  H   UNL     1       3.094 -12.072   2.367  0.00  0.00    +0.145 HD
ATOM     27  H   UNL     1       4.351 -12.480   3.404  0.00  0.00    +0.145 HD
ENDBRANCH  22  23
ENDBRANCH  21  22
ENDBRANCH   9  21
TORSDOF 5
