REMARK  Name = ZINC16804434
REMARK  7 active torsions:
REMARK  status: ('A' for Active; 'I' for Inactive)
REMARK    1  A    between atoms: C_1  and  C_2
REMARK    2  A    between atoms: C_7  and  C_9
REMARK    3  A    between atoms: C_15  and  S_17
REMARK    4  A    between atoms: S_17  and  C_18
REMARK    5  A    between atoms: C_18  and  C_19
REMARK    6  A    between atoms: C_28  and  S_30
REMARK    7  A    between atoms: S_30  and  N_33
REMARK                            x       y       z     vdW  Elec       q    Type
REMARK                         _______ _______ _______ _____ _____    ______ ____
ROOT
ATOM      1  C   UNL     1       5.607   8.118  -0.011  0.00  0.00    +0.172 C 
ENDROOT
BRANCH   1   2
ATOM      2  C   UNL     1       4.814   9.399   0.004  0.00  0.00    +0.230 C 
ATOM      3  O   UNL     1       3.601   9.362   0.016  0.00  0.00    -0.274 OA
ATOM      4  N   UNL     1       5.451  10.587   0.004  0.00  0.00    -0.270 N 
ATOM      5  C   UNL     1       6.906  10.759  -0.004  0.00  0.00    +0.118 C 
ATOM      6  C   UNL     1       7.133  12.280  -0.004  0.00  0.00    +0.056 C 
ATOM      7  C   UNL     1       5.741  12.871   0.013  0.00  0.00    -0.023 A 
ATOM      8  C   UNL     1       4.821  11.835   0.017  0.00  0.00    +0.040 A 
ATOM      9  C   UNL     1       3.459  12.138   0.033  0.00  0.00    +0.026 A 
ATOM     10  C   UNL     1       3.039  13.452   0.045  0.00  0.00    +0.030 A 
ATOM     11  C   UNL     1       3.965  14.478   0.041  0.00  0.00    +0.105 A 
ATOM     12  C   UNL     1       5.316  14.186   0.025  0.00  0.00    +0.034 A 
BRANCH  11  13
ATOM     13  S   UNL     1       3.424  16.155   0.056  0.00  0.00    +0.056 S 
ATOM     14  O   UNL     1       4.479  16.927  -0.501  0.00  0.00    -0.153 OA
ATOM     15  O   UNL     1       2.109  16.163  -0.481  0.00  0.00    -0.153 OA
BRANCH  13  16
ATOM     16  N   UNL     1       3.290  16.613   1.642  0.00  0.00    -0.204 NA
ATOM     17  H   UNL     1       3.436  17.538   1.894  0.00  0.00    +0.144 HD
ATOM     18  H   UNL     1       3.067  15.955   2.319  0.00  0.00    +0.144 HD
ENDBRANCH  13  16
ENDBRANCH  11  13
ENDBRANCH   1   2
BRANCH   1  19
ATOM     19  S   UNL     1       4.474   6.707  -0.007  0.00  0.00    -0.096 S 
BRANCH  19  28
ATOM     20  C   UNL     1       9.300   5.022  -0.063  0.00  0.00    +0.088 C 
ATOM     21  C   UNL     1       7.836   4.664  -0.051  0.00  0.00    +0.128 A 
ATOM     22  N   UNL     1       7.483   3.393  -0.055  0.00  0.00    -0.225 NA
ATOM     23  C   UNL     1       6.209   3.053  -0.044  0.00  0.00    +0.113 A 
ATOM     24  C   UNL     1       5.187   4.030  -0.029  0.00  0.00    +0.040 A 
ATOM     25  C   UNL     1       3.837   3.503  -0.018  0.00  0.00    +0.029 A 
ATOM     26  C   UNL     1       3.657   2.160  -0.023  0.00  0.00    +0.022 A 
ATOM     27  S   UNL     1       5.320   1.519  -0.035  0.00  0.00    -0.069 S 
ATOM     28  C   UNL     1       5.635   5.382  -0.026  0.00  0.00    +0.109 A 
ATOM     29  N   UNL     1       6.936   5.630  -0.037  0.00  0.00    -0.225 NA
BRANCH  26  30
ATOM     30  C   UNL     1       2.385   1.407  -0.014  0.00  0.00    -0.011 A 
ATOM     31  C   UNL     1       1.167   2.088   0.002  0.00  0.00    +0.009 A 
ATOM     32  C   UNL     1      -0.017   1.379   0.010  0.00  0.00    +0.001 A 
ATOM     33  C   UNL     1       0.002  -0.004   0.002  0.00  0.00    +0.000 A 
ATOM     34  C   UNL     1       1.206  -0.686  -0.013  0.00  0.00    +0.001 A 
ATOM     35  C   UNL     1       2.397   0.011  -0.021  0.00  0.00    +0.009 A 
ENDBRANCH  26  30
ENDBRANCH  19  28
ENDBRANCH   1  19
TORSDOF 6
