REMARK  Name = ZINC14484994
REMARK  7 active torsions:
REMARK  status: ('A' for Active; 'I' for Inactive)
REMARK    1  A    between atoms: C_1  and  C_2
REMARK    2  A    between atoms: C_2  and  C_4
REMARK    3  A    between atoms: C_2  and  N_13
REMARK    4  A    between atoms: C_14  and  C_16
REMARK    5  A    between atoms: C_20  and  S_22
REMARK    6  A    between atoms: S_22  and  N_25
REMARK    7  A    between atoms: N_25  and  C_26
REMARK                            x       y       z     vdW  Elec       q    Type
REMARK                         _______ _______ _______ _____ _____    ______ ____
ROOT
ATOM      1  C   UNL     1       1.269  -0.472  -0.290  0.00  0.00    +0.039 A 
ATOM      2  C   UNL     1       2.434   0.298  -0.307  0.00  0.00    +0.013 A 
ATOM      3  C   UNL     1       2.350   1.672  -0.230  0.00  0.00    +0.003 A 
ATOM      4  C   UNL     1       1.114   2.288  -0.135  0.00  0.00    +0.029 A 
ATOM      5  C   UNL     1      -0.043   1.532  -0.117  0.00  0.00    +0.109 A 
ATOM      6  C   UNL     1       0.027   0.156  -0.194  0.00  0.00    +0.041 A 
ENDROOT
BRANCH   1   8
ATOM      7  N   UNL     1       2.554  -2.549  -0.465  0.00  0.00    -0.305 N 
ATOM      8  C   UNL     1       1.352  -1.946  -0.372  0.00  0.00    +0.245 C 
ATOM      9  O   UNL     1       0.336  -2.613  -0.357  0.00  0.00    -0.270 OA
ATOM     10  H   UNL     1       3.364  -2.017  -0.477  0.00  0.00    +0.150 HD
BRANCH   7  12
ATOM     11  C   UNL     1       2.467  -4.449  -2.003  0.00  0.00    +0.033 C 
ATOM     12  C   UNL     1       2.635  -4.010  -0.547  0.00  0.00    +0.101 C 
BRANCH  12  13
ATOM     13  C   UNL     1       3.978  -4.467  -0.037  0.00  0.00    -0.024 A 
ATOM     14  C   UNL     1       5.116  -3.748  -0.351  0.00  0.00    +0.009 A 
ATOM     15  C   UNL     1       6.350  -4.163   0.115  0.00  0.00    +0.050 A 
ATOM     16  C   UNL     1       6.448  -5.302   0.898  0.00  0.00    +0.166 A 
ATOM     17  C   UNL     1       5.301  -6.026   1.214  0.00  0.00    +0.167 A 
ATOM     18  C   UNL     1       4.067  -5.601   0.748  0.00  0.00    +0.055 A 
ATOM     19  O   UNL     1       5.658  -7.093   1.987  0.00  0.00    -0.453 OA
ATOM     20  C   UNL     1       6.975  -6.787   2.480  0.00  0.00    +0.466 C 
ATOM     21  O   UNL     1       7.523  -5.915   1.474  0.00  0.00    -0.453 OA
ENDBRANCH  12  13
ENDBRANCH   7  12
ENDBRANCH   1   8
BRANCH   5  22
ATOM     22  S   UNL     1      -1.612   2.327  -0.003  0.00  0.00    +0.072 S 
ATOM     23  O   UNL     1      -1.433   3.649  -0.493  0.00  0.00    -0.150 OA
ATOM     24  O   UNL     1      -2.563   1.430  -0.560  0.00  0.00    -0.150 OA
BRANCH  22  25
ATOM     25  N   UNL     1      -1.976   2.464   1.607  0.00  0.00    -0.213 N 
ATOM     26  H   UNL     1      -2.771   2.037   1.962  0.00  0.00    +0.174 HD
BRANCH  25  27
ATOM     27  C   UNL     1      -1.136   3.194   2.454  0.00  0.00    +0.083 A 
ATOM     28  C   UNL     1      -0.501   4.337   1.987  0.00  0.00    +0.027 A 
ATOM     29  C   UNL     1       0.325   5.058   2.828  0.00  0.00    +0.002 A 
ATOM     30  C   UNL     1       0.527   4.639   4.130  0.00  0.00    +0.003 A 
ATOM     31  C   UNL     1      -0.100   3.499   4.598  0.00  0.00    +0.040 A 
ATOM     32  C   UNL     1      -0.931   2.774   3.764  0.00  0.00    +0.146 A 
ATOM     33  F   UNL     1      -1.543   1.659   4.221  0.00  0.00    -0.204 F 
ENDBRANCH  25  27
ENDBRANCH  22  25
ENDBRANCH   5  22
TORSDOF 6
