REMARK  Name = ZINC09046112
REMARK  5 active torsions:
REMARK  status: ('A' for Active; 'I' for Inactive)
REMARK    1  A    between atoms: C_1  and  C_2
REMARK    2  A    between atoms: C_2  and  C_4
REMARK    3  A    between atoms: C_7  and  N_10
REMARK    4  A    between atoms: C_15  and  C_31
REMARK    5  A    between atoms: C_31  and  C_32
REMARK                            x       y       z     vdW  Elec       q    Type
REMARK                         _______ _______ _______ _____ _____    ______ ____
ROOT
ATOM      1  N   UNL     1      -6.564   0.214  -0.964  0.00  0.00    -0.210 N 
ATOM      2  C   UNL     1      -5.744   1.304  -0.810  0.00  0.00    +0.228 C 
ATOM      3  O   UNL     1      -6.001   2.352  -0.257  0.00  0.00    -0.275 OA
ATOM      4  C   UNL     1      -4.507   0.926  -1.454  0.00  0.00    +0.074 C 
ATOM      5  C   UNL     1      -3.078   1.297  -1.435  0.00  0.00    -0.053 C 
ATOM      6  C   UNL     1      -3.367  -1.003  -2.100  0.00  0.00    +0.050 C 
ATOM      7  C   UNL     1      -4.436  -0.615  -1.092  0.00  0.00    +0.088 C 
ATOM      8  C   UNL     1      -5.887  -0.903  -1.368  0.00  0.00    +0.229 C 
ATOM      9  O   UNL     1      -6.357  -1.912  -1.847  0.00  0.00    -0.275 OA
ATOM     10  C   UNL     1      -3.933  -1.345  -3.449  0.00  0.00    -0.028 A 
ATOM     11  C   UNL     1      -4.696  -0.653  -4.363  0.00  0.00    +0.004 A 
ATOM     12  C   UNL     1      -5.069  -1.252  -5.553  0.00  0.00    +0.000 A 
ATOM     13  C   UNL     1      -4.672  -2.549  -5.824  0.00  0.00    +0.002 A 
ATOM     14  C   UNL     1      -3.904  -3.245  -4.915  0.00  0.00    +0.023 A 
ATOM     15  C   UNL     1      -3.524  -2.649  -3.715  0.00  0.00    +0.036 A 
ATOM     16  N   UNL     1      -2.758  -3.140  -2.655  0.00  0.00    -0.286 N 
ATOM     17  C   UNL     1      -2.614  -2.234  -1.670  0.00  0.00    +0.211 C 
ATOM     18  O   UNL     1      -1.996  -2.381  -0.636  0.00  0.00    -0.277 OA
ATOM     19  H   UNL     1      -2.374  -4.031  -2.632  0.00  0.00    +0.155 HD
ATOM     20  N   UNL     1      -2.462   0.161  -2.191  0.00  0.00    +0.394 N 
ATOM     21  H   UNL     1      -1.550  -0.076  -1.781  0.00  0.00    -0.083 HD
ATOM     22  H   UNL     1      -2.336   0.426  -3.175  0.00  0.00    -0.083 HD
ENDROOT
BRANCH   1  26
ATOM     23  C   UNL     1     -10.675   0.299  -0.275  0.00  0.00    +0.017 A 
ATOM     24  C   UNL     1      -9.908   1.457  -0.095  0.00  0.00    +0.013 A 
ATOM     25  C   UNL     1      -8.551   1.424  -0.323  0.00  0.00    +0.024 A 
ATOM     26  C   UNL     1      -7.941   0.242  -0.733  0.00  0.00    +0.044 A 
ATOM     27  C   UNL     1      -8.700  -0.909  -0.919  0.00  0.00    +0.024 A 
ATOM     28  C   UNL     1     -10.056  -0.887  -0.687  0.00  0.00    +0.013 A 
BRANCH  23  30
ATOM     29  C   UNL     1     -12.965  -0.880  -0.346  0.00  0.00    +0.091 C 
ATOM     30  C   UNL     1     -12.123   0.330  -0.033  0.00  0.00    +0.160 C 
ATOM     31  O   UNL     1     -12.642   1.329   0.419  0.00  0.00    -0.292 OA
ENDBRANCH  23  30
ENDBRANCH   1  26
BRANCH   5  32
ATOM     32  C   UNL     1      -2.547   1.352  -0.001  0.00  0.00    +0.022 C 
BRANCH  32  33
ATOM     33  C   UNL     1      -1.125   1.851  -0.011  0.00  0.00    -0.024 A 
ATOM     34  C   UNL     1      -0.014   1.098  -0.015  0.00  0.00    +0.087 A 
ATOM     35  N   UNL     1       1.094   1.900  -0.029  0.00  0.00    -0.360 N 
ATOM     36  H   UNL     1       2.011   1.584  -0.039  0.00  0.00    +0.165 HD
ATOM     37  C   UNL     1       0.714   3.224  -0.029  0.00  0.00    +0.047 A 
ATOM     38  C   UNL     1      -0.693   3.251  -0.014  0.00  0.00    +0.003 A 
ATOM     39  C   UNL     1      -1.365   4.474  -0.011  0.00  0.00    +0.010 A 
ATOM     40  C   UNL     1      -0.653   5.640  -0.022  0.00  0.00    +0.001 A 
ATOM     41  C   UNL     1       0.735   5.619  -0.037  0.00  0.00    +0.002 A 
ATOM     42  C   UNL     1       1.419   4.423  -0.041  0.00  0.00    +0.026 A 
ENDBRANCH  32  33
ENDBRANCH   5  32
TORSDOF 4
