REMARK  Name = ZINC05051786
REMARK  4 active torsions:
REMARK  status: ('A' for Active; 'I' for Inactive)
REMARK    1  A    between atoms: C_1  and  C_2
REMARK    2  A    between atoms: C_2  and  C_23
REMARK    3  A    between atoms: C_8  and  C_13
REMARK    4  A    between atoms: C_15  and  C_19
REMARK                            x       y       z     vdW  Elec       q    Type
REMARK                         _______ _______ _______ _____ _____    ______ ____
ROOT
ATOM      1  C   UNL     1      -1.887   5.198   0.038  0.00  0.00    +0.081 A 
ATOM      2  C   UNL     1      -2.356   3.927   0.029  0.00  0.00    +0.069 A 
ATOM      3  C   UNL     1      -1.207   3.100   0.025  0.00  0.00    +0.160 A 
ATOM      4  N   UNL     1      -0.159   3.899   0.024  0.00  0.00    -0.168 NA
ATOM      5  N   UNL     1      -0.539   5.126   0.031  0.00  0.00    -0.277 N 
ATOM      6  H   UNL     1       0.076   5.915   0.032  0.00  0.00    +0.189 HD
ATOM      7  I   UNL     1      -4.359   3.314   0.025  0.00  0.00    -0.039 I 
ENDROOT
BRANCH   1  14
ATOM      8  C   UNL     1      -2.538   7.500  -4.429  0.00  0.00    +0.074 C 
ATOM      9  C   UNL     1      -1.931   7.913  -3.087  0.00  0.00    +0.166 C 
ATOM     10  O   UNL     1      -2.740   8.930  -2.486  0.00  0.00    -0.341 OA
ATOM     11  C   UNL     1      -3.250   8.413  -1.245  0.00  0.00    +0.179 C 
ATOM     12  C   UNL     1      -2.268   8.755  -0.110  0.00  0.00    +0.195 C 
ATOM     13  O   UNL     1      -1.955   7.546   0.587  0.00  0.00    -0.365 OA
ATOM     14  C   UNL     1      -2.716   6.456   0.048  0.00  0.00    +0.198 C 
ATOM     15  C   UNL     1      -3.076   6.868  -1.398  0.00  0.00    +0.187 C 
ATOM     16  O   UNL     1      -1.886   6.778  -2.209  0.00  0.00    -0.340 OA
ATOM     17  C   UNL     1      -0.514   8.446  -3.305  0.00  0.00    +0.074 C 
ENDBRANCH   1  14
BRANCH   3  18
ATOM     18  C   UNL     1      -1.187   1.624   0.017  0.00  0.00    +0.263 C 
ATOM     19  O   UNL     1      -2.232   1.002   0.018  0.00  0.00    -0.269 OA
ATOM     20  N   UNL     1      -0.011   0.966   0.007  0.00  0.00    -0.324 N 
ATOM     21  H   UNL     1       0.002  -0.004   0.002  0.00  0.00    +0.145 HD
ATOM     22  H   UNL     1       0.822   1.462   0.002  0.00  0.00    +0.145 HD
ENDBRANCH   3  18
TORSDOF 2
