REMARK  Name = ZINC39610146
REMARK  5 active torsions:
REMARK  status: ('A' for Active; 'I' for Inactive)
REMARK    1  A    between atoms: C_6  and  C_7
REMARK    2  A    between atoms: C_7  and  N_8
REMARK    3  A    between atoms: C_9  and  C_11
REMARK    4  A    between atoms: C_22  and  C_24
REMARK    5  A    between atoms: C_27  and  C_31
REMARK                            x       y       z     vdW  Elec       q    Type
REMARK                         _______ _______ _______ _____ _____    ______ ____
ROOT
ATOM      1  C   UNL     1      -3.626  -1.439  -2.645  0.00  0.00    +0.100 C 
ATOM      2  C   UNL     1      -3.873  -0.262  -3.615  0.00  0.00    +0.121 C 
ATOM      3  N   UNL     1      -5.005  -0.707  -4.462  0.00  0.00    -0.296 N 
ATOM      4  C   UNL     1      -5.910  -1.415  -3.526  0.00  0.00    +0.115 C 
ATOM      5  C   UNL     1      -4.965  -2.193  -2.589  0.00  0.00    -0.004 C 
ATOM      6  C   UNL     1      -5.514  -2.189  -1.165  0.00  0.00    -0.010 C 
ATOM      7  C   UNL     1      -6.816  -2.994  -1.123  0.00  0.00    -0.082 C 
ATOM      8  N   UNL     1      -6.558  -4.370  -1.565  0.00  0.00    +0.379 N 
ATOM      9  C   UNL     1      -6.119  -4.371  -2.966  0.00  0.00    -0.082 C 
ATOM     10  C   UNL     1      -4.787  -3.624  -3.086  0.00  0.00    -0.010 C 
ATOM     11  C   UNL     1      -5.173  -0.512  -5.785  0.00  0.00    +0.247 C 
ATOM     12  O   UNL     1      -4.278  -0.022  -6.446  0.00  0.00    -0.270 OA
ATOM     13  H   UNL     1      -5.837  -4.777  -0.988  0.00  0.00    -0.086 HD
ATOM     14  H   UNL     1      -7.403  -4.914  -1.478  0.00  0.00    -0.086 HD
ENDROOT
BRANCH  11  15
ATOM     15  C   UNL     1      -6.446  -0.895  -6.433  0.00  0.00    +0.040 A 
ATOM     16  C   UNL     1      -7.604  -1.044  -5.668  0.00  0.00    +0.014 A 
ATOM     17  C   UNL     1      -8.790  -1.400  -6.277  0.00  0.00    +0.016 A 
ATOM     18  C   UNL     1      -8.833  -1.610  -7.644  0.00  0.00    +0.090 A 
ATOM     19  C   UNL     1      -7.688  -1.465  -8.410  0.00  0.00    +0.136 A 
ATOM     20  C   UNL     1      -6.496  -1.102  -7.812  0.00  0.00    +0.052 A 
ATOM     21  F   UNL     1      -7.737  -1.672  -9.744  0.00  0.00    -0.205 F 
BRANCH  18  22
ATOM     22  C   UNL     1     -10.132  -1.999  -8.303  0.00  0.00    +0.420 C 
ATOM     23  F   UNL     1     -11.138  -2.084  -7.335  0.00  0.00    -0.166 F 
ATOM     24  F   UNL     1     -10.480  -1.034  -9.254  0.00  0.00    -0.166 F 
ATOM     25  F   UNL     1      -9.982  -3.241  -8.930  0.00  0.00    -0.166 F 
ENDBRANCH  18  22
ENDBRANCH  11  15
BRANCH   1  27
ATOM     26  N   UNL     1      -2.445  -1.648  -0.482  0.00  0.00    -0.311 N 
ATOM     27  C   UNL     1      -3.256  -0.923  -1.278  0.00  0.00    +0.218 C 
ATOM     28  O   UNL     1      -3.687   0.143  -0.896  0.00  0.00    -0.275 OA
ATOM     29  H   UNL     1      -2.100  -2.501  -0.788  0.00  0.00    +0.149 HD
BRANCH  26  30
ATOM     30  C   UNL     1      -2.086  -1.147   0.847  0.00  0.00    +0.139 C 
BRANCH  30  36
ATOM     31  C   UNL     1       0.192  -2.038   1.374  0.00  0.00    +0.009 A 
ATOM     32  C   UNL     1       1.030  -2.945   1.997  0.00  0.00    +0.050 A 
ATOM     33  C   UNL     1       0.497  -3.956   2.779  0.00  0.00    +0.166 A 
ATOM     34  C   UNL     1      -0.884  -4.057   2.935  0.00  0.00    +0.167 A 
ATOM     35  C   UNL     1      -1.716  -3.145   2.308  0.00  0.00    +0.054 A 
ATOM     36  C   UNL     1      -1.177  -2.138   1.529  0.00  0.00    -0.027 A 
ATOM     37  O   UNL     1      -1.155  -5.124   3.743  0.00  0.00    -0.453 OA
ATOM     38  C   UNL     1       0.047  -5.918   3.747  0.00  0.00    +0.466 C 
ATOM     39  O   UNL     1       1.091  -4.960   3.488  0.00  0.00    -0.453 OA
ENDBRANCH  30  36
ENDBRANCH  26  30
ENDBRANCH   1  27
TORSDOF 5
