REMARK  Name = ZINC09716020
REMARK  10 active torsions:
REMARK  status: ('A' for Active; 'I' for Inactive)
REMARK    1  A    between atoms: C_1  and  C_2
REMARK    2  A    between atoms: C_2  and  C_3
REMARK    3  A    between atoms: C_3  and  C_4
REMARK    4  A    between atoms: C_4  and  N_5
REMARK    5  A    between atoms: C_9  and  S_28
REMARK    6  A    between atoms: C_13  and  S_14
REMARK    7  A    between atoms: S_14  and  C_15
REMARK    8  A    between atoms: C_15  and  C_16
REMARK    9  A    between atoms: C_16  and  C_18
REMARK   10  A    between atoms: S_28  and  N_31
REMARK                            x       y       z     vdW  Elec       q    Type
REMARK                         _______ _______ _______ _____ _____    ______ ____
ROOT
ATOM      1  N   UNL     1       2.327   4.835   0.011  0.00  0.00    -0.319 N 
ATOM      2  C   UNL     1       1.675   6.057   0.018  0.00  0.00    +0.070 A 
ATOM      3  C   UNL     1       2.103   7.375   0.021  0.00  0.00    +0.030 A 
ATOM      4  C   UNL     1       1.178   8.399   0.036  0.00  0.00    +0.030 A 
ATOM      5  C   UNL     1      -0.180   8.118   0.048  0.00  0.00    +0.107 A 
ATOM      6  C   UNL     1      -0.624   6.814   0.045  0.00  0.00    +0.058 A 
ATOM      7  C   UNL     1       0.300   5.766   0.030  0.00  0.00    +0.092 A 
ATOM      8  N   UNL     1       0.177   4.413   0.025  0.00  0.00    -0.222 NA
ATOM      9  C   UNL     1       1.366   3.863   0.010  0.00  0.00    +0.170 A 
ENDROOT
BRANCH   5  10
ATOM     10  S   UNL     1      -1.346   9.438   0.066  0.00  0.00    +0.056 S 
ATOM     11  O   UNL     1      -2.543   8.916   0.626  0.00  0.00    -0.153 OA
ATOM     12  O   UNL     1      -0.676  10.564   0.617  0.00  0.00    -0.153 OA
BRANCH  10  13
ATOM     13  N   UNL     1      -1.686   9.814  -1.510  0.00  0.00    -0.204 NA
ATOM     14  H   UNL     1      -1.257   9.324  -2.229  0.00  0.00    +0.144 HD
ATOM     15  H   UNL     1      -2.314  10.524  -1.715  0.00  0.00    +0.144 HD
ENDBRANCH  10  13
ENDBRANCH   5  10
BRANCH   1  16
ATOM     16  C   UNL     1       3.776   4.624   0.003  0.00  0.00    +0.124 C 
BRANCH  16  17
ATOM     17  C   UNL     1       4.274   4.560  -1.442  0.00  0.00    +0.021 C 
BRANCH  17  19
ATOM     18  C   UNL     1       6.286   4.275  -2.896  0.00  0.00    +0.004 C 
ATOM     19  C   UNL     1       5.788   4.339  -1.451  0.00  0.00    -0.002 C 
ENDBRANCH  17  19
ENDBRANCH  16  17
ENDBRANCH   1  16
BRANCH   9  20
ATOM     20  S   UNL     1       1.680   2.129  -0.003  0.00  0.00    -0.080 S 
BRANCH  20  21
ATOM     21  C   UNL     1      -0.018   1.503   0.010  0.00  0.00    +0.157 C 
BRANCH  21  22
ATOM     22  C   UNL     1       0.002  -0.004   0.002  0.00  0.00    +0.175 C 
ATOM     23  O   UNL     1       1.062  -0.597  -0.011  0.00  0.00    -0.291 OA
BRANCH  22  24
ATOM     24  C   UNL     1      -1.216  -0.729   0.010  0.00  0.00    +0.043 A 
ATOM     25  C   UNL     1      -2.491  -0.206   0.031  0.00  0.00    +0.095 A 
ATOM     26  N   UNL     1      -3.391  -1.208   0.029  0.00  0.00    -0.360 N 
ATOM     27  H   UNL     1      -4.353  -1.085   0.039  0.00  0.00    +0.165 HD
ATOM     28  C   UNL     1      -2.757  -2.434   0.016  0.00  0.00    +0.047 A 
ATOM     29  C   UNL     1      -1.373  -2.197   0.003  0.00  0.00    +0.010 A 
ATOM     30  C   UNL     1      -0.481  -3.265  -0.012  0.00  0.00    +0.011 A 
ATOM     31  C   UNL     1      -0.963  -4.556  -0.015  0.00  0.00    +0.001 A 
ATOM     32  C   UNL     1      -2.330  -4.793  -0.002  0.00  0.00    +0.002 A 
ATOM     33  C   UNL     1      -3.224  -3.744   0.013  0.00  0.00    +0.026 A 
ENDBRANCH  22  24
ENDBRANCH  21  22
ENDBRANCH  20  21
ENDBRANCH   9  20
TORSDOF 9
