REMARK  Name = ZINC12376245
REMARK  4 active torsions:
REMARK  status: ('A' for Active; 'I' for Inactive)
REMARK    1  A    between atoms: C_4  and  C_7
REMARK    2  A    between atoms: C_7  and  C_8
REMARK    3  A    between atoms: C_14  and  C_17
REMARK    4  A    between atoms: N_27  and  C_30
REMARK                            x       y       z     vdW  Elec       q    Type
REMARK                         _______ _______ _______ _____ _____    ______ ____
ROOT
ATOM      1  C   UNL     1       4.171  -0.963   1.399  0.00  0.00    +0.071 C 
ATOM      2  C   UNL     1       5.533  -1.650   1.414  0.00  0.00    +0.107 C 
ATOM      3  C   UNL     1       5.467  -2.183   2.896  0.00  0.00    +0.111 C 
ATOM      4  C   UNL     1       4.141  -2.808   2.976  0.00  0.00    +0.098 C 
ATOM      5  N   UNL     1       3.276  -1.960   2.072  0.00  0.00    -0.305 NA
ATOM      6  C   UNL     1       6.852  -2.486   3.167  0.00  0.00    +0.232 C 
ATOM      7  O   UNL     1       7.290  -3.376   3.864  0.00  0.00    -0.274 OA
ATOM      8  N   UNL     1       7.565  -1.546   2.464  0.00  0.00    -0.210 N 
ATOM      9  C   UNL     1       6.796  -0.859   1.548  0.00  0.00    +0.232 C 
ATOM     10  O   UNL     1       7.075   0.171   0.972  0.00  0.00    -0.274 OA
ATOM     11  H   UNL     1       2.543  -1.498   2.588  0.00  0.00    +0.123 HD
ENDROOT
BRANCH   4  12
ATOM     12  C   UNL     1       4.204  -4.237   2.500  0.00  0.00    -0.011 A 
ATOM     13  C   UNL     1       3.900  -4.542   1.186  0.00  0.00    +0.008 A 
ATOM     14  C   UNL     1       3.957  -5.851   0.749  0.00  0.00    +0.020 A 
ATOM     15  C   UNL     1       4.321  -6.858   1.626  0.00  0.00    +0.042 A 
ATOM     16  C   UNL     1       4.626  -6.554   2.940  0.00  0.00    +0.040 A 
ATOM     17  C   UNL     1       4.573  -5.242   3.376  0.00  0.00    +0.047 A 
ATOM     18 CL   UNL     1       4.962  -4.858   5.024  0.00  0.00    -0.083 Cl
ATOM     19 CL   UNL     1       4.392  -8.504   1.077  0.00  0.00    -0.083 Cl
ENDBRANCH   4  12
BRANCH   8  20
ATOM     20  C   UNL     1       8.935  -1.315   2.647  0.00  0.00    +0.044 A 
ATOM     21  C   UNL     1       9.582  -0.340   1.899  0.00  0.00    +0.024 A 
ATOM     22  C   UNL     1      10.932  -0.115   2.082  0.00  0.00    +0.002 A 
ATOM     23  C   UNL     1      11.640  -0.858   3.009  0.00  0.00    +0.000 A 
ATOM     24  C   UNL     1      10.998  -1.830   3.755  0.00  0.00    +0.002 A 
ATOM     25  C   UNL     1       9.647  -2.056   3.581  0.00  0.00    +0.024 A 
ENDBRANCH   8  20
BRANCH   1  26
ATOM     26  C   UNL     1       3.711  -0.707  -0.038  0.00  0.00    +0.054 C 
BRANCH  26  30
ATOM     27  C   UNL     1      -0.017   1.378   0.010  0.00  0.00    +0.000 A 
ATOM     28  C   UNL     1       1.171   2.086   0.002  0.00  0.00    +0.000 A 
ATOM     29  C   UNL     1       2.377   1.411  -0.013  0.00  0.00    +0.004 A 
ATOM     30  C   UNL     1       2.396   0.029  -0.020  0.00  0.00    -0.046 A 
ATOM     31  C   UNL     1       1.208  -0.679  -0.012  0.00  0.00    +0.004 A 
ATOM     32  C   UNL     1       0.002  -0.004   0.002  0.00  0.00    +0.000 A 
ENDBRANCH  26  30
ENDBRANCH   1  26
TORSDOF 4
