REMARK  Name = ZINC28976193
REMARK  14 active torsions:
REMARK  status: ('A' for Active; 'I' for Inactive)
REMARK    1  A    between atoms: C_1  and  C_2
REMARK    2  A    between atoms: C_5  and  C_9
REMARK    3  A    between atoms: C_6  and  N_8
REMARK    4  A    between atoms: C_9  and  N_10
REMARK    5  A    between atoms: N_10  and  C_13
REMARK    6  A    between atoms: C_13  and  C_35
REMARK    7  A    between atoms: C_14  and  C_15
REMARK    8  A    between atoms: C_14  and  S_26
REMARK    9  A    between atoms: C_15  and  C_16
REMARK   10  A    between atoms: C_16  and  O_17
REMARK   11  A    between atoms: O_17  and  C_18
REMARK   12  A    between atoms: C_18  and  C_20
REMARK   13  A    between atoms: S_26  and  C_27
REMARK   14  A    between atoms: C_27  and  C_29
REMARK                            x       y       z     vdW  Elec       q    Type
REMARK                         _______ _______ _______ _____ _____    ______ ____
ROOT
ATOM      1  C   UNL     1      -1.624  -5.369   2.176  0.00  0.00    +0.020 C 
ATOM      2  C   UNL     1      -2.784  -6.004   2.280  0.00  0.00    +0.014 C 
ATOM      3  C   UNL     1      -0.937  -4.848   3.411  0.00  0.00    +0.062 C 
ENDROOT
BRANCH   1   4
ATOM      4  N   UNL     1      -1.039  -5.185   0.920  0.00  0.00    -0.273 N 
ATOM      5  C   UNL     1      -0.904  -3.943   0.416  0.00  0.00    +0.332 C 
ATOM      6  O   UNL     1      -1.373  -2.993   1.008  0.00  0.00    -0.279 OA
BRANCH   4   7
ATOM      7  C   UNL     1      -0.572  -6.342   0.153  0.00  0.00    +0.151 C 
BRANCH   7  12
ATOM      8  C   UNL     1       5.013  -7.165   1.182  0.00  0.00    +0.063 C 
ATOM      9  C   UNL     1       3.551  -6.939   0.893  0.00  0.00    +0.014 A 
ATOM     10  C   UNL     1       3.178  -6.283  -0.262  0.00  0.00    +0.021 A 
ATOM     11  C   UNL     1       1.830  -6.077  -0.523  0.00  0.00    +0.010 A 
ATOM     12  C   UNL     1       0.902  -6.542   0.392  0.00  0.00    +0.008 A 
ATOM     13  C   UNL     1       1.349  -7.195   1.536  0.00  0.00    +0.098 A 
ATOM     14  N   UNL     1       2.644  -7.377   1.746  0.00  0.00    -0.347 N 
ATOM     15  H   UNL     1       2.933  -7.839   2.548  0.00  0.00    +0.167 HD
BRANCH  13  16
ATOM     16  N   UNL     1       0.428  -7.667   2.463  0.00  0.00    -0.344 N 
ATOM     17  H   UNL     1      -0.521  -7.629   2.267  0.00  0.00    +0.144 HD
ATOM     18  H   UNL     1       0.734  -8.034   3.307  0.00  0.00    +0.144 HD
ENDBRANCH  13  16
ENDBRANCH   7  12
ENDBRANCH   4   7
ENDBRANCH   1   4
BRANCH   2  19
ATOM     19  C   UNL     1      -3.373  -6.279   3.639  0.00  0.00    +0.085 C 
BRANCH  19  20
ATOM     20  C   UNL     1      -4.413  -5.207   3.971  0.00  0.00    +0.237 C 
BRANCH  20  21
ATOM     21  O   UNL     1      -4.971  -5.468   5.261  0.00  0.00    -0.461 OA
BRANCH  21  22
ATOM     22  C   UNL     1      -5.909  -4.609   5.706  0.00  0.00    +0.339 C 
ATOM     23  O   UNL     1      -6.244  -3.665   5.019  0.00  0.00    -0.245 OA
BRANCH  22  24
ATOM     24  C   UNL     1      -6.531  -4.816   7.030  0.00  0.00    +0.059 A 
ATOM     25  C   UNL     1      -6.144  -5.897   7.825  0.00  0.00    +0.015 A 
ATOM     26  C   UNL     1      -6.729  -6.084   9.060  0.00  0.00    +0.001 A 
ATOM     27  C   UNL     1      -7.696  -5.204   9.512  0.00  0.00    +0.000 A 
ATOM     28  C   UNL     1      -8.084  -4.131   8.729  0.00  0.00    +0.001 A 
ATOM     29  C   UNL     1      -7.503  -3.929   7.495  0.00  0.00    +0.015 A 
ENDBRANCH  22  24
ENDBRANCH  21  22
ENDBRANCH  20  21
ENDBRANCH  19  20
ENDBRANCH   2  19
BRANCH   2  30
ATOM     30  S   UNL     1      -3.637  -6.525   0.829  0.00  0.00    -0.050 S 
BRANCH  30  31
ATOM     31  C   UNL     1      -3.595  -8.284   0.918  0.00  0.00    +0.224 C 
ATOM     32  O   UNL     1      -3.109  -8.832   1.889  0.00  0.00    -0.279 OA
BRANCH  31  33
ATOM     33  C   UNL     1      -4.150  -9.094  -0.187  0.00  0.00    +0.029 A 
ATOM     34  C   UNL     1      -4.603  -8.473  -1.352  0.00  0.00    +0.012 A 
ATOM     35  C   UNL     1      -5.120  -9.234  -2.380  0.00  0.00    +0.001 A 
ATOM     36  C   UNL     1      -5.191 -10.611  -2.256  0.00  0.00    +0.000 A 
ATOM     37  C   UNL     1      -4.745 -11.232  -1.104  0.00  0.00    +0.001 A 
ATOM     38  C   UNL     1      -4.219 -10.483  -0.072  0.00  0.00    +0.012 A 
ENDBRANCH  31  33
ENDBRANCH  30  31
ENDBRANCH   2  30
TORSDOF 12
