REMARK  Name = ZINC54641828
REMARK  10 active torsions:
REMARK  status: ('A' for Active; 'I' for Inactive)
REMARK    1  A    between atoms: C_1  and  C_2
REMARK    2  A    between atoms: C_3  and  C_28
REMARK    3  A    between atoms: C_4  and  C_21
REMARK    4  A    between atoms: C_9  and  S_11
REMARK    5  A    between atoms: S_11  and  C_12
REMARK    6  A    between atoms: C_12  and  C_13
REMARK    7  A    between atoms: C_24  and  O_27
REMARK    8  A    between atoms: C_28  and  O_30
REMARK    9  A    between atoms: O_30  and  C_31
REMARK   10  A    between atoms: C_31  and  C_32
REMARK                            x       y       z     vdW  Elec       q    Type
REMARK                         _______ _______ _______ _____ _____    ______ ____
ROOT
ATOM      1  C   UNL     1      -0.018   1.503   0.010  0.00  0.00    +0.061 C 
ATOM      2  C   UNL     1       0.002  -0.004   0.002  0.00  0.00    +0.020 C 
ATOM      3  C   UNL     1      -1.164  -0.669   0.004  0.00  0.00    +0.082 C 
ATOM      4  C   UNL     1      -1.253  -2.171  -0.016  0.00  0.00    +0.179 C 
ATOM      5  N   UNL     1       0.065  -2.740   0.256  0.00  0.00    -0.220 N 
ATOM      6  C   UNL     1       1.210  -2.015   0.250  0.00  0.00    +0.219 A 
ATOM      7  N   UNL     1       2.201  -2.820   0.521  0.00  0.00    -0.187 NA
ATOM      8  C   UNL     1       1.731  -4.062   0.710  0.00  0.00    +0.211 A 
ATOM      9  N   UNL     1       0.424  -4.053   0.557  0.00  0.00    -0.141 NA
ATOM     10  N   UNL     1       1.212  -0.651  -0.013  0.00  0.00    -0.287 N 
ATOM     11  H   UNL     1       2.037  -0.173  -0.196  0.00  0.00    +0.155 HD
ENDROOT
BRANCH   4  12
ATOM     12  C   UNL     1      -1.728  -2.629  -1.371  0.00  0.00    -0.018 A 
ATOM     13  C   UNL     1      -0.989  -2.327  -2.499  0.00  0.00    +0.009 A 
ATOM     14  C   UNL     1      -1.423  -2.745  -3.743  0.00  0.00    +0.046 A 
ATOM     15  C   UNL     1      -2.602  -3.468  -3.858  0.00  0.00    +0.117 A 
ATOM     16  C   UNL     1      -3.341  -3.770  -2.724  0.00  0.00    +0.046 A 
ATOM     17  C   UNL     1      -2.900  -3.354  -1.482  0.00  0.00    +0.009 A 
BRANCH  15  18
ATOM     18  O   UNL     1      -3.031  -3.880  -5.080  0.00  0.00    -0.507 OA
ATOM     19  H   UNL     1      -2.702  -4.752  -5.339  0.00  0.00    +0.292 HD
ENDBRANCH  15  18
ENDBRANCH   4  12
BRANCH   3  20
ATOM     20  C   UNL     1      -2.364   0.077   0.026  0.00  0.00    +0.339 C 
ATOM     21  O   UNL     1      -2.324   1.293   0.043  0.00  0.00    -0.245 OA
BRANCH  20  22
ATOM     22  O   UNL     1      -3.554  -0.560   0.029  0.00  0.00    -0.457 OA
BRANCH  22  23
ATOM     23  C   UNL     1      -4.726   0.257   0.052  0.00  0.00    +0.259 C 
BRANCH  23  24
ATOM     24  C   UNL     1      -5.951  -0.622   0.051  0.00  0.00    +0.006 C 
ATOM     25  C   UNL     1      -6.943  -0.364   0.867  0.00  0.00    +0.007 C 
ENDBRANCH  23  24
ENDBRANCH  22  23
ENDBRANCH  20  22
ENDBRANCH   3  20
BRANCH   8  26
ATOM     26  S   UNL     1       2.706  -5.476   1.101  0.00  0.00    -0.080 S 
BRANCH  26  27
ATOM     27  C   UNL     1       4.401  -4.835   1.173  0.00  0.00    +0.115 C 
BRANCH  27  28
ATOM     28  C   UNL     1       5.349  -5.959   1.504  0.00  0.00    -0.002 A 
ATOM     29  C   UNL     1       5.644  -6.249   2.823  0.00  0.00    +0.007 A 
ATOM     30  C   UNL     1       6.514  -7.279   3.127  0.00  0.00    +0.000 A 
ATOM     31  C   UNL     1       7.090  -8.021   2.112  0.00  0.00    +0.003 A 
ATOM     32  C   UNL     1       6.797  -7.733   0.793  0.00  0.00    +0.038 A 
ATOM     33  C   UNL     1       5.921  -6.704   0.487  0.00  0.00    +0.127 A 
ATOM     34  F   UNL     1       5.630  -6.425  -0.802  0.00  0.00    -0.205 F 
ENDBRANCH  27  28
ENDBRANCH  26  27
ENDBRANCH   8  26
TORSDOF 9
