REMARK  Name = ZINC08789279
REMARK  7 active torsions:
REMARK  status: ('A' for Active; 'I' for Inactive)
REMARK    1  A    between atoms: C_1  and  O_2
REMARK    2  A    between atoms: O_2  and  C_3
REMARK    3  A    between atoms: C_8  and  C_9
REMARK    4  A    between atoms: C_9  and  N_10
REMARK    5  A    between atoms: C_15  and  C_31
REMARK    6  A    between atoms: C_31  and  C_32
REMARK    7  A    between atoms: C_35  and  O_38
REMARK                            x       y       z     vdW  Elec       q    Type
REMARK                         _______ _______ _______ _____ _____    ______ ____
ROOT
ATOM      1  N   UNL     1       1.023   1.902   0.022  0.00  0.00    -0.237 N 
ATOM      2  C   UNL     1       0.001   1.040  -0.013  0.00  0.00    +0.224 C 
ATOM      3  O   UNL     1       0.103  -0.167  -0.073  0.00  0.00    -0.275 OA
ATOM      4  C   UNL     1      -1.303   1.804   0.028  0.00  0.00    +0.073 C 
ATOM      5  C   UNL     1      -2.026   1.664  -1.322  0.00  0.00    -0.053 C 
ATOM      6  C   UNL     1      -1.330   3.893  -1.232  0.00  0.00    +0.050 C 
ATOM      7  C   UNL     1      -0.846   3.289   0.093  0.00  0.00    +0.088 C 
ATOM      8  C   UNL     1       0.663   3.189   0.084  0.00  0.00    +0.225 C 
ATOM      9  O   UNL     1       1.427   4.129   0.126  0.00  0.00    -0.275 OA
ATOM     10  C   UNL     1      -0.367   4.920  -1.756  0.00  0.00    -0.028 A 
ATOM     11  C   UNL     1       0.962   4.879  -2.114  0.00  0.00    +0.004 A 
ATOM     12  C   UNL     1       1.591   6.021  -2.575  0.00  0.00    +0.000 A 
ATOM     13  C   UNL     1       0.881   7.205  -2.675  0.00  0.00    +0.002 A 
ATOM     14  C   UNL     1      -0.450   7.251  -2.317  0.00  0.00    +0.023 A 
ATOM     15  C   UNL     1      -1.091   6.105  -1.852  0.00  0.00    +0.036 A 
ATOM     16  N   UNL     1      -2.409   5.902  -1.436  0.00  0.00    -0.286 N 
ATOM     17  C   UNL     1      -2.631   4.628  -1.056  0.00  0.00    +0.211 C 
ATOM     18  O   UNL     1      -3.676   4.165  -0.651  0.00  0.00    -0.277 OA
ATOM     19  H   UNL     1      -3.085   6.596  -1.423  0.00  0.00    +0.155 HD
ATOM     20  N   UNL     1      -1.483   2.760  -2.128  0.00  0.00    +0.394 N 
ATOM     21  H   UNL     1      -2.130   2.995  -2.889  0.00  0.00    -0.083 HD
ATOM     22  H   UNL     1      -0.573   2.494  -2.522  0.00  0.00    -0.083 HD
ENDROOT
BRANCH   1  23
ATOM     23  C   UNL     1       2.423   1.472  -0.004  0.00  0.00    +0.155 C 
BRANCH  23  29
ATOM     24  C   UNL     1       2.678   0.291   2.193  0.00  0.00    +0.125 A 
ATOM     25  C   UNL     1       3.168   0.227   3.490  0.00  0.00    +0.046 A 
ATOM     26  C   UNL     1       3.928   1.265   3.992  0.00  0.00    +0.004 A 
ATOM     27  C   UNL     1       4.201   2.368   3.204  0.00  0.00    +0.001 A 
ATOM     28  C   UNL     1       3.718   2.433   1.910  0.00  0.00    +0.009 A 
ATOM     29  C   UNL     1       2.953   1.399   1.404  0.00  0.00    +0.012 A 
BRANCH  24  31
ATOM     30  C   UNL     1       1.589  -1.783   2.600  0.00  0.00    +0.277 C 
ATOM     31  O   UNL     1       1.930  -0.729   1.697  0.00  0.00    -0.495 OA
ENDBRANCH  24  31
ENDBRANCH  23  29
ENDBRANCH   1  23
BRANCH   5  32
ATOM     32  C   UNL     1      -1.722   0.304  -1.952  0.00  0.00    +0.020 C 
BRANCH  32  33
ATOM     33  C   UNL     1      -2.477   0.171  -3.250  0.00  0.00    -0.049 A 
ATOM     34  C   UNL     1      -3.747  -0.374  -3.257  0.00  0.00    +0.007 A 
ATOM     35  C   UNL     1      -4.443  -0.491  -4.444  0.00  0.00    +0.045 A 
ATOM     36  C   UNL     1      -3.862  -0.072  -5.632  0.00  0.00    +0.117 A 
ATOM     37  C   UNL     1      -2.585   0.470  -5.623  0.00  0.00    +0.045 A 
ATOM     38  C   UNL     1      -1.895   0.590  -4.432  0.00  0.00    +0.007 A 
BRANCH  36  39
ATOM     39  O   UNL     1      -4.542  -0.192  -6.802  0.00  0.00    -0.507 OA
ATOM     40  H   UNL     1      -4.396  -1.033  -7.257  0.00  0.00    +0.292 HD
ENDBRANCH  36  39
ENDBRANCH  32  33
ENDBRANCH   5  32
TORSDOF 6
