REMARK  Name = ZINC55490723
REMARK  4 active torsions:
REMARK  status: ('A' for Active; 'I' for Inactive)
REMARK    1  A    between atoms: C_3  and  C_6
REMARK    2  A    between atoms: C_15  and  C_17
REMARK    3  A    between atoms: C_20  and  S_23
REMARK    4  A    between atoms: S_23  and  N_26
REMARK                            x       y       z     vdW  Elec       q    Type
REMARK                         _______ _______ _______ _____ _____    ______ ____
ROOT
ATOM      1  C   UNL     1       3.740   1.823  -0.024  0.00  0.00    +0.010 A 
ATOM      2  C   UNL     1       4.130   2.771  -0.914  0.00  0.00    +0.057 A 
ATOM      3  S   UNL     1       5.852   3.018  -0.526  0.00  0.00    -0.076 S 
ATOM      4  C   UNL     1       6.009   1.857   0.807  0.00  0.00    +0.116 A 
ATOM      5  C   UNL     1       4.720   1.308   0.925  0.00  0.00    +0.080 A 
ATOM      6  C   UNL     1       4.553   0.323   1.950  0.00  0.00    +0.261 A 
ATOM      7  O   UNL     1       3.471  -0.211   2.122  0.00  0.00    -0.267 OA
ATOM      8  N   UNL     1       5.606  -0.006   2.720  0.00  0.00    -0.306 N 
ATOM      9  H   UNL     1       5.498  -0.674   3.415  0.00  0.00    +0.170 HD
ATOM     10  C   UNL     1       6.827   0.583   2.539  0.00  0.00    +0.142 A 
ATOM     11  N   UNL     1       7.008   1.485   1.597  0.00  0.00    -0.222 NA
ENDROOT
BRANCH  10  12
ATOM     12  C   UNL     1       7.960   0.196   3.405  0.00  0.00    +0.017 A 
ATOM     13  C   UNL     1       7.785  -0.771   4.397  0.00  0.00    +0.013 A 
ATOM     14  C   UNL     1       8.847  -1.129   5.201  0.00  0.00    +0.029 A 
ATOM     15  C   UNL     1      10.083  -0.532   5.027  0.00  0.00    +0.105 A 
ATOM     16  C   UNL     1      10.263   0.427   4.046  0.00  0.00    +0.029 A 
ATOM     17  C   UNL     1       9.211   0.790   3.230  0.00  0.00    +0.013 A 
BRANCH  15  18
ATOM     18  S   UNL     1      11.434  -0.995   6.059  0.00  0.00    +0.056 S 
ATOM     19  O   UNL     1      12.341   0.099   6.056  0.00  0.00    -0.153 OA
ATOM     20  O   UNL     1      10.871  -1.515   7.256  0.00  0.00    -0.153 OA
BRANCH  18  21
ATOM     21  N   UNL     1      12.209  -2.255   5.315  0.00  0.00    -0.204 NA
ATOM     22  H   UNL     1      13.163  -2.380   5.442  0.00  0.00    +0.144 HD
ATOM     23  H   UNL     1      11.710  -2.867   4.752  0.00  0.00    +0.144 HD
ENDBRANCH  18  21
ENDBRANCH  15  18
ENDBRANCH  10  12
BRANCH   1  26
ATOM     24  C   UNL     1      -0.016   1.353   0.009  0.00  0.00    +0.008 A 
ATOM     25  C   UNL     1       1.179   2.041   0.002  0.00  0.00    +0.016 A 
ATOM     26  C   UNL     1       2.348   1.328  -0.013  0.00  0.00    +0.021 A 
ATOM     27  S   UNL     1       1.752  -0.355  -0.017  0.00  0.00    -0.097 S 
ATOM     28  C   UNL     1       0.002  -0.004   0.002  0.00  0.00    +0.046 A 
ENDBRANCH   1  26
TORSDOF 4
