REMARK  Name = ZINC08753235
REMARK  7 active torsions:
REMARK  status: ('A' for Active; 'I' for Inactive)
REMARK    1  A    between atoms: C_1  and  C_2
REMARK    2  A    between atoms: C_2  and  N_3
REMARK    3  A    between atoms: C_9  and  N_10
REMARK    4  A    between atoms: C_9  and  O_21
REMARK    5  A    between atoms: N_15  and  C_16
REMARK    6  A    between atoms: C_16  and  C_18
REMARK    7  A    between atoms: C_23  and  C_25
REMARK                            x       y       z     vdW  Elec       q    Type
REMARK                         _______ _______ _______ _____ _____    ______ ____
ROOT
ATOM      1  N   UNL     1      -5.366   5.710   1.846  0.00  0.00    -0.237 N 
ATOM      2  C   UNL     1      -4.146   5.142   1.555  0.00  0.00    +0.147 A 
ATOM      3  C   UNL     1      -4.400   3.789   1.214  0.00  0.00    +0.044 A 
ATOM      4  C   UNL     1      -5.774   3.580   1.311  0.00  0.00    +0.100 C 
ATOM      5  N   UNL     1      -6.352   4.729   1.689  0.00  0.00    -0.269 N 
ATOM      6  C   UNL     1      -3.267   2.933   0.855  0.00  0.00    +0.050 A 
ATOM      7  C   UNL     1      -3.461   1.518   0.491  0.00  0.00    +0.221 C 
ATOM      8  C   UNL     1      -1.997   3.510   0.876  0.00  0.00    +0.042 A 
ATOM      9  C   UNL     1      -1.867   4.855   1.222  0.00  0.00    +0.074 A 
ATOM     10  N   UNL     1      -2.912   5.607   1.544  0.00  0.00    -0.230 NA
ATOM     11  H   UNL     1      -7.303   4.859   1.831  0.00  0.00    +0.170 HD
ENDROOT
BRANCH   7  12
ATOM     12  N   UNL     1      -2.422   0.738   0.321  0.00  0.00    -0.213 NA
ATOM     13  C   UNL     1      -1.565   0.509   1.356  0.00  0.00    +0.068 C 
ATOM     14  C   UNL     1      -0.389  -0.220   1.143  0.00  0.00    +0.030 C 
ATOM     15  C   UNL     1       0.472  -0.444   2.178  0.00  0.00    +0.027 C 
ATOM     16  C   UNL     1       0.175   0.049   3.454  0.00  0.00    +0.057 C 
ATOM     17  N   UNL     1       1.036  -0.176   4.490  0.00  0.00    -0.181 NA
ATOM     18  C   UNL     1      -1.003   0.773   3.669  0.00  0.00    +0.027 C 
ATOM     19  C   UNL     1      -1.865   0.997   2.634  0.00  0.00    +0.030 C 
BRANCH  17  20
ATOM     20  C   UNL     1       2.264  -0.586   4.248  0.00  0.00    +0.234 C 
ATOM     21  O   UNL     1       2.668  -0.658   3.100  0.00  0.00    -0.274 OA
ATOM     22  C   UNL     1       3.170  -0.968   5.390  0.00  0.00    +0.111 C 
ENDBRANCH  17  20
ENDBRANCH   7  12
BRANCH   9  23
ATOM     23  C   UNL     1      -0.516   5.463   1.236  0.00  0.00    +0.000 A 
ATOM     24  C   UNL     1       0.587   4.728   0.800  0.00  0.00    +0.010 A 
ATOM     25  C   UNL     1       1.842   5.302   0.811  0.00  0.00    +0.001 A 
ATOM     26  C   UNL     1       2.009   6.598   1.264  0.00  0.00    +0.000 A 
ATOM     27  C   UNL     1       0.920   7.330   1.704  0.00  0.00    +0.001 A 
ATOM     28  C   UNL     1      -0.341   6.769   1.692  0.00  0.00    +0.010 A 
ENDBRANCH   9  23
BRANCH   1  30
ATOM     29  C   UNL     1      -5.827   7.961   1.007  0.00  0.00    +0.026 C 
ATOM     30  C   UNL     1      -5.593   7.100   2.250  0.00  0.00    +0.126 C 
ENDBRANCH   1  30
BRANCH   7  31
ATOM     31  O   UNL     1      -4.711   1.025   0.332  0.00  0.00    -0.492 OA
ATOM     32  H   UNL     1      -5.409   1.691   0.402  0.00  0.00    +0.294 HD
ENDBRANCH   7  31
TORSDOF 5
