REMARK  Name = ZINC14475752
REMARK  3 active torsions:
REMARK  status: ('A' for Active; 'I' for Inactive)
REMARK    1  A    between atoms: C_3  and  O_28
REMARK    2  A    between atoms: C_4  and  C_10
REMARK    3  A    between atoms: C_6  and  N_7
REMARK                            x       y       z     vdW  Elec       q    Type
REMARK                         _______ _______ _______ _____ _____    ______ ____
ROOT
ATOM      1  C   UNL     1       1.479   4.486  -0.045  0.00  0.00    +0.108 C 
ATOM      2  C   UNL     1       0.679   3.322  -0.599  0.00  0.00    +0.029 C 
ATOM      3  C   UNL     1      -0.757   3.309  -0.025  0.00  0.00    +0.033 C 
ATOM      4  C   UNL     1      -1.130   1.839  -0.082  0.00  0.00    -0.030 C 
ATOM      5  C   UNL     1      -0.053   1.094  -0.113  0.00  0.00    -0.023 C 
ATOM      6  C   UNL     1       1.196   1.965  -0.087  0.00  0.00    +0.050 C 
ATOM      7  C   UNL     1       1.668   2.034   1.340  0.00  0.00    -0.001 A 
ATOM      8  C   UNL     1       1.781   3.223   2.038  0.00  0.00    +0.034 A 
ATOM      9  C   UNL     1       2.217   3.228   3.358  0.00  0.00    +0.043 A 
ATOM     10  C   UNL     1       2.545   2.039   3.982  0.00  0.00    +0.044 A 
ATOM     11  C   UNL     1       2.436   0.847   3.287  0.00  0.00    +0.040 A 
ATOM     12  C   UNL     1       2.001   0.844   1.976  0.00  0.00    +0.048 A 
ATOM     13 CL   UNL     1       1.869  -0.659   1.115  0.00  0.00    -0.083 Cl
ATOM     14 CL   UNL     1       3.090   2.040   5.630  0.00  0.00    -0.083 Cl
ATOM     15  N   UNL     1       1.462   4.438   1.422  0.00  0.00    -0.336 N 
ATOM     16  H   UNL     1       1.205   5.339   1.998  0.00  0.00    +0.147 HD
ENDROOT
BRANCH   1  20
ATOM     17  C   UNL     1       5.515   4.231  -1.431  0.00  0.00    +0.036 A 
ATOM     18  C   UNL     1       4.528   4.707  -2.273  0.00  0.00    +0.048 A 
ATOM     19  C   UNL     1       3.218   4.790  -1.826  0.00  0.00    +0.122 A 
ATOM     20  C   UNL     1       2.901   4.396  -0.534  0.00  0.00    +0.017 A 
ATOM     21  C   UNL     1       3.893   3.925   0.306  0.00  0.00    +0.041 A 
ATOM     22  C   UNL     1       5.197   3.838  -0.144  0.00  0.00    +0.127 A 
BRANCH  22  23
ATOM     23  N   UNL     1       6.256   3.328   0.755  0.00  0.00    +0.056 N 
ATOM     24  O   UNL     1       7.407   3.255   0.362  0.00  0.00    -0.126 OA
ATOM     25  O   UNL     1       5.977   2.982   1.889  0.00  0.00    -0.126 OA
ENDBRANCH  22  23
BRANCH  19  26
ATOM     26  O   UNL     1       2.245   5.258  -2.652  0.00  0.00    -0.506 OA
ATOM     27  H   UNL     1       1.206   5.324  -2.296  0.00  0.00    +0.292 HD
ENDBRANCH  19  26
ENDBRANCH   1  20
TORSDOF 3
