REMARK  Name = ZINC35645739
REMARK  14 active torsions:
REMARK  status: ('A' for Active; 'I' for Inactive)
REMARK    1  A    between atoms: C_3  and  O_10
REMARK    2  A    between atoms: C_6  and  N_7
REMARK    3  A    between atoms: O_10  and  C_11
REMARK    4  A    between atoms: C_13  and  O_42
REMARK    5  A    between atoms: C_15  and  O_25
REMARK    6  A    between atoms: C_17  and  O_24
REMARK    7  A    between atoms: C_19  and  C_22
REMARK    8  A    between atoms: C_22  and  O_23
REMARK    9  A    between atoms: O_25  and  C_26
REMARK   10  A    between atoms: C_28  and  O_41
REMARK   11  A    between atoms: C_30  and  O_40
REMARK   12  A    between atoms: C_32  and  O_39
REMARK   13  A    between atoms: C_34  and  C_37
REMARK   14  A    between atoms: C_37  and  O_38
REMARK                            x       y       z     vdW  Elec       q    Type
REMARK                         _______ _______ _______ _____ _____    ______ ____
ROOT
ATOM      1  C   UNL     1       4.756   1.341  -0.037  0.00  0.00    +0.339 C 
ATOM      2  C   UNL     1       5.950   2.268   0.206  0.00  0.00    +0.214 C 
ATOM      3  C   UNL     1       6.031   3.291  -0.931  0.00  0.00    +0.187 C 
ATOM      4  C   UNL     1       6.136   2.547  -2.265  0.00  0.00    +0.177 C 
ATOM      5  C   UNL     1       4.936   1.608  -2.413  0.00  0.00    +0.179 C 
ATOM      6  O   UNL     1       4.901   0.703  -1.308  0.00  0.00    -0.331 OA
ENDROOT
BRANCH   4   7
ATOM      7  O   UNL     1       6.141   3.490  -3.339  0.00  0.00    -0.386 OA
ATOM      8  H   UNL     1       6.206   3.087  -4.216  0.00  0.00    +0.210 HD
ENDBRANCH   4   7
BRANCH   2   9
ATOM      9  O   UNL     1       7.153   1.499   0.245  0.00  0.00    -0.383 OA
ATOM     10  H   UNL     1       7.168   0.827   0.941  0.00  0.00    +0.210 HD
ENDBRANCH   2   9
BRANCH   1  11
ATOM     11  O   UNL     1       3.548   2.104  -0.021  0.00  0.00    -0.461 OA
BRANCH  11  14
ATOM     12  C   UNL     1      -0.017   1.378   0.010  0.00  0.00    +0.036 A 
ATOM     13  C   UNL     1       1.169   2.087   0.002  0.00  0.00    +0.048 A 
ATOM     14  C   UNL     1       2.380   1.409  -0.013  0.00  0.00    +0.124 A 
ATOM     15  C   UNL     1       2.396   0.022  -0.021  0.00  0.00    +0.048 A 
ATOM     16  C   UNL     1       1.207  -0.681  -0.013  0.00  0.00    +0.036 A 
ATOM     17  C   UNL     1       0.002  -0.004   0.002  0.00  0.00    +0.126 A 
BRANCH  17  18
ATOM     18  N   UNL     1      -1.270  -0.760   0.011  0.00  0.00    +0.056 N 
ATOM     19  O   UNL     1      -2.325  -0.169   0.024  0.00  0.00    -0.126 OA
ATOM     20  O   UNL     1      -1.255  -1.969   0.004  0.00  0.00    -0.126 OA
ENDBRANCH  17  18
ENDBRANCH  11  14
ENDBRANCH   1  11
BRANCH   5  21
ATOM     21  C   UNL     1       5.064   0.817  -3.716  0.00  0.00    +0.190 C 
BRANCH  21  22
ATOM     22  O   UNL     1       3.889   0.028  -3.912  0.00  0.00    -0.392 OA
ATOM     23  H   UNL     1       3.901  -0.502  -4.721  0.00  0.00    +0.210 HD
ENDBRANCH  21  22
ENDBRANCH   5  21
BRANCH   3  24
ATOM     24  O   UNL     1       7.184   4.117  -0.750  0.00  0.00    -0.340 OA
BRANCH  24  25
ATOM     25  C   UNL     1       6.941   5.291   0.027  0.00  0.00    +0.282 C 
ATOM     26  C   UNL     1       8.261   6.030   0.260  0.00  0.00    +0.201 C 
ATOM     27  C   UNL     1       8.833   6.476  -1.089  0.00  0.00    +0.179 C 
ATOM     28  C   UNL     1       7.798   7.347  -1.808  0.00  0.00    +0.177 C 
ATOM     29  C   UNL     1       6.496   6.556  -1.961  0.00  0.00    +0.178 C 
ATOM     30  O   UNL     1       6.035   6.146  -0.672  0.00  0.00    -0.341 OA
BRANCH  28  31
ATOM     31  O   UNL     1       7.554   8.528  -1.042  0.00  0.00    -0.386 OA
ATOM     32  H   UNL     1       8.339   9.075  -0.902  0.00  0.00    +0.210 HD
ENDBRANCH  28  31
BRANCH  27  33
ATOM     33  O   UNL     1      10.029   7.229  -0.876  0.00  0.00    -0.386 OA
ATOM     34  H   UNL     1      10.726   6.739  -0.419  0.00  0.00    +0.210 HD
ENDBRANCH  27  33
BRANCH  26  35
ATOM     35  O   UNL     1       9.189   5.159   0.909  0.00  0.00    -0.384 OA
ATOM     36  H   UNL     1       8.888   4.834   1.769  0.00  0.00    +0.210 HD
ENDBRANCH  26  35
BRANCH  29  37
ATOM     37  C   UNL     1       5.438   7.440  -2.624  0.00  0.00    +0.190 C 
BRANCH  37  38
ATOM     38  O   UNL     1       4.261   6.669  -2.873  0.00  0.00    -0.392 OA
ATOM     39  H   UNL     1       3.546   7.167  -3.294  0.00  0.00    +0.210 HD
ENDBRANCH  37  38
ENDBRANCH  29  37
ENDBRANCH  24  25
ENDBRANCH   3  24
TORSDOF 14
