REMARK  Name = ZINC11405504
REMARK  7 active torsions:
REMARK  status: ('A' for Active; 'I' for Inactive)
REMARK    1  A    between atoms: C_4  and  C_7
REMARK    2  A    between atoms: C_7  and  C_24
REMARK    3  A    between atoms: N_8  and  N_9
REMARK    4  A    between atoms: C_10  and  C_12
REMARK    5  A    between atoms: C_12  and  C_13
REMARK    6  A    between atoms: C_13  and  C_15
REMARK    7  A    between atoms: C_13  and  N_20
REMARK                            x       y       z     vdW  Elec       q    Type
REMARK                         _______ _______ _______ _____ _____    ______ ____
ROOT
ATOM      1  N   UNL     1       4.726   1.333  -0.245  0.00  0.00    -0.206 N 
ATOM      2  C   UNL     1       5.913   1.965  -0.332  0.00  0.00    +0.234 C 
ATOM      3  O   UNL     1       6.940   1.322  -0.391  0.00  0.00    -0.274 OA
ATOM      4  H   UNL     1       3.905   1.848  -0.198  0.00  0.00    +0.177 HD
ENDROOT
BRANCH   1   6
ATOM      5  C   UNL     1       3.525  -0.681  -0.249  0.00  0.00    +0.096 C 
ATOM      6  N   UNL     1       4.678  -0.067  -0.224  0.00  0.00    -0.179 NA
BRANCH   5  10
ATOM      7  C   UNL     1      -0.048   1.530  -0.885  0.00  0.00    +0.000 A 
ATOM      8  C   UNL     1       1.074   1.799  -1.649  0.00  0.00    +0.001 A 
ATOM      9  C   UNL     1       2.237   1.085  -1.448  0.00  0.00    +0.010 A 
ATOM     10  C   UNL     1       2.280   0.090  -0.470  0.00  0.00    +0.002 A 
ATOM     11  C   UNL     1       1.146  -0.176   0.297  0.00  0.00    +0.010 A 
ATOM     12  C   UNL     1      -0.011   0.545   0.085  0.00  0.00    +0.001 A 
ENDBRANCH   5  10
BRANCH   5  13
ATOM     13  C   UNL     1       3.463  -2.147  -0.056  0.00  0.00    +0.002 A 
ATOM     14  C   UNL     1       2.263  -2.830  -0.257  0.00  0.00    +0.010 A 
ATOM     15  C   UNL     1       2.212  -4.197  -0.075  0.00  0.00    +0.001 A 
ATOM     16  C   UNL     1       3.348  -4.890   0.306  0.00  0.00    +0.000 A 
ATOM     17  C   UNL     1       4.540  -4.219   0.506  0.00  0.00    +0.001 A 
ATOM     18  C   UNL     1       4.606  -2.853   0.322  0.00  0.00    +0.010 A 
ENDBRANCH   5  13
ENDBRANCH   1   6
BRANCH   2  19
ATOM     19  C   UNL     1       5.965   3.471  -0.354  0.00  0.00    +0.125 C 
BRANCH  19  20
ATOM     20  C   UNL     1       7.421   3.930  -0.456  0.00  0.00    +0.120 C 
BRANCH  20  21
ATOM     21  N   UNL     1       7.979   3.503  -1.742  0.00  0.00    -0.292 N 
ATOM     22  C   UNL     1       7.422   3.930  -2.893  0.00  0.00    +0.298 C 
ATOM     23  O   UNL     1       6.457   4.669  -2.863  0.00  0.00    -0.253 OA
ATOM     24  N   UNL     1       7.934   3.538  -4.076  0.00  0.00    -0.313 N 
ATOM     25  H   UNL     1       8.749   2.914  -1.765  0.00  0.00    +0.151 HD
ATOM     26  H   UNL     1       8.704   2.948  -4.099  0.00  0.00    +0.146 HD
ATOM     27  H   UNL     1       7.534   3.845  -4.904  0.00  0.00    +0.146 HD
ENDBRANCH  20  21
BRANCH  20  28
ATOM     28  C   UNL     1       7.483   5.432  -0.355  0.00  0.00    +0.010 A 
ATOM     29  C   UNL     1       7.801   6.203   0.714  0.00  0.00    +0.013 A 
ATOM     30  C   UNL     1       7.793   7.578   0.574  0.00  0.00    +0.008 A 
ATOM     31  C   UNL     1       7.468   8.115  -0.628  0.00  0.00    +0.045 A 
ATOM     32  S   UNL     1       7.165   6.657  -1.613  0.00  0.00    -0.100 S 
ENDBRANCH  20  28
ENDBRANCH  19  20
ENDBRANCH   2  19
TORSDOF 7
