REMARK  Name = ZINC46704687
REMARK  5 active torsions:
REMARK  status: ('A' for Active; 'I' for Inactive)
REMARK    1  A    between atoms: C_6  and  S_7
REMARK    2  A    between atoms: S_7  and  N_10
REMARK    3  A    between atoms: N_10  and  C_11
REMARK    4  A    between atoms: C_11  and  C_12
REMARK    5  A    between atoms: C_12  and  C_13
REMARK                            x       y       z     vdW  Elec       q    Type
REMARK                         _______ _______ _______ _____ _____    ______ ____
ROOT
ATOM      1  S   UNL     1      -1.514  -0.902   0.012  0.00  0.00    +0.058 S 
ATOM      2  O   UNL     1      -1.223  -2.183   0.553  0.00  0.00    -0.153 OA
ATOM      3  O   UNL     1      -2.493  -0.041   0.577  0.00  0.00    -0.153 OA
ENDROOT
BRANCH   1   9
ATOM      4  C   UNL     1      -0.017   1.380   0.010  0.00  0.00    +0.030 A 
ATOM      5  C   UNL     1       1.167   2.093   0.002  0.00  0.00    +0.030 A 
ATOM      6  C   UNL     1       2.378   1.419  -0.013  0.00  0.00    +0.067 A 
ATOM      7  C   UNL     1       2.397   0.022  -0.021  0.00  0.00    +0.069 A 
ATOM      8  C   UNL     1       1.204  -0.684  -0.014  0.00  0.00    +0.056 A 
ATOM      9  C   UNL     1       0.002  -0.004   0.002  0.00  0.00    +0.107 A 
ATOM     10  N   UNL     1       3.736  -0.362  -0.035  0.00  0.00    -0.306 N 
ATOM     11  H   UNL     1       4.064  -1.275  -0.043  0.00  0.00    +0.170 HD
ATOM     12  C   UNL     1       4.496   0.749  -0.035  0.00  0.00    +0.325 A 
ATOM     13  O   UNL     1       5.713   0.766  -0.047  0.00  0.00    -0.247 OA
ATOM     14  N   UNL     1       3.706   1.839  -0.023  0.00  0.00    -0.306 N 
ATOM     15  H   UNL     1       4.010   2.760  -0.020  0.00  0.00    +0.170 HD
ENDBRANCH   1   9
BRANCH   1  16
ATOM     16  N   UNL     1      -1.951  -1.143  -1.567  0.00  0.00    -0.190 NA
ATOM     17  H   UNL     1      -2.757  -0.732  -1.915  0.00  0.00    +0.148 HD
BRANCH  16  18
ATOM     18  C   UNL     1      -1.119  -1.977  -2.438  0.00  0.00    +0.110 C 
BRANCH  18  19
ATOM     19  C   UNL     1      -1.907  -2.345  -3.696  0.00  0.00    +0.053 C 
BRANCH  19  20
ATOM     20  C   UNL     1      -1.052  -3.203  -4.593  0.00  0.00    -0.028 A 
ATOM     21  C   UNL     1      -0.321  -2.622  -5.613  0.00  0.00    +0.006 A 
ATOM     22  C   UNL     1       0.464  -3.409  -6.435  0.00  0.00    +0.020 A 
ATOM     23  C   UNL     1       0.519  -4.777  -6.237  0.00  0.00    +0.042 A 
ATOM     24  C   UNL     1      -0.211  -5.358  -5.216  0.00  0.00    +0.040 A 
ATOM     25  C   UNL     1      -0.993  -4.570  -4.391  0.00  0.00    +0.046 A 
ATOM     26 CL   UNL     1      -1.906  -5.298  -3.105  0.00  0.00    -0.083 Cl
ATOM     27 CL   UNL     1       1.505  -5.764  -7.270  0.00  0.00    -0.083 Cl
ENDBRANCH  19  20
ENDBRANCH  18  19
ENDBRANCH  16  18
ENDBRANCH   1  16
TORSDOF 5
