REMARK  Name = ZINC13062900
REMARK  12 active torsions:
REMARK  status: ('A' for Active; 'I' for Inactive)
REMARK    1  A    between atoms: C_1  and  C_2
REMARK    2  A    between atoms: C_2  and  C_3
REMARK    3  A    between atoms: C_2  and  C_4
REMARK    4  A    between atoms: C_4  and  C_5
REMARK    5  A    between atoms: C_5  and  N_6
REMARK    6  A    between atoms: N_6  and  C_7
REMARK    7  A    between atoms: C_8  and  N_23
REMARK    8  A    between atoms: N_9  and  C_16
REMARK    9  A    between atoms: C_16  and  C_17
REMARK   10  A    between atoms: C_24  and  C_26
REMARK   11  A    between atoms: C_26  and  N_68
REMARK   12  A    between atoms: C_30  and  C_32
REMARK                            x       y       z     vdW  Elec       q    Type
REMARK                         _______ _______ _______ _____ _____    ______ ____
ROOT
ATOM      1  N   UNL     1       3.809   2.753  -4.671  0.00  0.00    -0.266 N 
ATOM      2  C   UNL     1       3.885   2.638  -3.329  0.00  0.00    +0.203 C 
ATOM      3  O   UNL     1       4.652   3.338  -2.702  0.00  0.00    -0.277 OA
ENDROOT
BRANCH   1   4
ATOM      4  C   UNL     1       4.549   3.754  -5.336  0.00  0.00    +0.140 A 
ATOM      5  C   UNL     1       4.287   5.089  -5.109  0.00  0.00    +0.128 A 
ATOM      6  N   UNL     1       5.027   6.041  -5.772  0.00  0.00    -0.276 N 
ATOM      7  C   UNL     1       5.993   5.674  -6.632  0.00  0.00    +0.331 A 
ATOM      8  O   UNL     1       6.636   6.531  -7.209  0.00  0.00    -0.246 OA
ATOM      9  N   UNL     1       6.263   4.378  -6.867  0.00  0.00    -0.273 N 
ATOM     10  H   UNL     1       6.984   4.132  -7.514  0.00  0.00    +0.173 HD
ATOM     11  C   UNL     1       5.572   3.406  -6.239  0.00  0.00    +0.277 A 
ATOM     12  O   UNL     1       5.827   2.234  -6.455  0.00  0.00    -0.266 OA
BRANCH   5  13
ATOM     13  N   UNL     1       3.300   5.464  -4.229  0.00  0.00    -0.343 N 
ATOM     14  H   UNL     1       2.800   4.788  -3.745  0.00  0.00    +0.144 HD
ATOM     15  H   UNL     1       3.104   6.404  -4.092  0.00  0.00    +0.144 HD
ENDBRANCH   5  13
BRANCH   6  16
ATOM     16  C   UNL     1       4.759   7.463  -5.540  0.00  0.00    +0.163 C 
BRANCH  16  17
ATOM     17  C   UNL     1       5.613   7.955  -4.399  0.00  0.00    -0.028 A 
ATOM     18  C   UNL     1       5.135   7.897  -3.103  0.00  0.00    +0.005 A 
ATOM     19  C   UNL     1       5.920   8.343  -2.057  0.00  0.00    +0.000 A 
ATOM     20  C   UNL     1       7.178   8.858  -2.308  0.00  0.00    +0.000 A 
ATOM     21  C   UNL     1       7.654   8.922  -3.604  0.00  0.00    +0.000 A 
ATOM     22  C   UNL     1       6.871   8.470  -4.650  0.00  0.00    +0.005 A 
ENDBRANCH  16  17
ENDBRANCH   6  16
ENDBRANCH   1   4
BRANCH   1  23
ATOM     23  C   UNL     1       2.958   1.841  -5.438  0.00  0.00    +0.114 C 
BRANCH  23  24
ATOM     24  C   UNL     1       1.552   2.432  -5.556  0.00  0.00    +0.022 C 
BRANCH  24  26
ATOM     25  C   UNL     1       0.488   0.171  -5.580  0.00  0.00    +0.007 C 
ATOM     26  C   UNL     1       0.662   1.478  -6.356  0.00  0.00    -0.016 C 
ATOM     27  C   UNL     1      -0.706   2.125  -6.581  0.00  0.00    +0.007 C 
ENDBRANCH  24  26
ENDBRANCH  23  24
ENDBRANCH   1  23
BRANCH   2  28
ATOM     28  C   UNL     1       3.017   1.639  -2.608  0.00  0.00    +0.020 C 
BRANCH  28  33
ATOM     29  C   UNL     1       4.587   1.072  -0.836  0.00  0.00    -0.077 C 
ATOM     30  C   UNL     1       4.485   0.735   0.668  0.00  0.00    -0.020 C 
ATOM     31  C   UNL     1       2.973   0.633   0.954  0.00  0.00    -0.012 C 
ATOM     32  C   UNL     1       2.288   0.917  -0.400  0.00  0.00    -0.030 C 
ATOM     33  N   UNL     1       3.296   1.686  -1.138  0.00  0.00    +0.390 N 
ATOM     34  H   UNL     1       3.291   2.664  -0.825  0.00  0.00    -0.080 HD
BRANCH  32  35
ATOM     35  C   UNL     1       1.028   1.718  -0.194  0.00  0.00    -0.024 A 
ATOM     36  C   UNL     1      -0.260   1.297  -0.193  0.00  0.00    +0.009 A 
ATOM     37  C   UNL     1      -1.267   2.221   0.014  0.00  0.00    +0.008 A 
ATOM     38  C   UNL     1      -0.936   3.519   0.221  0.00  0.00    +0.045 A 
ATOM     39  S   UNL     1       0.846   3.467   0.113  0.00  0.00    -0.103 S 
ENDBRANCH  32  35
ENDBRANCH  28  33
ENDBRANCH   2  28
TORSDOF 10
