REMARK  Name = ZINC22635631
REMARK  4 active torsions:
REMARK  status: ('A' for Active; 'I' for Inactive)
REMARK    1  A    between atoms: C_1  and  C_2
REMARK    2  A    between atoms: C_2  and  C_3
REMARK    3  A    between atoms: C_2  and  N_4
REMARK    4  A    between atoms: C_15  and  C_18
REMARK                            x       y       z     vdW  Elec       q    Type
REMARK                         _______ _______ _______ _____ _____    ______ ____
ROOT
ATOM      1  N   UNL     1      -1.442  -0.249   0.106  0.00  0.00    +0.384 N 
ATOM      2  C   UNL     1      -1.680  -1.680   0.337  0.00  0.00    -0.073 C 
ATOM      3  C   UNL     1      -3.135  -1.913   0.757  0.00  0.00    +0.018 C 
ATOM      4  C   UNL     1      -4.033  -1.237  -0.270  0.00  0.00    -0.027 A 
ATOM      5  C   UNL     1      -3.522  -0.305  -1.108  0.00  0.00    -0.021 A 
ATOM      6  S   UNL     1      -4.890   0.202  -2.110  0.00  0.00    -0.080 S 
ATOM      7  C   UNL     1      -6.077  -0.762  -1.464  0.00  0.00    +0.080 A 
ATOM      8  C   UNL     1      -5.448  -1.501  -0.449  0.00  0.00    +0.068 A 
ATOM      9  C   UNL     1      -6.280  -2.451   0.325  0.00  0.00    +0.248 C 
ATOM     10  O   UNL     1      -5.856  -2.991   1.330  0.00  0.00    -0.270 OA
ATOM     11  N   UNL     1      -7.528  -2.693  -0.130  0.00  0.00    -0.289 N 
ATOM     12  C   UNL     1      -8.029  -2.198  -1.407  0.00  0.00    +0.194 C 
ATOM     13  N   UNL     1      -7.409  -0.909  -1.763  0.00  0.00    -0.316 N 
ATOM     14  C   UNL     1      -2.103   0.167  -1.144  0.00  0.00    -0.035 C 
ATOM     15  H   UNL     1      -8.122  -3.224   0.422  0.00  0.00    +0.151 HD
ATOM     16  H   UNL     1      -7.917  -0.200  -2.188  0.00  0.00    +0.149 HD
ATOM     17  H   UNL     1      -1.819   0.281   0.878  0.00  0.00    -0.081 HD
ENDROOT
BRANCH  12  18
ATOM     18  C   UNL     1      -7.720  -3.207  -2.483  0.00  0.00    +0.040 A 
ATOM     19  C   UNL     1      -7.397  -2.781  -3.757  0.00  0.00    +0.026 A 
ATOM     20  C   UNL     1      -7.112  -3.707  -4.745  0.00  0.00    +0.020 A 
ATOM     21  C   UNL     1      -7.150  -5.060  -4.460  0.00  0.00    +0.039 A 
ATOM     22  C   UNL     1      -7.473  -5.490  -3.187  0.00  0.00    +0.089 A 
ATOM     23  C   UNL     1      -7.753  -4.562  -2.193  0.00  0.00    +0.204 A 
ATOM     24  O   UNL     1      -8.065  -4.982  -0.938  0.00  0.00    -0.286 OA
ATOM     25 CL   UNL     1      -7.521  -7.188  -2.830  0.00  0.00    -0.080 Cl
ATOM     26 BR   UNL     1      -6.670  -3.121  -6.488  0.00  0.00    -0.050 Br
ENDBRANCH  12  18
BRANCH   1  28
ATOM     27  C   UNL     1       0.246   1.468  -0.337  0.00  0.00    -0.014 C 
ATOM     28  C   UNL     1       0.002  -0.004   0.002  0.00  0.00    -0.074 C 
ATOM     29  C   UNL     1       0.674  -0.339   1.335  0.00  0.00    -0.014 C 
ENDBRANCH   1  28
TORSDOF 2
