REMARK  Name = ZINC33741740
REMARK  9 active torsions:
REMARK  status: ('A' for Active; 'I' for Inactive)
REMARK    1  A    between atoms: C_4  and  C_7
REMARK    2  A    between atoms: C_7  and  C_8
REMARK    3  A    between atoms: C_7  and  C_34
REMARK    4  A    between atoms: C_8  and  C_9
REMARK    5  A    between atoms: C_9  and  N_10
REMARK    6  A    between atoms: C_11  and  C_13
REMARK    7  A    between atoms: C_15  and  C_27
REMARK    8  A    between atoms: N_17  and  C_18
REMARK    9  A    between atoms: C_22  and  N_24
REMARK                            x       y       z     vdW  Elec       q    Type
REMARK                         _______ _______ _______ _____ _____    ______ ____
ROOT
ATOM      1  C   UNL     1      -3.227   7.522  -1.217  0.00  0.00    +0.130 A 
ATOM      2  C   UNL     1      -2.204   7.289  -0.317  0.00  0.00    +0.063 A 
ATOM      3  C   UNL     1      -1.686   8.559  -0.006  0.00  0.00    +0.094 A 
ATOM      4  N   UNL     1      -2.372   9.449  -0.693  0.00  0.00    -0.166 NA
ATOM      5  N   UNL     1      -3.272   8.877  -1.409  0.00  0.00    -0.227 N 
ENDROOT
BRANCH   3   6
ATOM      6  C   UNL     1      -0.569   8.846   0.929  0.00  0.00    +0.002 A 
ATOM      7  C   UNL     1       0.067   7.802   1.598  0.00  0.00    +0.013 A 
ATOM      8  C   UNL     1       1.108   8.073   2.463  0.00  0.00    +0.039 A 
ATOM      9  C   UNL     1       1.514   9.380   2.673  0.00  0.00    +0.123 A 
ATOM     10  C   UNL     1       0.881  10.421   2.014  0.00  0.00    +0.039 A 
ATOM     11  C   UNL     1      -0.158  10.160   1.144  0.00  0.00    +0.013 A 
ATOM     12  F   UNL     1       2.530   9.641   3.524  0.00  0.00    -0.205 F 
ENDBRANCH   3   6
BRANCH   5  13
ATOM     13  C   UNL     1      -4.169   9.540  -2.255  0.00  0.00    +0.068 A 
ATOM     14  C   UNL     1      -4.391   9.067  -3.542  0.00  0.00    +0.028 A 
ATOM     15  C   UNL     1      -5.281   9.720  -4.371  0.00  0.00    +0.004 A 
ATOM     16  C   UNL     1      -5.942  10.850  -3.926  0.00  0.00    +0.033 A 
ATOM     17  C   UNL     1      -5.723  11.323  -2.645  0.00  0.00    +0.128 A 
ATOM     18  C   UNL     1      -4.839  10.672  -1.808  0.00  0.00    +0.060 A 
BRANCH  17  19
ATOM     19  N   UNL     1      -6.438  12.530  -2.171  0.00  0.00    +0.056 N 
ATOM     20  O   UNL     1      -7.218  13.105  -2.908  0.00  0.00    -0.126 OA
ATOM     21  O   UNL     1      -6.245  12.947  -1.043  0.00  0.00    -0.126 OA
ENDBRANCH  17  19
ENDBRANCH   5  13
BRANCH   1  23
ATOM     22  N   UNL     1      -3.867   5.202  -1.631  0.00  0.00    -0.310 N 
ATOM     23  C   UNL     1      -4.093   6.513  -1.847  0.00  0.00    +0.263 C 
ATOM     24  O   UNL     1      -5.013   6.863  -2.562  0.00  0.00    -0.269 OA
ATOM     25  H   UNL     1      -3.087   4.887  -0.923  0.00  0.00    +0.149 HD
BRANCH  22  26
ATOM     26  C   UNL     1      -4.662   4.196  -2.341  0.00  0.00    +0.105 C 
BRANCH  26  27
ATOM     27  C   UNL     1      -4.208   2.797  -1.918  0.00  0.00    +0.031 C 
BRANCH  27  28
ATOM     28  C   UNL     1      -5.037   1.747  -2.659  0.00  0.00    +0.050 C 
BRANCH  28  32
ATOM     29  C   UNL     1      -4.223   1.982  -6.846  0.00  0.00    +0.000 A 
ATOM     30  C   UNL     1      -3.179   1.911  -5.942  0.00  0.00    +0.000 A 
ATOM     31  C   UNL     1      -3.443   1.835  -4.587  0.00  0.00    +0.004 A 
ATOM     32  C   UNL     1      -4.750   1.830  -4.136  0.00  0.00    -0.040 A 
ATOM     33  C   UNL     1      -5.793   1.895  -5.041  0.00  0.00    +0.004 A 
ATOM     34  C   UNL     1      -5.530   1.976  -6.395  0.00  0.00    +0.000 A 
ENDBRANCH  28  32
BRANCH  28  35
ATOM     35  C   UNL     1      -4.676   0.374  -2.154  0.00  0.00    -0.040 A 
ATOM     36  C   UNL     1      -3.358  -0.043  -2.167  0.00  0.00    +0.004 A 
ATOM     37  C   UNL     1      -3.026  -1.301  -1.699  0.00  0.00    +0.000 A 
ATOM     38  C   UNL     1      -4.014  -2.145  -1.227  0.00  0.00    +0.000 A 
ATOM     39  C   UNL     1      -5.332  -1.730  -1.219  0.00  0.00    +0.000 A 
ATOM     40  C   UNL     1      -5.664  -0.471  -1.682  0.00  0.00    +0.004 A 
ENDBRANCH  28  35
ENDBRANCH  27  28
ENDBRANCH  26  27
ENDBRANCH  22  26
ENDBRANCH   1  23
TORSDOF 9
