REMARK  Name = ZINC20428822
REMARK  10 active torsions:
REMARK  status: ('A' for Active; 'I' for Inactive)
REMARK    1  A    between atoms: C_2  and  N_21
REMARK    2  A    between atoms: C_4  and  O_15
REMARK    3  A    between atoms: C_6  and  O_7
REMARK    4  A    between atoms: O_7  and  C_8
REMARK    5  A    between atoms: C_8  and  C_9
REMARK    6  A    between atoms: C_9  and  C_10
REMARK    7  A    between atoms: O_15  and  C_16
REMARK    8  A    between atoms: C_16  and  C_17
REMARK    9  A    between atoms: C_22  and  C_24
REMARK   10  A    between atoms: C_32  and  C_34
REMARK                            x       y       z     vdW  Elec       q    Type
REMARK                         _______ _______ _______ _____ _____    ______ ____
ROOT
ATOM      1  C   UNL     1      -2.200   5.770  -1.127  0.00  0.00    +0.069 A 
ATOM      2  C   UNL     1      -2.316   7.145  -1.278  0.00  0.00    +0.040 A 
ATOM      3  C   UNL     1      -1.761   7.996  -0.332  0.00  0.00    +0.069 A 
ATOM      4  C   UNL     1      -1.097   7.472   0.766  0.00  0.00    +0.126 A 
ATOM      5  C   UNL     1      -0.987   6.098   0.920  0.00  0.00    +0.091 A 
ATOM      6  C   UNL     1      -1.541   5.247  -0.025  0.00  0.00    +0.126 A 
ENDROOT
BRANCH   2   7
ATOM      7  N   UNL     1      -2.987   7.673  -2.387  0.00  0.00    -0.285 N 
ATOM      8  C   UNL     1      -3.709   8.804  -2.261  0.00  0.00    +0.224 C 
ATOM      9  O   UNL     1      -3.711   9.410  -1.210  0.00  0.00    -0.275 OA
ATOM     10  H   UNL     1      -2.925   7.165  -3.361  0.00  0.00    +0.155 HD
BRANCH   8  11
ATOM     11  C   UNL     1      -4.516   9.316  -3.427  0.00  0.00    +0.120 C 
ATOM     12  C   UNL     1      -5.683   8.340  -3.762  0.00  0.00    +0.131 C 
ATOM     13  C   UNL     1      -6.329   7.984  -2.389  0.00  0.00    +0.035 C 
ATOM     14  C   UNL     1      -7.072   9.291  -2.011  0.00  0.00    +0.035 C 
ATOM     15  C   UNL     1      -6.757  10.228  -3.216  0.00  0.00    +0.133 C 
ATOM     16  C   UNL     1      -5.259  10.623  -3.049  0.00  0.00    +0.145 C 
ATOM     17  O   UNL     1      -6.677   9.263  -4.315  0.00  0.00    -0.372 OA
BRANCH  16  18
ATOM     18  C   UNL     1      -4.892  11.738  -3.994  0.00  0.00    +0.362 C 
ATOM     19  O   UNL     1      -4.112  11.535  -4.894  0.00  0.00    -0.246 OA
ATOM     20  O   UNL     1      -5.432  12.957  -3.835  0.00  0.00    -0.246 OA
ENDBRANCH  16  18
ENDBRANCH   8  11
ENDBRANCH   2   7
BRANCH   6  21
ATOM     21  O   UNL     1      -1.432   3.901   0.126  0.00  0.00    -0.486 OA
BRANCH  21  22
ATOM     22  C   UNL     1      -0.734   3.433   1.282  0.00  0.00    +0.310 C 
BRANCH  22  23
ATOM     23  C   UNL     1      -0.715   1.903   1.280  0.00  0.00    +0.341 C 
ATOM     24  F   UNL     1      -2.027   1.419   1.300  0.00  0.00    -0.196 F 
ATOM     25  F   UNL     1      -0.031   1.444   2.411  0.00  0.00    -0.196 F 
BRANCH  23  26
ATOM     26  C   UNL     1      -0.007   1.403   0.019  0.00  0.00    +0.413 C 
ATOM     27  F   UNL     1       0.011   0.004   0.017  0.00  0.00    -0.203 F 
ATOM     28  F   UNL     1       1.306   1.886  -0.002  0.00  0.00    -0.203 F 
ENDBRANCH  23  26
ENDBRANCH  22  23
ENDBRANCH  21  22
ENDBRANCH   6  21
BRANCH   4  29
ATOM     29  O   UNL     1      -0.554   8.305   1.693  0.00  0.00    -0.483 OA
BRANCH  29  30
ATOM     30  C   UNL     1       0.117   7.697   2.798  0.00  0.00    +0.342 C 
BRANCH  30  31
ATOM     31  C   UNL     1       0.658   8.785   3.728  0.00  0.00    +0.424 C 
ATOM     32  F   UNL     1      -0.402   9.567   4.198  0.00  0.00    -0.167 F 
ATOM     33  F   UNL     1       1.315   8.189   4.810  0.00  0.00    -0.167 F 
ATOM     34  F   UNL     1       1.558   9.593   3.025  0.00  0.00    -0.167 F 
ENDBRANCH  30  31
ENDBRANCH  29  30
ENDBRANCH   4  29
TORSDOF 10
