REMARK  Name = ZINC05489076
REMARK  5 active torsions:
REMARK  status: ('A' for Active; 'I' for Inactive)
REMARK    1  A    between atoms: C_4  and  C_7
REMARK    2  A    between atoms: C_7  and  C_9
REMARK    3  A    between atoms: C_7  and  N_18
REMARK    4  A    between atoms: C_9  and  N_15
REMARK    5  A    between atoms: C_19  and  C_21
REMARK                            x       y       z     vdW  Elec       q    Type
REMARK                         _______ _______ _______ _____ _____    ______ ____
ROOT
ATOM      1  C   UNL     1       3.656   2.183  -0.019  0.00  0.00    +0.136 C 
ENDROOT
BRANCH   1   5
ATOM      2  C   UNL     1      -0.028   0.022   0.041  0.00  0.00    +0.000 A 
ATOM      3  C   UNL     1      -0.038   1.404   0.047  0.00  0.00    +0.000 A 
ATOM      4  C   UNL     1       1.155   2.103   0.028  0.00  0.00    +0.005 A 
ATOM      5  C   UNL     1       2.356   1.421   0.001  0.00  0.00    -0.025 A 
ATOM      6  C   UNL     1       2.365   0.038  -0.004  0.00  0.00    +0.005 A 
ATOM      7  C   UNL     1       1.173  -0.661   0.015  0.00  0.00    +0.000 A 
ENDBRANCH   1   5
BRANCH   1   8
ATOM      8  C   UNL     1       3.995   2.651   1.397  0.00  0.00    +0.143 C 
ATOM      9  C   UNL     1       2.879   3.560   1.915  0.00  0.00    +0.037 C 
ATOM     10  C   UNL     1       3.218   4.028   3.331  0.00  0.00    +0.003 C 
ATOM     11  C   UNL     1       4.538   4.802   3.310  0.00  0.00    +0.000 C 
ATOM     12  C   UNL     1       5.654   3.893   2.793  0.00  0.00    +0.003 C 
ATOM     13  C   UNL     1       5.315   3.425   1.376  0.00  0.00    +0.037 C 
BRANCH   8  14
ATOM     14  N   UNL     1       4.125   1.488   2.278  0.00  0.00    +0.031 N 
ATOM     15  O   UNL     1       5.189   0.898   2.356  0.00  0.00    -0.131 OA
ATOM     16  O   UNL     1       3.171   1.109   2.933  0.00  0.00    -0.131 OA
ENDBRANCH   8  14
ENDBRANCH   1   8
BRANCH   1  17
ATOM     17  N   UNL     1       3.526   3.346  -0.900  0.00  0.00    -0.302 N 
ATOM     18  C   UNL     1       4.620   3.880  -1.478  0.00  0.00    +0.245 C 
ATOM     19  O   UNL     1       5.715   3.396  -1.268  0.00  0.00    -0.270 OA
ATOM     20  H   UNL     1       2.652   3.732  -1.068  0.00  0.00    +0.150 HD
BRANCH  18  21
ATOM     21  C   UNL     1       4.489   5.054  -2.367  0.00  0.00    +0.037 A 
ATOM     22  C   UNL     1       3.232   5.609  -2.614  0.00  0.00    +0.013 A 
ATOM     23  C   UNL     1       3.117   6.707  -3.441  0.00  0.00    +0.001 A 
ATOM     24  C   UNL     1       4.243   7.253  -4.032  0.00  0.00    +0.000 A 
ATOM     25  C   UNL     1       5.491   6.704  -3.795  0.00  0.00    +0.001 A 
ATOM     26  C   UNL     1       5.620   5.609  -2.966  0.00  0.00    +0.013 A 
ENDBRANCH  18  21
ENDBRANCH   1  17
TORSDOF 5
