REMARK  Name = ZINC21251365
REMARK  8 active torsions:
REMARK  status: ('A' for Active; 'I' for Inactive)
REMARK    1  A    between atoms: C_1  and  C_2
REMARK    2  A    between atoms: C_10  and  C_13
REMARK    3  A    between atoms: C_18  and  C_23
REMARK    4  A    between atoms: C_26  and  O_29
REMARK    5  A    between atoms: O_29  and  C_30
REMARK    6  A    between atoms: C_30  and  C_31
REMARK    7  A    between atoms: C_31  and  C_32
REMARK    8  A    between atoms: C_31  and  C_33
REMARK                            x       y       z     vdW  Elec       q    Type
REMARK                         _______ _______ _______ _____ _____    ______ ____
ROOT
ATOM      1  C   UNL     1       6.235  -0.455  -0.059  0.00  0.00    +0.143 C 
ATOM      2  C   UNL     1       6.606  -0.830   1.355  0.00  0.00    +0.037 C 
ATOM      3  C   UNL     1       7.546  -0.233   2.109  0.00  0.00    +0.017 C 
ATOM      4  C   UNL     1       7.825  -0.717   3.522  0.00  0.00    +0.059 C 
ATOM      5  C   UNL     1       6.545  -1.266   4.149  0.00  0.00    +0.032 C 
ATOM      6  C   UNL     1       6.055  -2.425   3.271  0.00  0.00    +0.088 C 
ATOM      7  C   UNL     1       5.859  -1.913   1.875  0.00  0.00    +0.163 C 
ATOM      8  O   UNL     1       5.030  -2.448   1.165  0.00  0.00    -0.292 OA
ATOM      9  N   UNL     1       8.318   0.806   1.701  0.00  0.00    -0.316 N 
ATOM     10  C   UNL     1       7.846   1.939   1.048  0.00  0.00    +0.052 A 
ATOM     11  C   UNL     1       7.906   3.200   1.616  0.00  0.00    +0.025 A 
ATOM     12  C   UNL     1       7.462   4.293   0.890  0.00  0.00    +0.002 A 
ATOM     13  C   UNL     1       6.966   4.125  -0.390  0.00  0.00    +0.002 A 
ATOM     14  C   UNL     1       6.889   2.863  -0.952  0.00  0.00    +0.025 A 
ATOM     15  C   UNL     1       7.313   1.765  -0.220  0.00  0.00    +0.049 A 
ATOM     16  N   UNL     1       7.152   0.467  -0.695  0.00  0.00    -0.331 N 
ATOM     17  H   UNL     1       9.402   0.790   1.881  0.00  0.00    +0.152 HD
ATOM     18  H   UNL     1       7.737   0.145  -1.569  0.00  0.00    +0.147 HD
ENDROOT
BRANCH   1  28
ATOM     19  C   UNL     1      -0.150   1.824  -3.352  0.00  0.00    +0.044 C 
ATOM     20  C   UNL     1       0.732   1.652  -2.142  0.00  0.00    -0.050 A 
ATOM     21  C   UNL     1       0.293   2.086  -0.900  0.00  0.00    +0.007 A 
ATOM     22  C   UNL     1       1.086   1.938   0.218  0.00  0.00    +0.047 A 
ATOM     23  C   UNL     1       2.339   1.347   0.106  0.00  0.00    +0.138 A 
ATOM     24  C   UNL     1       2.782   0.908  -1.152  0.00  0.00    +0.065 A 
ATOM     25  C   UNL     1       1.971   1.064  -2.275  0.00  0.00    +0.018 A 
ATOM     26  C   UNL     1       4.116   0.284  -1.244  0.00  0.00    +0.198 A 
ATOM     27  O   UNL     1       4.557  -0.118  -2.308  0.00  0.00    -0.287 OA
ATOM     28  C   UNL     1       4.864   0.171  -0.043  0.00  0.00    +0.059 A 
ATOM     29  C   UNL     1       4.342   0.626   1.110  0.00  0.00    +0.205 A 
ATOM     30  O   UNL     1       3.132   1.191   1.186  0.00  0.00    -0.462 OA
ENDBRANCH   1  28
BRANCH   5  31
ATOM     31  C   UNL     1       6.832  -1.767   5.541  0.00  0.00    -0.043 A 
ATOM     32  C   UNL     1       7.776  -2.757   5.737  0.00  0.00    +0.007 A 
ATOM     33  C   UNL     1       8.046  -3.214   7.013  0.00  0.00    +0.046 A 
ATOM     34  C   UNL     1       7.359  -2.685   8.097  0.00  0.00    +0.121 A 
ATOM     35  C   UNL     1       6.408  -1.695   7.896  0.00  0.00    +0.046 A 
ATOM     36  C   UNL     1       6.147  -1.238   6.619  0.00  0.00    +0.007 A 
BRANCH  34  37
ATOM     37  O   UNL     1       7.619  -3.136   9.352  0.00  0.00    -0.492 OA
BRANCH  37  38
ATOM     38  C   UNL     1       8.610  -4.157   9.483  0.00  0.00    +0.232 C 
BRANCH  38  39
ATOM     39  C   UNL     1       8.763  -4.533  10.958  0.00  0.00    +0.020 C 
ATOM     40  C   UNL     1       9.732  -5.710  11.086  0.00  0.00    +0.010 C 
ATOM     41  C   UNL     1       9.311  -3.335  11.736  0.00  0.00    +0.010 C 
ENDBRANCH  38  39
ENDBRANCH  37  38
ENDBRANCH  34  37
ENDBRANCH   5  31
TORSDOF 5
