REMARK  Name = ZINC12652834
REMARK  16 active torsions:
REMARK  status: ('A' for Active; 'I' for Inactive)
REMARK    1  A    between atoms: C_3  and  N_40
REMARK    2  A    between atoms: C_6  and  C_7
REMARK    3  A    between atoms: C_7  and  O_9
REMARK    4  A    between atoms: O_9  and  C_10
REMARK    5  A    between atoms: C_10  and  C_11
REMARK    6  A    between atoms: C_13  and  O_39
REMARK    7  A    between atoms: C_15  and  O_38
REMARK    8  A    between atoms: C_17  and  O_37
REMARK    9  A    between atoms: C_19  and  O_22
REMARK   10  A    between atoms: O_22  and  C_23
REMARK   11  A    between atoms: C_23  and  C_35
REMARK   12  A    between atoms: C_24  and  O_34
REMARK   13  A    between atoms: C_26  and  O_33
REMARK   14  A    between atoms: C_28  and  C_31
REMARK   15  A    between atoms: C_31  and  O_32
REMARK   16  A    between atoms: C_35  and  O_36
REMARK                            x       y       z     vdW  Elec       q    Type
REMARK                         _______ _______ _______ _____ _____    ______ ____
ROOT
ATOM      1  C   UNL     1       1.483   3.952   0.153  0.00  0.00    +0.190 C 
ATOM      2  C   UNL     1       1.655   2.531   0.694  0.00  0.00    +0.178 C 
ATOM      3  C   UNL     1       2.242   1.641  -0.406  0.00  0.00    +0.179 C 
ATOM      4  C   UNL     1       1.323   1.690  -1.631  0.00  0.00    +0.201 C 
ATOM      5  C   UNL     1       1.163   3.145  -2.082  0.00  0.00    +0.285 C 
ATOM      6  O   UNL     1       0.643   3.923  -1.002  0.00  0.00    -0.339 OA
ENDROOT
BRANCH   2   7
ATOM      7  O   UNL     1       0.384   2.016   1.097  0.00  0.00    -0.386 OA
ATOM      8  H   UNL     1       0.417   1.115   1.446  0.00  0.00    +0.210 HD
ENDBRANCH   2   7
BRANCH   3   9
ATOM      9  O   UNL     1       3.541   2.118  -0.764  0.00  0.00    -0.386 OA
ATOM     10  H   UNL     1       3.972   1.600  -1.458  0.00  0.00    +0.210 HD
ENDBRANCH   3   9
BRANCH   4  11
ATOM     11  O   UNL     1       1.897   0.921  -2.689  0.00  0.00    -0.384 OA
ATOM     12  H   UNL     1       1.366   0.908  -3.498  0.00  0.00    +0.210 HD
ENDBRANCH   4  11
BRANCH   5  13
ATOM     13  O   UNL     1       2.436   3.664  -2.474  0.00  0.00    -0.313 OA
BRANCH  13  14
ATOM     14  C   UNL     1       2.359   4.814  -3.318  0.00  0.00    +0.225 C 
ATOM     15  C   UNL     1       3.776   5.331  -3.654  0.00  0.00    +0.207 C 
ATOM     16  C   UNL     1       4.106   4.667  -5.010  0.00  0.00    +0.179 C 
ATOM     17  C   UNL     1       2.849   3.829  -5.333  0.00  0.00    +0.178 C 
ATOM     18  O   UNL     1       1.782   4.463  -4.595  0.00  0.00    -0.336 OA
BRANCH  15  19
ATOM     19  O   UNL     1       4.709   4.917  -2.654  0.00  0.00    -0.384 OA
ATOM     20  H   UNL     1       5.615   5.214  -2.815  0.00  0.00    +0.210 HD
ENDBRANCH  15  19
BRANCH  16  21
ATOM     21  O   UNL     1       4.317   5.660  -6.015  0.00  0.00    -0.386 OA
ATOM     22  H   UNL     1       4.528   5.299  -6.887  0.00  0.00    +0.210 HD
ENDBRANCH  16  21
BRANCH  14  23
ATOM     23  C   UNL     1       1.537   5.915  -2.644  0.00  0.00    +0.223 C 
BRANCH  23  24
ATOM     24  O   UNL     1       0.174   5.498  -2.544  0.00  0.00    -0.390 OA
ATOM     25  H   UNL     1      -0.420   6.176  -2.196  0.00  0.00    +0.210 HD
ENDBRANCH  23  24
ENDBRANCH  14  23
BRANCH  17  26
ATOM     26  C   UNL     1       2.555   3.867  -6.833  0.00  0.00    +0.190 C 
BRANCH  26  27
ATOM     27  O   UNL     1       1.462   2.994  -7.127  0.00  0.00    -0.392 OA
ATOM     28  H   UNL     1       1.220   2.968  -8.063  0.00  0.00    +0.210 HD
ENDBRANCH  26  27
ENDBRANCH  17  26
ENDBRANCH  13  14
ENDBRANCH   5  13
BRANCH   1  29
ATOM     29  C   UNL     1       0.841   4.833   1.228  0.00  0.00    +0.266 C 
BRANCH  29  30
ATOM     30  O   UNL     1       0.784   6.206   0.758  0.00  0.00    -0.458 OA
BRANCH  30  31
ATOM     31  C   UNL     1       0.243   7.115   1.592  0.00  0.00    +0.339 C 
ATOM     32  O   UNL     1      -0.170   6.771   2.681  0.00  0.00    -0.245 OA
BRANCH  31  38
ATOM     33  C   UNL     1       0.631   8.931  -0.068  0.00  0.00    +0.017 A 
ATOM     34  C   UNL     1       0.538  10.254  -0.448  0.00  0.00    +0.033 A 
ATOM     35  C   UNL     1      -0.018  11.186   0.411  0.00  0.00    +0.126 A 
ATOM     36  C   UNL     1      -0.490  10.797   1.652  0.00  0.00    +0.033 A 
ATOM     37  C   UNL     1      -0.408   9.477   2.042  0.00  0.00    +0.017 A 
ATOM     38  C   UNL     1       0.152   8.531   1.181  0.00  0.00    +0.059 A 
BRANCH  35  39
ATOM     39  N   UNL     1      -0.110  12.605  -0.001  0.00  0.00    +0.056 N 
ATOM     40  O   UNL     1      -0.600  13.427   0.752  0.00  0.00    -0.126 OA
ATOM     41  O   UNL     1       0.304  12.950  -1.093  0.00  0.00    -0.126 OA
ENDBRANCH  35  39
ENDBRANCH  31  38
ENDBRANCH  30  31
ENDBRANCH  29  30
ENDBRANCH   1  29
TORSDOF 16
