REMARK  Name = ZINC04788089
REMARK  5 active torsions:
REMARK  status: ('A' for Active; 'I' for Inactive)
REMARK    1  A    between atoms: C_1  and  C_2
REMARK    2  A    between atoms: C_2  and  C_22
REMARK    3  A    between atoms: N_5  and  C_9
REMARK    4  A    between atoms: C_9  and  C_10
REMARK    5  A    between atoms: C_13  and  C_16
REMARK                            x       y       z     vdW  Elec       q    Type
REMARK                         _______ _______ _______ _____ _____    ______ ____
ROOT
ATOM      1  C   UNL     1      -0.019   1.526   0.010  0.00  0.00    +0.047 C 
ATOM      2  C   UNL     1       0.002  -0.004   0.002  0.00  0.00    +0.135 C 
ATOM      3  C   UNL     1       0.645  -0.522  -1.269  0.00  0.00    +0.251 C 
ATOM      4  O   UNL     1       1.781  -0.329  -1.646  0.00  0.00    -0.272 OA
ATOM      5  N   UNL     1      -0.309  -1.240  -1.894  0.00  0.00    -0.220 N 
ATOM      6  C   UNL     1      -1.454  -1.247  -1.202  0.00  0.00    +0.310 C 
ATOM      7  O   UNL     1      -2.458  -1.828  -1.563  0.00  0.00    -0.252 OA
ATOM      8  N   UNL     1      -1.369  -0.541  -0.056  0.00  0.00    -0.281 N 
ATOM      9  H   UNL     1      -2.070  -0.410   0.601  0.00  0.00    +0.152 HD
ENDROOT
BRANCH   2  10
ATOM     10  C   UNL     1       0.726  -0.530   1.214  0.00  0.00    -0.012 A 
ATOM     11  C   UNL     1       2.087  -0.766   1.156  0.00  0.00    +0.010 A 
ATOM     12  C   UNL     1       2.756  -1.248   2.266  0.00  0.00    +0.050 A 
ATOM     13  C   UNL     1       2.064  -1.494   3.440  0.00  0.00    +0.166 A 
ATOM     14  C   UNL     1       0.693  -1.256   3.499  0.00  0.00    +0.167 A 
ATOM     15  C   UNL     1       0.030  -0.768   2.384  0.00  0.00    +0.055 A 
ATOM     16  O   UNL     1       0.248  -1.573   4.750  0.00  0.00    -0.453 OA
ATOM     17  C   UNL     1       1.281  -2.392   5.329  0.00  0.00    +0.466 C 
ATOM     18  O   UNL     1       2.478  -1.961   4.654  0.00  0.00    -0.453 OA
ENDBRANCH   2  10
BRANCH   5  19
ATOM     19  C   UNL     1      -0.117  -1.926  -3.174  0.00  0.00    +0.153 C 
BRANCH  19  20
ATOM     20  C   UNL     1       0.375  -3.328  -2.923  0.00  0.00    -0.030 A 
ATOM     21  C   UNL     1       1.733  -3.579  -2.854  0.00  0.00    +0.006 A 
ATOM     22  C   UNL     1       2.189  -4.861  -2.619  0.00  0.00    +0.009 A 
ATOM     23  C   UNL     1       1.279  -5.904  -2.463  0.00  0.00    -0.018 A 
ATOM     24  C   UNL     1      -0.088  -5.646  -2.539  0.00  0.00    +0.009 A 
ATOM     25  C   UNL     1      -0.533  -4.360  -2.769  0.00  0.00    +0.006 A 
BRANCH  23  26
ATOM     26  C   UNL     1       1.763  -7.285  -2.215  0.00  0.00    -0.018 A 
ATOM     27  C   UNL     1       0.853  -8.327  -2.053  0.00  0.00    +0.008 A 
ATOM     28  C   UNL     1       1.309  -9.610  -1.829  0.00  0.00    +0.001 A 
ATOM     29  C   UNL     1       2.667  -9.860  -1.754  0.00  0.00    +0.000 A 
ATOM     30  C   UNL     1       3.575  -8.829  -1.908  0.00  0.00    +0.001 A 
ATOM     31  C   UNL     1       3.130  -7.543  -2.139  0.00  0.00    +0.008 A 
ENDBRANCH  23  26
ENDBRANCH  19  20
ENDBRANCH   5  19
TORSDOF 4
