REMARK  Name = ZINC39912345
REMARK  8 active torsions:
REMARK  status: ('A' for Active; 'I' for Inactive)
REMARK    1  A    between atoms: C_1  and  C_2
REMARK    2  A    between atoms: C_5  and  C_8
REMARK    3  A    between atoms: C_8  and  N_9
REMARK    4  A    between atoms: C_10  and  C_29
REMARK    5  A    between atoms: C_13  and  C_20
REMARK    6  A    between atoms: C_22  and  C_28
REMARK    7  A    between atoms: C_24  and  C_27
REMARK    8  A    between atoms: C_25  and  O_26
REMARK                            x       y       z     vdW  Elec       q    Type
REMARK                         _______ _______ _______ _____ _____    ______ ____
ROOT
ATOM      1  N   UNL     1       1.242  -4.526  -0.255  0.00  0.00    -0.281 N 
ATOM      2  C   UNL     1       2.340  -4.722  -1.211  0.00  0.00    +0.142 C 
ATOM      3  C   UNL     1       3.537  -5.126  -0.394  0.00  0.00    +0.035 A 
ATOM      4  C   UNL     1       4.887  -5.490  -0.381  0.00  0.00    +0.102 A 
ATOM      5  N   UNL     1       5.225  -5.709   0.874  0.00  0.00    -0.173 NA
ATOM      6  N   UNL     1       4.221  -5.520   1.655  0.00  0.00    -0.272 N 
ATOM      7  H   UNL     1       4.239  -5.623   2.619  0.00  0.00    +0.189 HD
ATOM      8  C   UNL     1       3.127  -5.152   0.925  0.00  0.00    +0.126 A 
ATOM      9  C   UNL     1       1.711  -4.773   0.982  0.00  0.00    +0.266 C 
ATOM     10  O   UNL     1       1.053  -4.695   2.002  0.00  0.00    -0.268 OA
ENDROOT
BRANCH   4  11
ATOM     11  C   UNL     1       5.777  -5.608  -1.564  0.00  0.00    +0.044 A 
ATOM     12  C   UNL     1       5.340  -6.280  -2.703  0.00  0.00    +0.017 A 
ATOM     13  C   UNL     1       6.171  -6.386  -3.800  0.00  0.00    -0.049 A 
ATOM     14  C   UNL     1       7.437  -5.828  -3.773  0.00  0.00    +0.010 A 
ATOM     15  C   UNL     1       7.879  -5.160  -2.647  0.00  0.00    -0.008 A 
ATOM     16  C   UNL     1       7.054  -5.040  -1.541  0.00  0.00    +0.129 A 
ATOM     17  C   UNL     1       9.259  -4.554  -2.625  0.00  0.00    +0.047 C 
ATOM     18  C   UNL     1       5.697  -7.114  -5.032  0.00  0.00    +0.044 C 
BRANCH  16  19
ATOM     19  O   UNL     1       7.486  -4.378  -0.436  0.00  0.00    -0.506 OA
ATOM     20  H   UNL     1       7.940  -4.940   0.206  0.00  0.00    +0.292 HD
ENDBRANCH  16  19
ENDBRANCH   4  11
BRANCH   2  21
ATOM     21  C   UNL     1       2.623  -3.437  -1.947  0.00  0.00    -0.022 A 
ATOM     22  C   UNL     1       2.805  -2.263  -1.241  0.00  0.00    +0.008 A 
ATOM     23  C   UNL     1       3.064  -1.084  -1.914  0.00  0.00    +0.038 A 
ATOM     24  C   UNL     1       3.142  -1.080  -3.297  0.00  0.00    +0.123 A 
ATOM     25  C   UNL     1       2.959  -2.257  -4.003  0.00  0.00    +0.038 A 
ATOM     26  C   UNL     1       2.705  -3.436  -3.327  0.00  0.00    +0.008 A 
ATOM     27  F   UNL     1       3.395   0.071  -3.957  0.00  0.00    -0.205 F 
ENDBRANCH   2  21
BRANCH   1  28
ATOM     28  C   UNL     1      -0.126  -4.124  -0.590  0.00  0.00    +0.144 C 
BRANCH  28  33
ATOM     29  C   UNL     1      -0.516   1.641  -0.517  0.00  0.00    +0.044 C 
ATOM     30  C   UNL     1      -0.414   0.138  -0.536  0.00  0.00    -0.050 A 
ATOM     31  C   UNL     1      -0.073  -0.517  -1.704  0.00  0.00    +0.003 A 
ATOM     32  C   UNL     1       0.021  -1.896  -1.722  0.00  0.00    +0.005 A 
ATOM     33  C   UNL     1      -0.227  -2.620  -0.570  0.00  0.00    -0.030 A 
ATOM     34  C   UNL     1      -0.568  -1.965   0.598  0.00  0.00    +0.005 A 
ATOM     35  C   UNL     1      -0.657  -0.586   0.617  0.00  0.00    +0.003 A 
ENDBRANCH  28  33
ENDBRANCH   1  28
TORSDOF 5
