REMARK  Name = ZINC33568220
REMARK  6 active torsions:
REMARK  status: ('A' for Active; 'I' for Inactive)
REMARK    1  A    between atoms: C_3  and  S_27
REMARK    2  A    between atoms: C_6  and  C_7
REMARK    3  A    between atoms: C_10  and  C_12
REMARK    4  A    between atoms: C_14  and  N_19
REMARK    5  A    between atoms: N_19  and  C_20
REMARK    6  A    between atoms: S_27  and  N_30
REMARK                            x       y       z     vdW  Elec       q    Type
REMARK                         _______ _______ _______ _____ _____    ______ ____
ROOT
ATOM      1  C   UNL     1      -1.614  -0.717  -2.041  0.00  0.00    +0.136 A 
ATOM      2  C   UNL     1      -1.775  -2.077  -2.190  0.00  0.00    +0.050 A 
ATOM      3  C   UNL     1      -3.081  -2.379  -1.800  0.00  0.00    +0.050 A 
ATOM      4  C   UNL     1      -3.673  -1.183  -1.425  0.00  0.00    +0.130 A 
ATOM      5  O   UNL     1      -2.763  -0.198  -1.575  0.00  0.00    -0.455 OA
ENDROOT
BRANCH   4   6
ATOM      6  C   UNL     1      -4.994  -1.026  -0.962  0.00  0.00    +0.064 C 
ATOM      7  C   UNL     1      -5.459   0.227  -0.620  0.00  0.00    +0.060 C 
ATOM      8  C   UNL     1      -6.738   0.619  -0.130  0.00  0.00    +0.150 C 
ATOM      9  N   UNL     1      -6.942   1.879   0.124  0.00  0.00    -0.153 NA
ATOM     10  C   UNL     1      -5.984   2.799  -0.065  0.00  0.00    +0.302 C 
ATOM     11  O   UNL     1      -6.029   4.003   0.128  0.00  0.00    -0.260 OA
ATOM     12  S   UNL     1      -4.623   1.807  -0.662  0.00  0.00    -0.026 S 
BRANCH   8  13
ATOM     13  N   UNL     1      -7.735  -0.312   0.069  0.00  0.00    -0.197 NA
BRANCH  13  14
ATOM     14  C   UNL     1      -9.064   0.103   0.190  0.00  0.00    +0.055 A 
ATOM     15  C   UNL     1      -9.480   1.289  -0.402  0.00  0.00    +0.026 A 
ATOM     16  C   UNL     1     -10.794   1.695  -0.281  0.00  0.00    +0.022 A 
ATOM     17  C   UNL     1     -11.696   0.923   0.429  0.00  0.00    +0.041 A 
ATOM     18  C   UNL     1     -11.285  -0.259   1.020  0.00  0.00    +0.022 A 
ATOM     19  C   UNL     1      -9.973  -0.674   0.897  0.00  0.00    +0.026 A 
ATOM     20 CL   UNL     1     -13.347   1.438   0.580  0.00  0.00    -0.084 Cl
ENDBRANCH  13  14
ENDBRANCH   8  13
ENDBRANCH   4   6
BRANCH   1  26
ATOM     21  C   UNL     1      -0.346   1.424  -2.138  0.00  0.00    +0.013 A 
ATOM     22  C   UNL     1       0.807   2.127  -2.417  0.00  0.00    +0.029 A 
ATOM     23  C   UNL     1       1.926   1.466  -2.894  0.00  0.00    +0.105 A 
ATOM     24  C   UNL     1       1.896   0.097  -3.095  0.00  0.00    +0.029 A 
ATOM     25  C   UNL     1       0.749  -0.619  -2.820  0.00  0.00    +0.013 A 
ATOM     26  C   UNL     1      -0.384   0.042  -2.338  0.00  0.00    +0.017 A 
BRANCH  23  27
ATOM     27  S   UNL     1       3.395   2.372  -3.248  0.00  0.00    +0.056 S 
ATOM     28  O   UNL     1       4.125   1.608  -4.198  0.00  0.00    -0.153 OA
ATOM     29  O   UNL     1       2.995   3.713  -3.495  0.00  0.00    -0.153 OA
BRANCH  27  30
ATOM     30  N   UNL     1       4.301   2.396  -1.862  0.00  0.00    -0.204 NA
ATOM     31  H   UNL     1       3.975   1.955  -1.062  0.00  0.00    +0.144 HD
ATOM     32  H   UNL     1       5.157   2.852  -1.851  0.00  0.00    +0.144 HD
ENDBRANCH  27  30
ENDBRANCH  23  27
ENDBRANCH   1  26
TORSDOF 6
