REMARK  Name = ZINC32624441
REMARK  15 active torsions:
REMARK  status: ('A' for Active; 'I' for Inactive)
REMARK    1  A    between atoms: C_1  and  C_2
REMARK    2  A    between atoms: C_2  and  N_3
REMARK    3  A    between atoms: N_3  and  C_4
REMARK    4  A    between atoms: N_3  and  S_6
REMARK    5  A    between atoms: C_4  and  C_5
REMARK    6  A    between atoms: S_6  and  C_9
REMARK    7  A    between atoms: C_12  and  C_15
REMARK    8  A    between atoms: N_19  and  C_20
REMARK    9  A    between atoms: C_23  and  O_26
REMARK   10  A    between atoms: O_26  and  C_27
REMARK   11  A    between atoms: N_28  and  C_29
REMARK   12  A    between atoms: C_29  and  C_30
REMARK   13  A    between atoms: C_30  and  C_31
REMARK   14  A    between atoms: C_31  and  O_32
REMARK   15  A    between atoms: O_32  and  C_33
REMARK                            x       y       z     vdW  Elec       q    Type
REMARK                         _______ _______ _______ _____ _____    ______ ____
ROOT
ATOM      1  C   UNL     1      -8.173  -1.996  -0.196  0.00  0.00    +0.058 A 
ATOM      2  C   UNL     1      -7.395  -1.980  -1.298  0.00  0.00    +0.075 A 
ATOM      3  S   UNL     1      -5.968  -1.065  -0.736  0.00  0.00    -0.059 S 
ATOM      4  C   UNL     1      -6.505  -0.774   0.942  0.00  0.00    +0.152 A 
ATOM      5  N   UNL     1      -5.888  -0.133   1.915  0.00  0.00    -0.336 N 
ATOM      6  N   UNL     1      -7.736  -1.388   0.950  0.00  0.00    -0.321 N 
ATOM      7  H   UNL     1      -6.335  -0.095   2.920  0.00  0.00    +0.168 HD
ENDROOT
BRANCH   1  11
ATOM      8  C   UNL     1     -11.958  -3.923  -0.282  0.00  0.00    +0.106 A 
ATOM      9  C   UNL     1     -11.820  -2.704   0.356  0.00  0.00    +0.029 A 
ATOM     10  C   UNL     1     -10.594  -2.072   0.388  0.00  0.00    +0.012 A 
ATOM     11  C   UNL     1      -9.491  -2.667  -0.226  0.00  0.00    -0.001 A 
ATOM     12  C   UNL     1      -9.637  -3.895  -0.873  0.00  0.00    +0.012 A 
ATOM     13  C   UNL     1     -10.868  -4.518  -0.893  0.00  0.00    +0.029 A 
BRANCH   8  14
ATOM     14  S   UNL     1     -13.527  -4.723  -0.318  0.00  0.00    +0.061 S 
ATOM     15  O   UNL     1     -13.273  -6.108  -0.505  0.00  0.00    -0.153 OA
ATOM     16  O   UNL     1     -14.262  -4.226   0.793  0.00  0.00    -0.153 OA
BRANCH  14  17
ATOM     17  N   UNL     1     -14.313  -4.198  -1.678  0.00  0.00    -0.177 NA
BRANCH  17  19
ATOM     18  C   UNL     1     -15.309  -5.920  -3.102  0.00  0.00    +0.022 C 
ATOM     19  C   UNL     1     -14.158  -4.925  -2.940  0.00  0.00    +0.106 C 
ENDBRANCH  17  19
BRANCH  17  20
ATOM     20  C   UNL     1     -15.165  -3.007  -1.619  0.00  0.00    +0.106 C 
ATOM     21  C   UNL     1     -14.359  -1.782  -2.055  0.00  0.00    +0.022 C 
ENDBRANCH  17  20
ENDBRANCH  14  17
ENDBRANCH   8  14
ENDBRANCH   1  11
BRANCH   5  22
ATOM     22  C   UNL     1      -4.689   0.484   1.676  0.00  0.00    +0.041 A 
ATOM     23  C   UNL     1      -4.659   1.807   1.230  0.00  0.00    +0.029 A 
ATOM     24  C   UNL     1      -3.449   2.425   0.990  0.00  0.00    +0.047 A 
ATOM     25  C   UNL     1      -2.263   1.733   1.191  0.00  0.00    +0.120 A 
ATOM     26  C   UNL     1      -2.288   0.416   1.629  0.00  0.00    +0.047 A 
ATOM     27  C   UNL     1      -3.493  -0.208   1.877  0.00  0.00    +0.029 A 
BRANCH  25  28
ATOM     28  O   UNL     1      -1.072   2.346   0.953  0.00  0.00    -0.495 OA
ATOM     29  C   UNL     1       0.110   1.577   1.180  0.00  0.00    +0.277 C 
ENDBRANCH  25  28
ENDBRANCH   5  22
BRANCH   6  30
ATOM     30  C   UNL     1      -8.563  -1.391   2.160  0.00  0.00    +0.126 C 
BRANCH  30  31
ATOM     31  C   UNL     1      -7.664  -1.523   3.391  0.00  0.00    +0.050 C 
BRANCH  31  32
ATOM     32  C   UNL     1      -8.527  -1.526   4.654  0.00  0.00    +0.161 C 
BRANCH  32  33
ATOM     33  O   UNL     1      -7.688  -1.649   5.804  0.00  0.00    -0.383 OA
ATOM     34  C   UNL     1      -8.399  -1.662   7.044  0.00  0.00    +0.193 C 
ENDBRANCH  32  33
ENDBRANCH  31  32
ENDBRANCH  30  31
ENDBRANCH   6  30
TORSDOF 11
