REMARK  Name = ZINC63686618
REMARK  8 active torsions:
REMARK  status: ('A' for Active; 'I' for Inactive)
REMARK    1  A    between atoms: C_1  and  C_2
REMARK    2  A    between atoms: C_5  and  O_8
REMARK    3  A    between atoms: O_8  and  C_9
REMARK    4  A    between atoms: C_9  and  C_10
REMARK    5  A    between atoms: C_14  and  S_18
REMARK    6  A    between atoms: N_16  and  C_17
REMARK    7  A    between atoms: S_18  and  C_19
REMARK    8  A    between atoms: C_19  and  C_20
REMARK                            x       y       z     vdW  Elec       q    Type
REMARK                         _______ _______ _______ _____ _____    ______ ____
ROOT
ATOM      1  C   UNL     1       0.212  -6.374   0.817  0.00  0.00    +0.178 C 
ATOM      2  N   UNL     1       1.118  -6.933  -0.221  0.00  0.00    -0.234 NA
ATOM      3  N   UNL     1       0.475  -8.209  -0.571  0.00  0.00    -0.229 NA
ATOM      4  C   UNL     1      -0.976  -7.915  -0.534  0.00  0.00    +0.200 C 
ATOM      5  N   UNL     1      -1.146  -6.744   0.355  0.00  0.00    -0.261 NA
ATOM      6  C   UNL     1      -1.782  -5.629  -0.359  0.00  0.00    +0.109 C 
ATOM      7  H   UNL     1       1.170  -6.323  -1.022  0.00  0.00    +0.142 HD
ATOM      8  H   UNL     1       0.758  -8.517  -1.489  0.00  0.00    +0.143 HD
ENDROOT
BRANCH   1   9
ATOM      9  C   UNL     1       0.356  -4.853   0.889  0.00  0.00    +0.265 C 
BRANCH   9  10
ATOM     10  O   UNL     1       1.627  -4.521   1.454  0.00  0.00    -0.489 OA
BRANCH  10  15
ATOM     11  C   UNL     1       2.825   0.954   2.015  0.00  0.00    +0.044 C 
ATOM     12  C   UNL     1       2.505  -0.511   1.865  0.00  0.00    -0.050 A 
ATOM     13  C   UNL     1       3.423  -1.464   2.267  0.00  0.00    +0.007 A 
ATOM     14  C   UNL     1       3.131  -2.807   2.131  0.00  0.00    +0.046 A 
ATOM     15  C   UNL     1       1.916  -3.200   1.590  0.00  0.00    +0.121 A 
ATOM     16  C   UNL     1       0.996  -2.243   1.188  0.00  0.00    +0.046 A 
ATOM     17  C   UNL     1       1.290  -0.900   1.331  0.00  0.00    +0.007 A 
ENDBRANCH  10  15
ENDBRANCH   9  10
ENDBRANCH   1   9
BRANCH   4  18
ATOM     18  S   UNL     1      -1.883  -9.337   0.133  0.00  0.00    -0.119 S 
BRANCH  18  19
ATOM     19  C   UNL     1      -1.164  -9.583   1.780  0.00  0.00    +0.125 C 
BRANCH  19  20
ATOM     20  C   UNL     1      -1.837 -10.751   2.453  0.00  0.00    +0.030 A 
ATOM     21  N   UNL     1      -3.091 -10.589   2.939  0.00  0.00    -0.356 N 
ATOM     22  C   UNL     1      -3.761 -11.616   3.565  0.00  0.00    +0.069 A 
ATOM     23  C   UNL     1      -3.136 -12.867   3.706  0.00  0.00    +0.046 A 
ATOM     24  C   UNL     1      -3.804 -13.915   4.339  0.00  0.00    +0.014 A 
ATOM     25  C   UNL     1      -5.069 -13.720   4.820  0.00  0.00    +0.002 A 
ATOM     26  C   UNL     1      -5.693 -12.488   4.684  0.00  0.00    +0.022 A 
ATOM     27  C   UNL     1      -5.050 -11.438   4.062  0.00  0.00    +0.065 A 
ATOM     28 CL   UNL     1      -5.844  -9.903   3.900  0.00  0.00    -0.081 Cl
ATOM     29  C   UNL     1      -1.772 -13.034   3.174  0.00  0.00    +0.190 A 
ATOM     30  O   UNL     1      -1.184 -14.098   3.270  0.00  0.00    -0.287 OA
ATOM     31  C   UNL     1      -1.170 -11.920   2.543  0.00  0.00    +0.073 A 
ATOM     32  H   UNL     1      -3.527  -9.728   2.844  0.00  0.00    +0.166 HD
ENDBRANCH  19  20
ENDBRANCH  18  19
ENDBRANCH   4  18
TORSDOF 6
