REMARK  Name = ZINC05106464
REMARK  5 active torsions:
REMARK  status: ('A' for Active; 'I' for Inactive)
REMARK    1  A    between atoms: C_1  and  C_2
REMARK    2  A    between atoms: C_2  and  N_3
REMARK    3  A    between atoms: C_17  and  S_18
REMARK    4  A    between atoms: S_18  and  C_19
REMARK    5  A    between atoms: C_19  and  C_20
REMARK                            x       y       z     vdW  Elec       q    Type
REMARK                         _______ _______ _______ _____ _____    ______ ____
ROOT
ATOM      1  N   UNL     1       7.821  -2.617  -0.086  0.00  0.00    -0.286 N 
ATOM      2  C   UNL     1       8.222  -3.906  -0.096  0.00  0.00    +0.279 A 
ATOM      3  O   UNL     1       9.409  -4.189  -0.109  0.00  0.00    -0.265 OA
ATOM      4  C   UNL     1       7.241  -4.920  -0.092  0.00  0.00    +0.131 A 
ATOM      5  C   UNL     1       5.899  -4.544  -0.078  0.00  0.00    +0.104 A 
ATOM      6  C   UNL     1       5.118  -5.790  -0.077  0.00  0.00    +0.026 A 
ATOM      7  C   UNL     1       3.750  -6.066  -0.065  0.00  0.00    +0.012 A 
ATOM      8  C   UNL     1       3.317  -7.363  -0.068  0.00  0.00    +0.001 A 
ATOM      9  C   UNL     1       4.229  -8.409  -0.083  0.00  0.00    +0.002 A 
ATOM     10  C   UNL     1       5.583  -8.158  -0.094  0.00  0.00    +0.026 A 
ATOM     11  C   UNL     1       6.046  -6.844  -0.091  0.00  0.00    +0.049 A 
ATOM     12  N   UNL     1       7.314  -6.304  -0.101  0.00  0.00    -0.349 N 
ATOM     13  H   UNL     1       8.137  -6.817  -0.111  0.00  0.00    +0.166 HD
ATOM     14  N   UNL     1       5.568  -3.243  -0.063  0.00  0.00    -0.221 NA
ATOM     15  C   UNL     1       6.492  -2.309  -0.071  0.00  0.00    +0.173 A 
ENDROOT
BRANCH   1  17
ATOM     16  C   UNL     1       9.179  -1.178   1.352  0.00  0.00    +0.027 C 
ATOM     17  C   UNL     1       8.818  -1.544  -0.089  0.00  0.00    +0.124 C 
ENDBRANCH   1  17
BRANCH  15  18
ATOM     18  S   UNL     1       6.003  -0.616  -0.058  0.00  0.00    -0.078 S 
BRANCH  18  19
ATOM     19  C   UNL     1       4.204  -0.809  -0.042  0.00  0.00    +0.173 C 
BRANCH  19  20
ATOM     20  C   UNL     1       3.553   0.550  -0.029  0.00  0.00    +0.230 C 
ATOM     21  O   UNL     1       4.238   1.551  -0.029  0.00  0.00    -0.274 OA
ATOM     22  N   UNL     1       2.209   0.654  -0.015  0.00  0.00    -0.270 N 
ATOM     23  C   UNL     1       1.464   1.915  -0.002  0.00  0.00    +0.118 C 
ATOM     24  C   UNL     1      -0.018   1.508   0.010  0.00  0.00    +0.056 C 
ATOM     25  C   UNL     1       0.002  -0.004   0.002  0.00  0.00    -0.024 A 
ATOM     26  C   UNL     1       1.322  -0.427  -0.013  0.00  0.00    +0.040 A 
ATOM     27  C   UNL     1       1.595  -1.796  -0.024  0.00  0.00    +0.024 A 
ATOM     28  C   UNL     1       0.563  -2.711  -0.019  0.00  0.00    +0.002 A 
ATOM     29  C   UNL     1      -0.750  -2.278  -0.004  0.00  0.00    +0.000 A 
ATOM     30  C   UNL     1      -1.028  -0.924   0.006  0.00  0.00    +0.005 A 
ENDBRANCH  19  20
ENDBRANCH  18  19
ENDBRANCH  15  18
TORSDOF 4
