REMARK  Name = ZINC46569530
REMARK  8 active torsions:
REMARK  status: ('A' for Active; 'I' for Inactive)
REMARK    1  A    between atoms: C_3  and  C_6
REMARK    2  A    between atoms: C_9  and  C_29
REMARK    3  A    between atoms: C_12  and  C_14
REMARK    4  A    between atoms: C_14  and  N_15
REMARK    5  A    between atoms: N_15  and  C_16
REMARK    6  A    between atoms: N_15  and  C_26
REMARK    7  A    between atoms: C_16  and  C_17
REMARK    8  A    between atoms: C_20  and  C_23
REMARK                            x       y       z     vdW  Elec       q    Type
REMARK                         _______ _______ _______ _____ _____    ______ ____
ROOT
ATOM      1  C   UNL     1       5.457  -0.189   2.804  0.00  0.00    +0.021 C 
ENDROOT
BRANCH   1   7
ATOM      2  C   UNL     1       3.481   1.483  -0.077  0.00  0.00    +0.143 C 
ATOM      3  C   UNL     1       3.899   1.158  -1.524  0.00  0.00    +0.088 C 
ATOM      4  C   UNL     1       5.056   0.198  -1.363  0.00  0.00    +0.075 C 
ATOM      5  N   UNL     1       5.276  -0.004  -0.106  0.00  0.00    -0.180 NA
ATOM      6  N   UNL     1       4.417   0.698   0.743  0.00  0.00    -0.186 N 
ATOM      7  C   UNL     1       4.439   0.662   2.090  0.00  0.00    +0.219 C 
ATOM      8  O   UNL     1       3.639   1.315   2.727  0.00  0.00    -0.276 OA
BRANCH   2  11
ATOM      9  C   UNL     1      -0.277   1.172   0.469  0.00  0.00    +0.008 A 
ATOM     10  C   UNL     1       0.932   1.795   0.220  0.00  0.00    +0.013 A 
ATOM     11  C   UNL     1       2.061   1.045   0.175  0.00  0.00    +0.013 A 
ATOM     12  S   UNL     1       1.428  -0.594   0.490  0.00  0.00    -0.100 S 
ATOM     13  C   UNL     1      -0.297  -0.170   0.661  0.00  0.00    +0.045 A 
ENDBRANCH   2  11
BRANCH   4  14
ATOM     14  C   UNL     1       5.811  -0.412  -2.462  0.00  0.00    +0.035 A 
ATOM     15  C   UNL     1       6.872  -1.299  -2.406  0.00  0.00    +0.017 A 
ATOM     16  C   UNL     1       7.422  -1.735  -3.589  0.00  0.00    +0.008 A 
ATOM     17  C   UNL     1       6.911  -1.287  -4.766  0.00  0.00    +0.046 A 
ATOM     18  S   UNL     1       5.596  -0.209  -4.223  0.00  0.00    -0.095 S 
ENDBRANCH   4  14
ENDBRANCH   1   7
BRANCH   1  19
ATOM     19  N   UNL     1       5.181  -0.176   4.247  0.00  0.00    +0.390 N 
ATOM     20  H   UNL     1       5.127   0.778   4.570  0.00  0.00    -0.080 HD
BRANCH  19  21
ATOM     21  C   UNL     1       6.259  -0.875   4.959  0.00  0.00    -0.068 C 
ATOM     22  C   UNL     1       6.831  -0.203   6.209  0.00  0.00    -0.017 C 
ATOM     23  C   UNL     1       7.654  -0.247   4.919  0.00  0.00    -0.017 C 
ENDBRANCH  19  21
BRANCH  19  24
ATOM     24  C   UNL     1       3.903  -0.854   4.507  0.00  0.00    -0.042 C 
BRANCH  24  25
ATOM     25  C   UNL     1       3.559  -0.733   5.969  0.00  0.00    -0.064 A 
ATOM     26  C   UNL     1       3.994  -1.698   6.861  0.00  0.00    +0.002 A 
ATOM     27  C   UNL     1       3.683  -1.593   8.201  0.00  0.00    +0.013 A 
ATOM     28  C   UNL     1       2.927  -0.512   8.656  0.00  0.00    +0.037 A 
ATOM     29  C   UNL     1       2.491   0.458   7.751  0.00  0.00    +0.013 A 
ATOM     30  C   UNL     1       2.814   0.344   6.415  0.00  0.00    +0.002 A 
BRANCH  28  31
ATOM     31  C   UNL     1       2.589  -0.394  10.091  0.00  0.00    +0.242 C 
ATOM     32  O   UNL     1       2.970  -1.240  10.876  0.00  0.00    -0.270 OA
ATOM     33  N   UNL     1       1.859   0.651  10.527  0.00  0.00    -0.325 N 
ATOM     34  H   UNL     1       1.556   1.327   9.900  0.00  0.00    +0.145 HD
ATOM     35  H   UNL     1       1.637   0.729  11.468  0.00  0.00    +0.145 HD
ENDBRANCH  28  31
ENDBRANCH  24  25
ENDBRANCH  19  24
ENDBRANCH   1  19
TORSDOF 8
