REMARK  Name = ZINC16758227
REMARK  6 active torsions:
REMARK  status: ('A' for Active; 'I' for Inactive)
REMARK    1  A    between atoms: C_1  and  C_2
REMARK    2  A    between atoms: C_4  and  C_19
REMARK    3  A    between atoms: C_6  and  O_8
REMARK    4  A    between atoms: O_8  and  C_9
REMARK    5  A    between atoms: C_19  and  C_20
REMARK    6  A    between atoms: C_19  and  C_21
REMARK                            x       y       z     vdW  Elec       q    Type
REMARK                         _______ _______ _______ _____ _____    ______ ____
ROOT
ATOM      1  O   UNL     1       1.080   3.374   0.010  0.00  0.00    -0.436 OA
ENDROOT
BRANCH   1   2
ATOM      2  C   UNL     1       1.472   2.760  -1.132  0.00  0.00    +0.251 A 
ATOM      3  C   UNL     1       2.713   2.109  -1.208  0.00  0.00    +0.169 A 
ATOM      4  C   UNL     1       3.065   1.489  -2.419  0.00  0.00    +0.165 A 
ATOM      5  N   UNL     1       4.306   0.940  -2.216  0.00  0.00    -0.329 N 
ATOM      6  H   UNL     1       4.843   0.426  -2.886  0.00  0.00    +0.168 HD
ATOM      7  C   UNL     1       4.674   1.224  -0.935  0.00  0.00    +0.199 A 
ATOM      8  N   UNL     1       3.738   1.909  -0.345  0.00  0.00    -0.229 NA
ATOM      9  N   UNL     1       2.218   1.542  -3.441  0.00  0.00    -0.216 NA
ATOM     10  C   UNL     1       1.065   2.165  -3.324  0.00  0.00    +0.227 A 
ATOM     11  N   UNL     1       0.692   2.761  -2.206  0.00  0.00    -0.199 NA
ENDBRANCH   1   2
BRANCH   1  17
ATOM     12  C   UNL     1      -3.800   3.385   0.066  0.00  0.00    +0.044 C 
ATOM     13  C   UNL     1      -2.482   4.114   0.017  0.00  0.00    -0.047 A 
ATOM     14  C   UNL     1      -2.458   5.495  -0.046  0.00  0.00    +0.007 A 
ATOM     15  C   UNL     1      -1.250   6.166  -0.092  0.00  0.00    -0.041 A 
ATOM     16  C   UNL     1      -0.064   5.459  -0.068  0.00  0.00    +0.050 A 
ATOM     17  C   UNL     1      -0.085   4.073  -0.009  0.00  0.00    +0.131 A 
ATOM     18  C   UNL     1      -1.299   3.401   0.036  0.00  0.00    +0.049 A 
BRANCH  15  19
ATOM     19  C   UNL     1      -1.228   7.671  -0.161  0.00  0.00    +0.013 C 
ATOM     20  C   UNL     1      -0.484   8.227   1.056  0.00  0.00    +0.012 C 
ATOM     21  C   UNL     1      -0.515   8.113  -1.440  0.00  0.00    +0.012 C 
ENDBRANCH  15  19
ENDBRANCH   1  17
TORSDOF 3
