REMARK  Name = ZINC01003042
REMARK  10 active torsions:
REMARK  status: ('A' for Active; 'I' for Inactive)
REMARK    1  A    between atoms: C_1  and  C_2
REMARK    2  A    between atoms: C_2  and  C_3
REMARK    3  A    between atoms: C_10  and  N_17
REMARK    4  A    between atoms: C_11  and  C_12
REMARK    5  A    between atoms: C_12  and  O_14
REMARK    6  A    between atoms: O_14  and  C_15
REMARK    7  A    between atoms: C_15  and  C_16
REMARK    8  A    between atoms: C_18  and  C_20
REMARK    9  A    between atoms: C_24  and  C_32
REMARK   10  A    between atoms: C_26  and  C_29
REMARK                            x       y       z     vdW  Elec       q    Type
REMARK                         _______ _______ _______ _____ _____    ______ ____
ROOT
ATOM      1  N   UNL     1      -2.661   4.630   0.051  0.00  0.00    -0.273 N 
ATOM      2  C   UNL     1      -1.315   4.697   0.038  0.00  0.00    +0.288 C 
ATOM      3  O   UNL     1      -0.761   5.779   0.038  0.00  0.00    -0.266 OA
ATOM      4  H   UNL     1      -3.103   3.767   0.051  0.00  0.00    +0.156 HD
ENDROOT
BRANCH   2   5
ATOM      5  C   UNL     1      -0.512   3.454   0.025  0.00  0.00    +0.239 A 
ATOM      6  N   UNL     1      -1.008   2.215   0.018  0.00  0.00    -0.185 NA
ATOM      7  C   UNL     1      -0.016   1.336   0.009  0.00  0.00    +0.254 A 
ATOM      8  N   UNL     1       0.002  -0.004   0.002  0.00  0.00    -0.216 NA
ATOM      9  C   UNL     1       1.138  -0.662  -0.012  0.00  0.00    +0.044 A 
ATOM     10  C   UNL     1       2.357   0.029  -0.020  0.00  0.00    +0.052 A 
ATOM     11  C   UNL     1       2.351   1.386  -0.013  0.00  0.00    +0.113 A 
ATOM     12  N   UNL     1       1.157   2.041   0.002  0.00  0.00    -0.195 N 
ATOM     13  N   UNL     1       0.807   3.397   0.012  0.00  0.00    -0.138 NA
ATOM     14  C   UNL     1       1.130  -2.169  -0.020  0.00  0.00    +0.066 C 
BRANCH  11  15
ATOM     15  C   UNL     1       3.646   2.156  -0.021  0.00  0.00    +0.390 C 
ATOM     16  F   UNL     1       3.698   2.968  -1.160  0.00  0.00    -0.202 F 
ATOM     17  F   UNL     1       3.720   2.955   1.125  0.00  0.00    -0.202 F 
ENDBRANCH  11  15
ENDBRANCH   2   5
BRANCH   1  24
ATOM     18  C   UNL     1      -6.148   9.969   0.487  0.00  0.00    -0.006 C 
ATOM     19  C   UNL     1      -7.033   9.037  -0.346  0.00  0.00    +0.008 C 
ATOM     20  C   UNL     1      -6.829   7.589   0.101  0.00  0.00    +0.037 C 
ATOM     21  C   UNL     1      -5.338   7.276   0.087  0.00  0.00    -0.021 A 
ATOM     22  C   UNL     1      -4.420   8.266   0.083  0.00  0.00    -0.004 A 
ATOM     23  S   UNL     1      -2.857   7.434   0.065  0.00  0.00    -0.077 S 
ATOM     24  C   UNL     1      -3.413   5.793   0.063  0.00  0.00    +0.087 A 
ATOM     25  C   UNL     1      -4.795   5.928   0.071  0.00  0.00    +0.091 A 
ATOM     26  C   UNL     1      -4.681   9.740   0.093  0.00  0.00    +0.046 C 
BRANCH  18  28
ATOM     27  C   UNL     1      -5.736  12.346   1.138  0.00  0.00    +0.004 C 
ATOM     28  C   UNL     1      -6.535  11.424   0.214  0.00  0.00    +0.000 C 
ENDBRANCH  18  28
BRANCH  25  29
ATOM     29  C   UNL     1      -5.673   4.755   0.067  0.00  0.00    +0.342 C 
ATOM     30  O   UNL     1      -6.032   4.261   1.118  0.00  0.00    -0.245 OA
BRANCH  29  31
ATOM     31  O   UNL     1      -6.082   4.224  -1.103  0.00  0.00    -0.461 OA
BRANCH  31  32
ATOM     32  C   UNL     1      -6.950   3.062  -1.032  0.00  0.00    +0.229 C 
ATOM     33  C   UNL     1      -7.308   2.604  -2.447  0.00  0.00    +0.048 C 
ENDBRANCH  31  32
ENDBRANCH  29  31
ENDBRANCH  25  29
ENDBRANCH   1  24
TORSDOF 7
