REMARK  Name = ZINC63584612
REMARK  6 active torsions:
REMARK  status: ('A' for Active; 'I' for Inactive)
REMARK    1  A    between atoms: C_7  and  C_10
REMARK    2  A    between atoms: C_10  and  C_11
REMARK    3  A    between atoms: C_11  and  N_12
REMARK    4  A    between atoms: N_12  and  C_13
REMARK    5  A    between atoms: N_22  and  C_26
REMARK    6  A    between atoms: C_26  and  C_27
REMARK                            x       y       z     vdW  Elec       q    Type
REMARK                         _______ _______ _______ _____ _____    ______ ____
ROOT
ATOM      1  C   UNL     1      -1.088  -5.691  -2.048  0.00  0.00    +0.100 C 
ATOM      2  C   UNL     1      -1.833  -6.808  -2.164  0.00  0.00    +0.170 C 
ATOM      3  C   UNL     1      -2.291  -7.595  -0.989  0.00  0.00    +0.222 C 
ATOM      4  O   UNL     1      -2.571  -7.073   0.078  0.00  0.00    -0.285 OA
ATOM      5  C   UNL     1      -2.380  -9.032  -1.201  0.00  0.00    +0.083 A 
ATOM      6  C   UNL     1      -2.280  -9.735  -2.402  0.00  0.00    +0.070 A 
ATOM      7  C   UNL     1      -2.430 -11.110  -2.258  0.00  0.00    +0.033 A 
ATOM      8  C   UNL     1      -2.637 -11.636  -1.030  0.00  0.00    +0.048 A 
ATOM      9  S   UNL     1      -2.644 -10.307  -0.001  0.00  0.00    -0.091 S 
ATOM     10  N   UNL     1      -2.038  -9.094  -3.637  0.00  0.00    -0.197 N 
ATOM     11  S   UNL     1      -2.355  -7.457  -3.734  0.00  0.00    +0.080 S 
ATOM     12  O   UNL     1      -3.767  -7.308  -3.797  0.00  0.00    -0.150 OA
ATOM     13  O   UNL     1      -1.480  -6.921  -4.717  0.00  0.00    -0.150 OA
ENDROOT
BRANCH   1  14
ATOM     14  N   UNL     1      -0.717  -5.240  -0.810  0.00  0.00    -0.348 N 
ATOM     15  H   UNL     1      -0.991  -5.726  -0.015  0.00  0.00    +0.146 HD
BRANCH  14  16
ATOM     16  C   UNL     1       0.092  -4.026  -0.684  0.00  0.00    +0.105 C 
BRANCH  16  17
ATOM     17  C   UNL     1       0.365  -3.746   0.795  0.00  0.00    +0.052 C 
BRANCH  17  24
ATOM     18  C   UNL     1      -0.733   0.650   1.521  0.00  0.00    +0.001 A 
ATOM     19  C   UNL     1       0.377   1.505   1.572  0.00  0.00    +0.002 A 
ATOM     20  C   UNL     1       1.644   1.065   1.422  0.00  0.00    +0.026 A 
ATOM     21  C   UNL     1       1.904  -0.315   1.200  0.00  0.00    +0.043 A 
ATOM     22  N   UNL     1       3.023  -0.976   1.027  0.00  0.00    -0.380 N 
ATOM     23  C   UNL     1       2.704  -2.395   0.838  0.00  0.00    +0.144 C 
ATOM     24  C   UNL     1       1.198  -2.497   0.925  0.00  0.00    -0.040 C 
ATOM     25  C   UNL     1       0.749  -1.239   1.142  0.00  0.00    -0.001 A 
ATOM     26  C   UNL     1      -0.597  -0.680   1.315  0.00  0.00    +0.010 A 
ATOM     27  H   UNL     1       3.913  -0.590   1.023  0.00  0.00    +0.160 HD
ENDBRANCH  17  24
ENDBRANCH  16  17
ENDBRANCH  14  16
ENDBRANCH   1  14
BRANCH  10  28
ATOM     28  C   UNL     1      -1.530  -9.840  -4.792  0.00  0.00    +0.166 C 
BRANCH  28  29
ATOM     29  C   UNL     1      -0.030  -9.948  -4.700  0.00  0.00    -0.028 A 
ATOM     30  C   UNL     1       0.770  -9.033  -5.360  0.00  0.00    +0.008 A 
ATOM     31  C   UNL     1       2.146  -9.131  -5.276  0.00  0.00    +0.038 A 
ATOM     32  C   UNL     1       2.723 -10.145  -4.531  0.00  0.00    +0.123 A 
ATOM     33  C   UNL     1       1.921 -11.060  -3.870  0.00  0.00    +0.038 A 
ATOM     34  C   UNL     1       0.546 -10.957  -3.951  0.00  0.00    +0.008 A 
ATOM     35  F   UNL     1       4.068 -10.241  -4.449  0.00  0.00    -0.205 F 
ENDBRANCH  28  29
ENDBRANCH  10  28
TORSDOF 6
