REMARK  Name = ZINC39361704
REMARK  10 active torsions:
REMARK  status: ('A' for Active; 'I' for Inactive)
REMARK    1  A    between atoms: C_1  and  C_2
REMARK    2  A    between atoms: C_6  and  N_8
REMARK    3  A    between atoms: C_9  and  C_27
REMARK    4  A    between atoms: C_13  and  S_14
REMARK    5  A    between atoms: S_14  and  C_15
REMARK    6  A    between atoms: C_15  and  C_16
REMARK    7  A    between atoms: N_18  and  C_19
REMARK    8  A    between atoms: C_21  and  C_26
REMARK    9  A    between atoms: C_24  and  C_25
REMARK   10  A    between atoms: C_27  and  C_28
REMARK                            x       y       z     vdW  Elec       q    Type
REMARK                         _______ _______ _______ _____ _____    ______ ____
ROOT
ATOM      1  N   UNL     1       0.067  -2.801   2.393  0.00  0.00    -0.258 N 
ATOM      2  C   UNL     1       0.023  -4.264   2.555  0.00  0.00    +0.187 C 
ATOM      3  N   UNL     1       0.104  -4.461   4.013  0.00  0.00    -0.246 N 
ATOM      4  N   UNL     1       0.185  -3.181   4.575  0.00  0.00    -0.162 NA
ATOM      5  C   UNL     1       0.170  -2.264   3.668  0.00  0.00    +0.180 C 
ATOM      6  H   UNL     1       0.101  -5.307   4.488  0.00  0.00    +0.170 HD
ENDROOT
BRANCH   1  12
ATOM      7  C   UNL     1       2.076   0.483  -0.663  0.00  0.00    +0.044 C 
ATOM      8  C   UNL     1       0.981  -0.493  -0.318  0.00  0.00    -0.049 A 
ATOM      9  C   UNL     1      -0.071  -0.689  -1.194  0.00  0.00    +0.003 A 
ATOM     10  C   UNL     1      -1.078  -1.584  -0.881  0.00  0.00    +0.002 A 
ATOM     11  C   UNL     1      -1.035  -2.286   0.307  0.00  0.00    +0.023 A 
ATOM     12  C   UNL     1       0.021  -2.093   1.189  0.00  0.00    +0.038 A 
ATOM     13  C   UNL     1       1.033  -1.196   0.869  0.00  0.00    +0.027 A 
ENDBRANCH   1  12
BRANCH   5  14
ATOM     14  S   UNL     1       0.264  -0.538   4.007  0.00  0.00    -0.079 S 
BRANCH  14  15
ATOM     15  C   UNL     1       0.381  -0.452   5.816  0.00  0.00    +0.173 C 
BRANCH  15  16
ATOM     16  C   UNL     1       0.468   0.990   6.245  0.00  0.00    +0.227 C 
ATOM     17  O   UNL     1       0.453   1.873   5.414  0.00  0.00    -0.275 OA
ATOM     18  N   UNL     1       0.563   1.299   7.554  0.00  0.00    -0.285 N 
ATOM     19  H   UNL     1       0.632   0.592   8.215  0.00  0.00    +0.155 HD
BRANCH  18  20
ATOM     20  C   UNL     1       0.562   2.638   7.959  0.00  0.00    +0.037 A 
ATOM     21  C   UNL     1       0.989   3.630   7.085  0.00  0.00    +0.027 A 
ATOM     22  C   UNL     1       0.986   4.950   7.487  0.00  0.00    -0.049 A 
ATOM     23  C   UNL     1       0.559   5.287   8.759  0.00  0.00    +0.004 A 
ATOM     24  C   UNL     1       0.134   4.302   9.632  0.00  0.00    +0.005 A 
ATOM     25  C   UNL     1       0.128   2.979   9.233  0.00  0.00    -0.029 A 
ATOM     26  C   UNL     1      -0.343   1.907  10.181  0.00  0.00    +0.045 C 
ATOM     27  C   UNL     1       1.450   6.027   6.540  0.00  0.00    +0.044 C 
ENDBRANCH  18  20
ENDBRANCH  15  16
ENDBRANCH  14  15
ENDBRANCH   5  14
BRANCH   2  28
ATOM     28  C   UNL     1       1.216  -4.918   1.856  0.00  0.00    +0.097 C 
BRANCH  28  29
ATOM     29  C   UNL     1       1.083  -6.418   1.931  0.00  0.00    +0.029 A 
ATOM     30  N   UNL     1       1.524  -7.092   3.037  0.00  0.00    -0.311 N 
ATOM     31  C   UNL     1       1.409  -8.430   3.115  0.00  0.00    +0.327 A 
ATOM     32  O   UNL     1       1.808  -9.009   4.107  0.00  0.00    -0.247 OA
ATOM     33  N   UNL     1       0.859  -9.137   2.110  0.00  0.00    -0.275 N 
ATOM     34  C   UNL     1       0.412  -8.509   1.003  0.00  0.00    +0.254 A 
ATOM     35  O   UNL     1      -0.086  -9.148   0.094  0.00  0.00    -0.268 OA
ATOM     36  C   UNL     1       0.523  -7.101   0.911  0.00  0.00    +0.091 A 
ATOM     37  H   UNL     1       0.784 -10.101   2.182  0.00  0.00    +0.173 HD
ATOM     38  H   UNL     1       1.923  -6.601   3.772  0.00  0.00    +0.170 HD
ENDBRANCH  28  29
ENDBRANCH   2  28
TORSDOF 7
