REMARK  Name = ZINC18193803
REMARK  14 active torsions:
REMARK  status: ('A' for Active; 'I' for Inactive)
REMARK    1  A    between atoms: C_1  and  C_2
REMARK    2  A    between atoms: C_2  and  C_3
REMARK    3  A    between atoms: C_2  and  C_4
REMARK    4  A    between atoms: C_2  and  C_5
REMARK    5  A    between atoms: C_8  and  O_37
REMARK    6  A    between atoms: C_9  and  C_11
REMARK    7  A    between atoms: N_12  and  N_13
REMARK    8  A    between atoms: C_14  and  C_16
REMARK    9  A    between atoms: C_16  and  N_27
REMARK   10  A    between atoms: C_17  and  C_18
REMARK   11  A    between atoms: C_21  and  N_24
REMARK   12  A    between atoms: N_24  and  C_25
REMARK   13  A    between atoms: N_24  and  C_26
REMARK   14  A    between atoms: C_28  and  C_30
REMARK                            x       y       z     vdW  Elec       q    Type
REMARK                         _______ _______ _______ _____ _____    ______ ____
ROOT
ATOM      1  C   UNL     1      -6.940  -5.921   1.269  0.00  0.00    +0.098 C 
ATOM      2  C   UNL     1      -8.114  -6.595   1.210  0.00  0.00    +0.036 C 
ENDROOT
BRANCH   2   3
ATOM      3  C   UNL     1      -9.385  -5.860   1.256  0.00  0.00    -0.023 A 
ATOM      4  C   UNL     1      -9.474  -4.654   1.961  0.00  0.00    +0.010 A 
ATOM      5  C   UNL     1     -10.666  -3.967   1.997  0.00  0.00    +0.023 A 
ATOM      6  C   UNL     1     -11.785  -4.474   1.343  0.00  0.00    +0.029 A 
ATOM      7  C   UNL     1     -11.702  -5.676   0.645  0.00  0.00    +0.023 A 
ATOM      8  C   UNL     1     -10.513  -6.367   0.599  0.00  0.00    +0.010 A 
BRANCH   6   9
ATOM      9  N   UNL     1     -12.991  -3.779   1.387  0.00  0.00    -0.336 N 
ATOM     10  C   UNL     1     -14.169  -4.311   0.700  0.00  0.00    +0.129 C 
ATOM     11  C   UNL     1     -13.080  -2.514   2.121  0.00  0.00    +0.129 C 
ENDBRANCH   6   9
ENDBRANCH   2   3
BRANCH   1  13
ATOM     12  N   UNL     1      -7.280  -3.800   0.115  0.00  0.00    -0.202 N 
ATOM     13  C   UNL     1      -6.934  -4.454   1.241  0.00  0.00    +0.277 C 
ATOM     14  O   UNL     1      -6.615  -3.828   2.236  0.00  0.00    -0.267 OA
ATOM     15  H   UNL     1      -7.463  -4.296  -0.698  0.00  0.00    +0.178 HD
BRANCH  12  17
ATOM     16  C   UNL     1      -7.710  -1.772  -0.967  0.00  0.00    +0.142 C 
ATOM     17  N   UNL     1      -7.376  -2.402   0.118  0.00  0.00    -0.187 NA
BRANCH  16  22
ATOM     18  C   UNL     1      -8.263   1.757  -2.118  0.00  0.00    -0.041 A 
ATOM     19  C   UNL     1      -7.997   2.466  -0.959  0.00  0.00    +0.008 A 
ATOM     20  C   UNL     1      -7.646   1.802   0.202  0.00  0.00    +0.046 A 
ATOM     21  C   UNL     1      -7.548   0.420   0.209  0.00  0.00    +0.125 A 
ATOM     22  C   UNL     1      -7.811  -0.301  -0.963  0.00  0.00    +0.036 A 
ATOM     23  C   UNL     1      -8.170   0.381  -2.128  0.00  0.00    +0.017 A 
BRANCH  18  25
ATOM     24  C   UNL     1     -10.035   2.029  -3.831  0.00  0.00    +0.015 C 
ATOM     25  C   UNL     1      -8.649   2.492  -3.375  0.00  0.00    -0.013 C 
ATOM     26  C   UNL     1      -7.626   2.197  -4.474  0.00  0.00    +0.015 C 
ATOM     27  C   UNL     1      -8.680   3.996  -3.098  0.00  0.00    +0.015 C 
ENDBRANCH  18  25
BRANCH  21  28
ATOM     28  O   UNL     1      -7.198  -0.232   1.348  0.00  0.00    -0.506 OA
ATOM     29  H   UNL     1      -6.245  -0.361   1.450  0.00  0.00    +0.292 HD
ENDBRANCH  21  28
ENDBRANCH  16  22
ENDBRANCH  12  17
ENDBRANCH   1  13
BRANCH   1  30
ATOM     30  N   UNL     1      -5.733  -6.624   1.356  0.00  0.00    -0.277 N 
ATOM     31  C   UNL     1      -4.562  -5.958   1.334  0.00  0.00    +0.250 C 
ATOM     32  O   UNL     1      -4.554  -4.742   1.329  0.00  0.00    -0.270 OA
ATOM     33  H   UNL     1      -5.740  -7.591   1.432  0.00  0.00    +0.155 HD
BRANCH  31  34
ATOM     34  C   UNL     1      -3.288  -6.705   1.317  0.00  0.00    +0.055 A 
ATOM     35  C   UNL     1      -3.293  -8.101   1.329  0.00  0.00    +0.014 A 
ATOM     36  C   UNL     1      -2.100  -8.793   1.307  0.00  0.00    +0.001 A 
ATOM     37  C   UNL     1      -0.898  -8.106   1.284  0.00  0.00    +0.001 A 
ATOM     38  C   UNL     1      -0.884  -6.723   1.278  0.00  0.00    +0.021 A 
ATOM     39  C   UNL     1      -2.071  -6.018   1.294  0.00  0.00    +0.053 A 
ATOM     40 CL   UNL     1      -2.053  -4.282   1.287  0.00  0.00    -0.083 Cl
ENDBRANCH  31  34
ENDBRANCH   1  30
TORSDOF 9
