REMARK  Name = ZINC45471488
REMARK  11 active torsions:
REMARK  status: ('A' for Active; 'I' for Inactive)
REMARK    1  A    between atoms: C_1  and  C_2
REMARK    2  A    between atoms: C_2  and  O_3
REMARK    3  A    between atoms: O_3  and  C_4
REMARK    4  A    between atoms: C_11  and  C_18
REMARK    5  A    between atoms: C_13  and  O_14
REMARK    6  A    between atoms: C_18  and  N_19
REMARK    7  A    between atoms: N_19  and  C_20
REMARK    8  A    between atoms: C_20  and  C_22
REMARK    9  A    between atoms: C_20  and  C_29
REMARK   10  A    between atoms: C_29  and  C_30
REMARK   11  A    between atoms: C_29  and  C_31
REMARK                            x       y       z     vdW  Elec       q    Type
REMARK                         _______ _______ _______ _____ _____    ______ ____
ROOT
ATOM      1  C   UNL     1       0.971  -2.251   0.849  0.00  0.00    +0.405 C 
ATOM      2  O   UNL     1       0.111  -2.985   0.393  0.00  0.00    -0.226 OA
ATOM      3  N   UNL     1       1.789  -2.694   1.794  0.00  0.00    -0.251 N 
ATOM      4  C   UNL     1       1.768  -4.006   2.151  0.00  0.00    +0.040 A 
ATOM      5  C   UNL     1       2.347  -4.410   3.368  0.00  0.00    +0.024 A 
ATOM      6  C   UNL     1       2.332  -5.717   3.735  0.00  0.00    +0.013 A 
ATOM      7  C   UNL     1       1.734  -6.675   2.897  0.00  0.00    +0.019 A 
ATOM      8  C   UNL     1       1.708  -8.037   3.261  0.00  0.00    -0.047 A 
ATOM      9  C   UNL     1       1.108  -8.938   2.402  0.00  0.00    +0.090 A 
ATOM     10  C   UNL     1       0.549  -8.494   1.213  0.00  0.00    +0.285 A 
ATOM     11  O   UNL     1       0.577  -7.201   0.871  0.00  0.00    -0.425 OA
ATOM     12  C   UNL     1       1.149  -6.279   1.673  0.00  0.00    +0.141 A 
ATOM     13  C   UNL     1       1.165  -4.945   1.310  0.00  0.00    +0.070 A 
ATOM     14  H   UNL     1       2.403  -2.083   2.231  0.00  0.00    +0.158 HD
ENDROOT
BRANCH  10  15
ATOM     15  O   UNL     1      -0.033  -9.383   0.386  0.00  0.00    -0.480 OA
ATOM     16  H   UNL     1      -0.396  -8.991  -0.420  0.00  0.00    +0.295 HD
ENDBRANCH  10  15
BRANCH   1  17
ATOM     17  O   UNL     1       1.091  -0.984   0.392  0.00  0.00    -0.450 OA
BRANCH  17  19
ATOM     18  C   UNL     1       0.464   0.878  -1.014  0.00  0.00    +0.048 C 
ATOM     19  C   UNL     1       0.177  -0.574  -0.627  0.00  0.00    +0.230 C 
ENDBRANCH  17  19
ENDBRANCH   1  17
BRANCH   8  20
ATOM     20  C   UNL     1       2.320  -8.500   4.558  0.00  0.00    -0.045 C 
BRANCH  20  21
ATOM     21  N   UNL     1       1.281  -8.569   5.593  0.00  0.00    +0.386 N 
ATOM     22  H   UNL     1       0.845  -7.665   5.693  0.00  0.00    -0.085 HD
ATOM     23  H   UNL     1       0.586  -9.251   5.327  0.00  0.00    -0.085 HD
BRANCH  21  24
ATOM     24  C   UNL     1       1.889  -8.963   6.871  0.00  0.00    -0.038 C 
BRANCH  24  25
ATOM     25  C   UNL     1       2.809  -7.869   7.348  0.00  0.00    -0.061 A 
ATOM     26  C   UNL     1       2.439  -6.545   7.207  0.00  0.00    +0.005 A 
ATOM     27  C   UNL     1       3.282  -5.541   7.644  0.00  0.00    +0.038 A 
ATOM     28  C   UNL     1       4.498  -5.862   8.224  0.00  0.00    +0.123 A 
ATOM     29  C   UNL     1       4.867  -7.189   8.365  0.00  0.00    +0.038 A 
ATOM     30  C   UNL     1       4.020  -8.191   7.932  0.00  0.00    +0.005 A 
ATOM     31  F   UNL     1       5.323  -4.882   8.652  0.00  0.00    -0.205 F 
ENDBRANCH  24  25
BRANCH  24  32
ATOM     32  C   UNL     1       0.789  -9.193   7.910  0.00  0.00    -0.027 C 
ATOM     33  C   UNL     1      -0.079 -10.377   7.480  0.00  0.00    +0.006 C 
ATOM     34  C   UNL     1       1.425  -9.493   9.268  0.00  0.00    +0.006 C 
ENDBRANCH  24  32
ENDBRANCH  21  24
ENDBRANCH  20  21
ENDBRANCH   8  20
TORSDOF 8
