REMARK  Name = ZINC08891552
REMARK  13 active torsions:
REMARK  status: ('A' for Active; 'I' for Inactive)
REMARK    1  A    between atoms: C_1  and  C_2
REMARK    2  A    between atoms: C_2  and  C_3
REMARK    3  A    between atoms: C_4  and  C_33
REMARK    4  A    between atoms: C_6  and  N_13
REMARK    5  A    between atoms: C_7  and  C_8
REMARK    6  A    between atoms: C_8  and  O_10
REMARK    7  A    between atoms: O_10  and  C_11
REMARK    8  A    between atoms: C_11  and  C_12
REMARK    9  A    between atoms: C_14  and  C_16
REMARK   10  A    between atoms: C_16  and  N_17
REMARK   11  A    between atoms: C_20  and  C_24
REMARK   12  A    between atoms: C_20  and  C_26
REMARK   13  A    between atoms: C_24  and  C_25
REMARK                            x       y       z     vdW  Elec       q    Type
REMARK                         _______ _______ _______ _____ _____    ______ ____
ROOT
ATOM      1  C   UNL     1      -8.126   1.560  -0.126  0.00  0.00    +0.214 C 
ENDROOT
BRANCH   1   2
ATOM      2  N   UNL     1      -9.206   0.616   0.173  0.00  0.00    -0.215 N 
ATOM      3  C   UNL     1      -9.948   0.646   1.297  0.00  0.00    +0.251 C 
ATOM      4  O   UNL     1      -9.851   1.430   2.217  0.00  0.00    -0.272 OA
ATOM      5  C   UNL     1     -10.929  -0.502   1.172  0.00  0.00    +0.138 C 
ATOM      6  N   UNL     1     -10.594  -1.103  -0.131  0.00  0.00    -0.281 N 
ATOM      7  C   UNL     1      -9.581  -0.378  -0.640  0.00  0.00    +0.310 C 
ATOM      8  O   UNL     1      -9.062  -0.604  -1.715  0.00  0.00    -0.252 OA
ATOM      9  H   UNL     1     -11.022  -1.869  -0.543  0.00  0.00    +0.152 HD
BRANCH   5  10
ATOM     10  C   UNL     1     -12.347   0.008   1.175  0.00  0.00    -0.015 A 
ATOM     11  C   UNL     1     -13.037   0.121   2.368  0.00  0.00    +0.009 A 
ATOM     12  C   UNL     1     -14.335   0.595   2.373  0.00  0.00    +0.039 A 
ATOM     13  C   UNL     1     -14.949   0.945   1.181  0.00  0.00    +0.123 A 
ATOM     14  C   UNL     1     -14.258   0.825  -0.013  0.00  0.00    +0.039 A 
ATOM     15  C   UNL     1     -12.958   0.357  -0.015  0.00  0.00    +0.009 A 
ATOM     16  F   UNL     1     -16.220   1.401   1.185  0.00  0.00    -0.205 F 
ENDBRANCH   5  10
BRANCH   5  17
ATOM     17  C   UNL     1     -10.720  -1.514   2.300  0.00  0.00    +0.037 C 
ATOM     18  C   UNL     1      -9.290  -2.056   2.242  0.00  0.00    +0.007 C 
ENDBRANCH   5  17
ENDBRANCH   1   2
BRANCH   1  20
ATOM     19  N   UNL     1      -5.686   1.725   0.249  0.00  0.00    -0.278 N 
ATOM     20  C   UNL     1      -6.824   1.021   0.409  0.00  0.00    +0.236 C 
ATOM     21  O   UNL     1      -6.801  -0.047   0.983  0.00  0.00    -0.274 OA
ATOM     22  H   UNL     1      -5.705   2.579  -0.210  0.00  0.00    +0.155 HD
BRANCH  19  26
ATOM     23  C   UNL     1      -2.143   1.058   1.278  0.00  0.00    -0.022 A 
ATOM     24  C   UNL     1      -2.451  -0.120   1.849  0.00  0.00    -0.008 A 
ATOM     25  S   UNL     1      -4.207  -0.256   1.588  0.00  0.00    -0.078 S 
ATOM     26  C   UNL     1      -4.489   1.228   0.741  0.00  0.00    +0.086 A 
ATOM     27  C   UNL     1      -3.225   1.804   0.680  0.00  0.00    +0.091 A 
ATOM     28  C   UNL     1      -1.531  -1.092   2.542  0.00  0.00    +0.052 C 
BRANCH  23  30
ATOM     29  C   UNL     1      -0.013   1.086   0.008  0.00  0.00    +0.009 C 
ATOM     30  C   UNL     1      -0.729   1.579   1.267  0.00  0.00    +0.033 C 
ENDBRANCH  23  30
BRANCH  27  31
ATOM     31  C   UNL     1      -3.001   3.101   0.038  0.00  0.00    +0.342 C 
ATOM     32  O   UNL     1      -2.736   3.154  -1.148  0.00  0.00    -0.245 OA
BRANCH  31  33
ATOM     33  O   UNL     1      -3.089   4.236   0.761  0.00  0.00    -0.461 OA
BRANCH  33  34
ATOM     34  C   UNL     1      -2.855   5.485   0.059  0.00  0.00    +0.229 C 
ATOM     35  C   UNL     1      -2.997   6.654   1.036  0.00  0.00    +0.048 C 
ENDBRANCH  33  34
ENDBRANCH  31  33
ENDBRANCH  27  31
ENDBRANCH  19  26
ENDBRANCH   1  20
TORSDOF 9
