REMARK  Name = ZINC00663612
REMARK  10 active torsions:
REMARK  status: ('A' for Active; 'I' for Inactive)
REMARK    1  A    between atoms: C_1  and  O_2
REMARK    2  A    between atoms: O_2  and  C_3
REMARK    3  A    between atoms: C_3  and  C_5
REMARK    4  A    between atoms: C_6  and  C_22
REMARK    5  A    between atoms: C_8  and  N_21
REMARK    6  A    between atoms: C_9  and  C_19
REMARK    7  A    between atoms: C_10  and  C_12
REMARK    8  A    between atoms: C_22  and  S_23
REMARK    9  A    between atoms: S_23  and  C_24
REMARK   10  A    between atoms: C_25  and  C_35
REMARK                            x       y       z     vdW  Elec       q    Type
REMARK                         _______ _______ _______ _____ _____    ______ ____
ROOT
ATOM      1  C   UNL     1       4.114   2.204  -6.165  0.00  0.00    +0.088 C 
ATOM      2  C   UNL     1       2.825   2.552  -6.269  0.00  0.00    +0.128 C 
ATOM      3  O   UNL     1       2.268   2.897  -7.439  0.00  0.00    -0.444 OA
ATOM      4  C   UNL     1       3.061   3.279  -8.457  0.00  0.00    +0.198 C 
ATOM      5  C   UNL     1       4.380   2.971  -8.489  0.00  0.00    +0.098 C 
ATOM      6  C   UNL     1       5.014   2.189  -7.370  0.00  0.00    +0.105 C 
ENDROOT
BRANCH   6   7
ATOM      7  C   UNL     1       5.232   0.766  -7.815  0.00  0.00    -0.032 A 
ATOM      8  C   UNL     1       6.510   0.240  -7.846  0.00  0.00    +0.005 A 
ATOM      9  C   UNL     1       6.712  -1.066  -8.254  0.00  0.00    +0.003 A 
ATOM     10  C   UNL     1       5.636  -1.846  -8.632  0.00  0.00    +0.038 A 
ATOM     11  C   UNL     1       4.355  -1.320  -8.602  0.00  0.00    +0.124 A 
ATOM     12  C   UNL     1       4.154  -0.014  -8.188  0.00  0.00    +0.043 A 
ATOM     13  F   UNL     1       3.303  -2.082  -8.971  0.00  0.00    -0.205 F 
ENDBRANCH   6   7
BRANCH   4  14
ATOM     14  N   UNL     1       2.518   3.995  -9.495  0.00  0.00    -0.328 N 
ATOM     15  H   UNL     1       3.076   4.273 -10.237  0.00  0.00    +0.145 HD
ATOM     16  H   UNL     1       1.575   4.223  -9.486  0.00  0.00    +0.145 HD
ENDBRANCH   4  14
BRANCH   1  17
ATOM     17  C   UNL     1       4.638   1.843  -4.899  0.00  0.00    +0.339 C 
ATOM     18  O   UNL     1       5.284   2.650  -4.256  0.00  0.00    -0.245 OA
BRANCH  17  20
ATOM     19  C   UNL     1       4.980   0.311  -3.125  0.00  0.00    +0.280 C 
ATOM     20  O   UNL     1       4.422   0.606  -4.407  0.00  0.00    -0.465 OA
ENDBRANCH  17  20
ENDBRANCH   1  17
BRANCH   5  21
ATOM     21  C   UNL     1       5.179   3.393  -9.600  0.00  0.00    +0.101 C 
ATOM     22  N   UNL     1       5.813   3.728 -10.481  0.00  0.00    -0.191 NA
ENDBRANCH   5  21
BRANCH   2  23
ATOM     23  C   UNL     1       1.969   2.550  -5.028  0.00  0.00    +0.150 C 
BRANCH  23  24
ATOM     24  S   UNL     1       1.692   4.253  -4.483  0.00  0.00    -0.097 S 
BRANCH  24  25
ATOM     25  C   UNL     1       0.694   3.961  -3.061  0.00  0.00    +0.115 A 
ATOM     26  C   UNL     1       0.231   5.048  -2.298  0.00  0.00    +0.084 A 
ATOM     27  C   UNL     1      -0.563   4.790  -1.174  0.00  0.00    +0.027 A 
ATOM     28  C   UNL     1      -0.851   3.470  -0.871  0.00  0.00    -0.025 A 
ATOM     29  C   UNL     1      -0.362   2.459  -1.659  0.00  0.00    +0.046 A 
ATOM     30  N   UNL     1       0.385   2.719  -2.719  0.00  0.00    -0.244 NA
ATOM     31  C   UNL     1      -0.677   1.016  -1.317  0.00  0.00    +0.056 C 
ATOM     32  C   UNL     1       0.087   0.640  -0.046  0.00  0.00    +0.006 C 
ATOM     33  C   UNL     1      -0.697   1.026   1.193  0.00  0.00    +0.001 C 
ATOM     34  C   UNL     1      -0.827   2.521   1.410  0.00  0.00    +0.005 C 
ATOM     35  C   UNL     1      -1.713   3.152   0.333  0.00  0.00    +0.037 C 
BRANCH  26  36
ATOM     36  C   UNL     1       0.565   6.392  -2.663  0.00  0.00    +0.102 C 
ATOM     37  N   UNL     1       0.830   7.458  -2.953  0.00  0.00    -0.191 NA
ENDBRANCH  26  36
ENDBRANCH  24  25
ENDBRANCH  23  24
ENDBRANCH   2  23
TORSDOF 9
