REMARK  Name = ZINC62642012
REMARK  4 active torsions:
REMARK  status: ('A' for Active; 'I' for Inactive)
REMARK    1  A    between atoms: C_1  and  C_2
REMARK    2  A    between atoms: C_2  and  C_3
REMARK    3  A    between atoms: C_2  and  C_4
REMARK    4  A    between atoms: C_10  and  C_12
REMARK                            x       y       z     vdW  Elec       q    Type
REMARK                         _______ _______ _______ _____ _____    ______ ____
ROOT
ATOM      1  C   UNL     1      -7.355  -2.840  -0.145  0.00  0.00    +0.302 C 
ATOM      2  O   UNL     1      -6.317  -2.275   0.130  0.00  0.00    -0.265 OA
ATOM      3  N   UNL     1      -8.448  -2.653   0.621  0.00  0.00    -0.290 N 
ATOM      4  C   UNL     1      -8.345  -1.781   1.756  0.00  0.00    +0.112 C 
ATOM      5  C   UNL     1      -9.196  -2.217   2.909  0.00  0.00    +0.007 C 
ATOM      6  C   UNL     1      -9.082  -3.704   3.199  0.00  0.00    +0.008 C 
ATOM      7  C   UNL     1     -10.044  -4.569   2.410  0.00  0.00    -0.009 C 
ATOM      8  C   UNL     1     -11.474  -4.029   2.508  0.00  0.00    +0.007 C 
ATOM      9  C   UNL     1     -11.460  -2.605   1.948  0.00  0.00    -0.009 C 
ATOM     10  C   UNL     1     -10.618  -1.732   2.880  0.00  0.00    +0.008 C 
ATOM     11  C   UNL     1     -10.932  -2.567   0.533  0.00  0.00    +0.026 C 
ATOM     12  C   UNL     1      -9.675  -3.339   0.255  0.00  0.00    +0.077 C 
ATOM     13  C   UNL     1      -9.674  -4.712   0.941  0.00  0.00    +0.026 C 
ENDROOT
BRANCH   1  20
ATOM     14  C   UNL     1      -6.211  -6.157  -5.474  0.00  0.00    +0.106 A 
ATOM     15  N   UNL     1      -7.302  -6.166  -4.733  0.00  0.00    -0.144 NA
ATOM     16  N   UNL     1      -7.413  -5.462  -3.693  0.00  0.00    -0.126 NA
ATOM     17  C   UNL     1      -6.435  -4.666  -3.280  0.00  0.00    +0.188 A 
ATOM     18  S   UNL     1      -5.216  -4.989  -4.551  0.00  0.00    -0.035 S 
ATOM     19  N   UNL     1      -6.373  -3.827  -2.175  0.00  0.00    -0.255 N 
ATOM     20  C   UNL     1      -7.422  -3.742  -1.333  0.00  0.00    +0.305 C 
ATOM     21  O   UNL     1      -8.421  -4.399  -1.541  0.00  0.00    -0.265 OA
ATOM     22  H   UNL     1      -5.574  -3.302  -2.009  0.00  0.00    +0.157 HD
BRANCH  14  24
ATOM     23  C   UNL     1      -5.969  -8.421  -6.458  0.00  0.00    +0.014 C 
ATOM     24  C   UNL     1      -5.891  -6.918  -6.735  0.00  0.00    +0.040 C 
ATOM     25  C   UNL     1      -6.899  -6.547  -7.824  0.00  0.00    +0.014 C 
ENDBRANCH  14  24
ENDBRANCH   1  20
TORSDOF 2
