REMARK  Name = ZINC34946938
REMARK  8 active torsions:
REMARK  status: ('A' for Active; 'I' for Inactive)
REMARK    1  A    between atoms: C_1  and  C_2
REMARK    2  A    between atoms: C_2  and  N_3
REMARK    3  A    between atoms: C_11  and  C_13
REMARK    4  A    between atoms: C_14  and  C_16
REMARK    5  A    between atoms: C_16  and  C_18
REMARK    6  A    between atoms: C_16  and  N_29
REMARK    7  A    between atoms: C_18  and  C_19
REMARK    8  A    between atoms: C_30  and  C_32
REMARK                            x       y       z     vdW  Elec       q    Type
REMARK                         _______ _______ _______ _____ _____    ______ ____
ROOT
ATOM      1  C   UNL     1       5.073  -2.723   5.953  0.00  0.00    +0.164 C 
ENDROOT
BRANCH   1  12
ATOM      2  N   UNL     1       1.402  -0.485   0.853  0.00  0.00    -0.299 N 
ATOM      3  C   UNL     1       1.295  -1.791   1.168  0.00  0.00    +0.303 C 
ATOM      4  O   UNL     1       0.701  -2.549   0.426  0.00  0.00    -0.253 OA
ATOM      5  N   UNL     1       1.846  -2.257   2.306  0.00  0.00    -0.280 N 
ATOM      6  C   UNL     1       2.453  -1.334   3.276  0.00  0.00    +0.128 C 
ATOM      7  C   UNL     1       3.898  -1.776   3.536  0.00  0.00    +0.127 C 
ATOM      8  N   UNL     1       3.903  -3.216   3.830  0.00  0.00    -0.297 N 
ATOM      9  C   UNL     1       3.297  -4.139   2.860  0.00  0.00    +0.130 C 
ATOM     10  C   UNL     1       1.847  -3.696   2.603  0.00  0.00    +0.092 C 
ATOM     11  C   UNL     1       1.276  -4.467   1.410  0.00  0.00    +0.030 C 
ATOM     12  C   UNL     1       4.455  -3.682   4.968  0.00  0.00    +0.236 C 
ATOM     13  O   UNL     1       4.453  -4.872   5.200  0.00  0.00    -0.274 OA
ATOM     14  H   UNL     1       1.811   0.133   1.479  0.00  0.00    +0.150 HD
BRANCH   2  16
ATOM     15  C   UNL     1       1.143   1.508  -0.540  0.00  0.00    +0.024 C 
ATOM     16  C   UNL     1       0.900   0.001  -0.435  0.00  0.00    +0.102 C 
ENDBRANCH   2  16
ENDBRANCH   1  12
BRANCH   1  17
ATOM     17  N   UNL     1       5.995  -3.450   6.829  0.00  0.00    -0.300 N 
ATOM     18  C   UNL     1       5.540  -4.459   7.598  0.00  0.00    +0.245 C 
ATOM     19  O   UNL     1       4.364  -4.765   7.565  0.00  0.00    -0.270 OA
ATOM     20  H   UNL     1       6.934  -3.206   6.855  0.00  0.00    +0.150 HD
BRANCH  18  21
ATOM     21  C   UNL     1       6.470  -5.193   8.482  0.00  0.00    +0.037 A 
ATOM     22  C   UNL     1       7.820  -4.840   8.526  0.00  0.00    +0.013 A 
ATOM     23  C   UNL     1       8.683  -5.529   9.354  0.00  0.00    +0.001 A 
ATOM     24  C   UNL     1       8.213  -6.567  10.138  0.00  0.00    +0.000 A 
ATOM     25  C   UNL     1       6.877  -6.922  10.098  0.00  0.00    +0.001 A 
ATOM     26  C   UNL     1       6.002  -6.238   9.280  0.00  0.00    +0.013 A 
ENDBRANCH  18  21
ENDBRANCH   1  17
BRANCH   1  27
ATOM     27  C   UNL     1       3.972  -2.077   6.796  0.00  0.00    +0.069 C 
BRANCH  27  28
ATOM     28  C   UNL     1       4.577  -1.030   7.695  0.00  0.00    -0.020 A 
ATOM     29  C   UNL     1       4.967  -1.199   8.968  0.00  0.00    +0.087 A 
ATOM     30  N   UNL     1       5.468  -0.026   9.463  0.00  0.00    -0.360 N 
ATOM     31  H   UNL     1       5.812   0.098  10.361  0.00  0.00    +0.165 HD
ATOM     32  C   UNL     1       5.412   0.952   8.495  0.00  0.00    +0.047 A 
ATOM     33  C   UNL     1       4.857   0.364   7.343  0.00  0.00    +0.003 A 
ATOM     34  C   UNL     1       4.683   1.127   6.187  0.00  0.00    +0.010 A 
ATOM     35  C   UNL     1       5.056   2.442   6.179  0.00  0.00    +0.001 A 
ATOM     36  C   UNL     1       5.608   3.025   7.312  0.00  0.00    +0.002 A 
ATOM     37  C   UNL     1       5.780   2.293   8.466  0.00  0.00    +0.026 A 
ENDBRANCH  27  28
ENDBRANCH   1  27
TORSDOF 6
