REMARK  Name = ZINC39887315
REMARK  7 active torsions:
REMARK  status: ('A' for Active; 'I' for Inactive)
REMARK    1  A    between atoms: C_1  and  C_2
REMARK    2  A    between atoms: C_2  and  C_3
REMARK    3  A    between atoms: C_2  and  C_4
REMARK    4  A    between atoms: C_7  and  N_10
REMARK    5  A    between atoms: C_11  and  C_21
REMARK    6  A    between atoms: C_16  and  C_19
REMARK    7  A    between atoms: C_27  and  C_30
REMARK                            x       y       z     vdW  Elec       q    Type
REMARK                         _______ _______ _______ _____ _____    ______ ____
ROOT
ATOM      1  N   UNL     1       3.065  -1.819   4.676  0.00  0.00    -0.270 N 
ATOM      2  C   UNL     1       2.326  -2.619   5.658  0.00  0.00    +0.197 C 
ATOM      3  N   UNL     1       3.137  -3.767   6.071  0.00  0.00    -0.288 N 
ATOM      4  C   UNL     1       4.482  -3.684   6.092  0.00  0.00    +0.258 C 
ATOM      5  O   UNL     1       5.147  -4.629   6.477  0.00  0.00    -0.269 OA
ATOM      6  C   UNL     1       5.139  -2.453   5.649  0.00  0.00    +0.142 C 
ATOM      7  C   UNL     1       4.384  -1.524   4.918  0.00  0.00    +0.103 C 
ATOM      8  S   UNL     1       5.106  -0.026   4.336  0.00  0.00    -0.033 SA
ATOM      9  H   UNL     1       2.701  -4.593   6.331  0.00  0.00    +0.151 HD
ENDROOT
BRANCH   2  10
ATOM     10  C   UNL     1       2.012  -1.770   6.862  0.00  0.00    -0.008 A 
ATOM     11  C   UNL     1       1.825  -0.396   6.695  0.00  0.00    +0.009 A 
ATOM     12  C   UNL     1       1.540   0.419   7.742  0.00  0.00    +0.032 A 
ATOM     13  C   UNL     1       1.427  -0.127   9.040  0.00  0.00    +0.114 A 
ATOM     14  C   UNL     1       1.625  -1.576   9.213  0.00  0.00    +0.049 A 
ATOM     15  C   UNL     1       1.913  -2.361   8.081  0.00  0.00    +0.021 A 
ATOM     16  C   UNL     1       1.460  -1.839  10.571  0.00  0.00    +0.175 A 
ATOM     17  O   UNL     1       1.188  -0.677  11.183  0.00  0.00    -0.353 OA
ATOM     18  N   UNL     1       1.170   0.370  10.232  0.00  0.00    -0.078 NA
BRANCH  16  19
ATOM     19  C   UNL     1       1.566  -3.158  11.219  0.00  0.00    +0.021 A 
ATOM     20  C   UNL     1       0.590  -3.573  12.130  0.00  0.00    +0.013 A 
ATOM     21  C   UNL     1       0.695  -4.809  12.733  0.00  0.00    +0.021 A 
ATOM     22  C   UNL     1       1.764  -5.638  12.437  0.00  0.00    +0.041 A 
ATOM     23  C   UNL     1       2.735  -5.233  11.536  0.00  0.00    +0.021 A 
ATOM     24  C   UNL     1       2.640  -4.003  10.922  0.00  0.00    +0.013 A 
ATOM     25 CL   UNL     1       1.889  -7.192  13.201  0.00  0.00    -0.084 Cl
ENDBRANCH  16  19
ENDBRANCH   2  10
BRANCH   1  29
ATOM     26  C   UNL     1       1.198  -0.475   1.203  0.00  0.00    -0.045 A 
ATOM     27  C   UNL     1       1.408  -1.829   1.394  0.00  0.00    +0.006 A 
ATOM     28  C   UNL     1       2.027  -2.277   2.544  0.00  0.00    +0.024 A 
ATOM     29  C   UNL     1       2.438  -1.368   3.510  0.00  0.00    +0.036 A 
ATOM     30  C   UNL     1       2.225  -0.009   3.315  0.00  0.00    +0.024 A 
ATOM     31  C   UNL     1       1.610   0.433   2.160  0.00  0.00    +0.006 A 
BRANCH  26  33
ATOM     32  C   UNL     1       1.343  -0.417  -1.272  0.00  0.00    +0.012 C 
ATOM     33  C   UNL     1       0.522   0.011  -0.054  0.00  0.00    +0.013 C 
ATOM     34  C   UNL     1      -0.880  -0.594  -0.145  0.00  0.00    +0.012 C 
ENDBRANCH  26  33
ENDBRANCH   1  29
BRANCH   6  35
ATOM     35  C   UNL     1       6.517  -2.206   5.951  0.00  0.00    +0.107 C 
ATOM     36  N   UNL     1       7.610  -2.010   6.191  0.00  0.00    -0.191 NA
ENDBRANCH   6  35
TORSDOF 5
