REMARK  Name = ZINC21252333
REMARK  11 active torsions:
REMARK  status: ('A' for Active; 'I' for Inactive)
REMARK    1  A    between atoms: C_1  and  C_2
REMARK    2  A    between atoms: C_2  and  C_3
REMARK    3  A    between atoms: C_3  and  O_4
REMARK    4  A    between atoms: O_4  and  C_5
REMARK    5  A    between atoms: C_8  and  C_11
REMARK    6  A    between atoms: C_16  and  C_26
REMARK    7  A    between atoms: C_29  and  O_32
REMARK    8  A    between atoms: O_32  and  C_33
REMARK    9  A    between atoms: C_33  and  C_35
REMARK   10  A    between atoms: C_33  and  C_36
REMARK   11  A    between atoms: C_36  and  C_37
REMARK                            x       y       z     vdW  Elec       q    Type
REMARK                         _______ _______ _______ _____ _____    ______ ____
ROOT
ATOM      1  C   UNL     1       0.888   6.943  -4.723  0.00  0.00    +0.032 C 
ATOM      2  C   UNL     1      -0.545   6.742  -4.230  0.00  0.00    +0.059 C 
ATOM      3  C   UNL     1      -0.547   6.520  -2.726  0.00  0.00    +0.017 C 
ATOM      4  C   UNL     1       0.474   5.881  -2.132  0.00  0.00    +0.036 C 
ATOM      5  C   UNL     1       0.583   5.559  -0.660  0.00  0.00    +0.136 C 
ATOM      6  N   UNL     1      -0.397   6.226   0.172  0.00  0.00    -0.331 N 
ATOM      7  C   UNL     1      -1.758   5.954   0.040  0.00  0.00    +0.049 A 
ATOM      8  C   UNL     1      -2.478   5.354   1.061  0.00  0.00    +0.025 A 
ATOM      9  C   UNL     1      -3.817   5.063   0.868  0.00  0.00    +0.002 A 
ATOM     10  C   UNL     1      -4.434   5.364  -0.333  0.00  0.00    +0.002 A 
ATOM     11  C   UNL     1      -3.721   5.979  -1.349  0.00  0.00    +0.025 A 
ATOM     12  C   UNL     1      -2.387   6.289  -1.149  0.00  0.00    +0.052 A 
ATOM     13  N   UNL     1      -1.643   6.999  -2.085  0.00  0.00    -0.316 N 
ATOM     14  C   UNL     1       1.583   5.445  -2.895  0.00  0.00    +0.163 C 
ATOM     15  O   UNL     1       2.486   4.858  -2.333  0.00  0.00    -0.292 OA
ATOM     16  C   UNL     1       1.683   5.679  -4.372  0.00  0.00    +0.088 C 
ATOM     17  H   UNL     1      -0.072   6.960   0.923  0.00  0.00    +0.147 HD
ATOM     18  H   UNL     1      -2.000   8.018  -2.293  0.00  0.00    +0.152 HD
ENDROOT
BRANCH   1  22
ATOM     19  C   UNL     1       0.894   7.530  -8.955  0.00  0.00    +0.121 A 
ATOM     20  C   UNL     1       1.429   8.499  -8.119  0.00  0.00    +0.046 A 
ATOM     21  C   UNL     1       1.426   8.307  -6.751  0.00  0.00    +0.007 A 
ATOM     22  C   UNL     1       0.890   7.150  -6.215  0.00  0.00    -0.043 A 
ATOM     23  C   UNL     1       0.361   6.180  -7.047  0.00  0.00    +0.007 A 
ATOM     24  C   UNL     1       0.357   6.370  -8.416  0.00  0.00    +0.046 A 
BRANCH  19  25
ATOM     25  O   UNL     1       0.895   7.717 -10.302  0.00  0.00    -0.492 OA
BRANCH  25  26
ATOM     26  C   UNL     1       0.328   6.678 -11.101  0.00  0.00    +0.229 C 
BRANCH  26  28
ATOM     27  C   UNL     1      -0.189   5.952 -13.436  0.00  0.00    +0.007 C 
ATOM     28  C   UNL     1       0.419   7.064 -12.579  0.00  0.00    +0.038 C 
ENDBRANCH  26  28
ENDBRANCH  25  26
ENDBRANCH  19  25
ENDBRANCH   1  22
BRANCH   5  29
ATOM     29  C   UNL     1       0.427   4.071  -0.483  0.00  0.00    -0.023 A 
ATOM     30  C   UNL     1      -0.776   3.462  -0.788  0.00  0.00    +0.009 A 
ATOM     31  C   UNL     1      -0.921   2.097  -0.627  0.00  0.00    +0.046 A 
ATOM     32  C   UNL     1       0.142   1.338  -0.159  0.00  0.00    +0.121 A 
ATOM     33  C   UNL     1       1.347   1.953   0.150  0.00  0.00    +0.046 A 
ATOM     34  C   UNL     1       1.488   3.317  -0.017  0.00  0.00    +0.009 A 
BRANCH  32  35
ATOM     35  O   UNL     1       0.002  -0.004   0.000  0.00  0.00    -0.489 OA
BRANCH  35  36
ATOM     36  C   UNL     1      -1.299  -0.551  -0.221  0.00  0.00    +0.170 C 
ATOM     37  C   UNL     1      -1.486  -0.837  -1.712  0.00  0.00    +0.052 C 
BRANCH  36  38
ATOM     38  C   UNL     1      -1.446  -1.852   0.570  0.00  0.00    +0.041 C 
ATOM     39  C   UNL     1      -1.384  -1.548   2.069  0.00  0.00    +0.007 C 
ENDBRANCH  36  38
ENDBRANCH  35  36
ENDBRANCH  32  35
ENDBRANCH   5  29
TORSDOF 8
