REMARK  Name = ZINC06873507
REMARK  4 active torsions:
REMARK  status: ('A' for Active; 'I' for Inactive)
REMARK    1  A    between atoms: C_1  and  C_2
REMARK    2  A    between atoms: C_5  and  C_24
REMARK    3  A    between atoms: N_8  and  S_10
REMARK    4  A    between atoms: S_10  and  C_13
REMARK                            x       y       z     vdW  Elec       q    Type
REMARK                         _______ _______ _______ _____ _____    ______ ____
ROOT
ATOM      1  C   UNL     1      -2.319   4.670  -3.128  0.00  0.00    +0.107 A 
ATOM      2  C   UNL     1      -3.117   3.775  -3.816  0.00  0.00    +0.032 A 
ATOM      3  C   UNL     1      -3.362   3.953  -5.165  0.00  0.00    +0.049 A 
ATOM      4  C   UNL     1      -2.807   5.031  -5.831  0.00  0.00    +0.142 A 
ATOM      5  C   UNL     1      -2.001   5.934  -5.138  0.00  0.00    +0.078 A 
ATOM      6  C   UNL     1      -1.764   5.753  -3.785  0.00  0.00    +0.055 A 
ATOM      7  N   UNL     1      -1.443   7.021  -5.825  0.00  0.00    -0.280 N 
ATOM      8  C   UNL     1      -1.937   7.353  -7.037  0.00  0.00    +0.255 C 
ATOM      9  O   UNL     1      -1.450   8.271  -7.663  0.00  0.00    -0.272 OA
ATOM     10  C   UNL     1      -3.096   6.578  -7.610  0.00  0.00    +0.325 C 
ATOM     11  O   UNL     1      -3.039   5.223  -7.157  0.00  0.00    -0.481 OA
ATOM     12  H   UNL     1      -0.713   7.528  -5.435  0.00  0.00    +0.155 HD
ENDROOT
BRANCH   1  13
ATOM     13  S   UNL     1      -2.014   4.436  -1.409  0.00  0.00    +0.061 S 
ATOM     14  O   UNL     1      -3.092   3.659  -0.908  0.00  0.00    -0.153 OA
ATOM     15  O   UNL     1      -1.682   5.711  -0.878  0.00  0.00    -0.153 OA
BRANCH  13  21
ATOM     16  C   UNL     1       0.002  -0.004   0.002  0.00  0.00    +0.009 C 
ATOM     17  C   UNL     1      -0.019   1.526   0.010  0.00  0.00    +0.002 C 
ATOM     18  C   UNL     1       1.417   2.056  -0.000  0.00  0.00    +0.009 C 
ATOM     19  C   UNL     1       1.398   3.586   0.041  0.00  0.00    +0.002 C 
ATOM     20  C   UNL     1       0.676   4.117  -1.202  0.00  0.00    +0.112 C 
ATOM     21  N   UNL     1      -0.654   3.499  -1.277  0.00  0.00    -0.176 NA
ATOM     22  C   UNL     1      -0.756   2.034  -1.232  0.00  0.00    +0.112 C 
ATOM     23  C   UNL     1       0.661   4.053   1.298  0.00  0.00    +0.009 C 
ENDBRANCH  13  21
ENDBRANCH   1  13
TORSDOF 2
