REMARK  Name = ZINC08559952
REMARK  6 active torsions:
REMARK  status: ('A' for Active; 'I' for Inactive)
REMARK    1  A    between atoms: C_1  and  C_2
REMARK    2  A    between atoms: C_2  and  O_3
REMARK    3  A    between atoms: O_3  and  C_4
REMARK    4  A    between atoms: C_4  and  C_6
REMARK    5  A    between atoms: C_7  and  N_28
REMARK    6  A    between atoms: C_24  and  C_27
REMARK                            x       y       z     vdW  Elec       q    Type
REMARK                         _______ _______ _______ _____ _____    ______ ____
ROOT
ATOM      1  C   UNL     1      -1.241   2.031   0.024  0.00  0.00    +0.117 C 
ATOM      2  C   UNL     1      -1.261   3.386   0.135  0.00  0.00    +0.195 C 
ATOM      3  O   UNL     1      -2.415   4.068   0.144  0.00  0.00    -0.446 OA
ATOM      4  C   UNL     1      -3.536   3.514  -0.355  0.00  0.00    +0.116 C 
ATOM      5  C   UNL     1      -3.655   2.181  -0.496  0.00  0.00    +0.057 C 
ATOM      6  C   UNL     1      -2.528   1.268  -0.088  0.00  0.00    +0.141 C 
ATOM      7  C   UNL     1      -2.853   0.570   1.196  0.00  0.00    -0.002 A 
ATOM      8  C   UNL     1      -3.093   1.055   2.463  0.00  0.00    +0.007 A 
ATOM      9  C   UNL     1      -3.372   0.119   3.454  0.00  0.00    +0.000 A 
ATOM     10  C   UNL     1      -3.404  -1.232   3.178  0.00  0.00    +0.002 A 
ATOM     11  C   UNL     1      -3.163  -1.727   1.906  0.00  0.00    +0.023 A 
ATOM     12  C   UNL     1      -2.881  -0.799   0.902  0.00  0.00    +0.038 A 
ATOM     13  N   UNL     1      -2.605  -1.009  -0.437  0.00  0.00    -0.284 N 
ATOM     14  C   UNL     1      -2.385   0.147  -1.096  0.00  0.00    +0.237 C 
ATOM     15  O   UNL     1      -2.122   0.267  -2.274  0.00  0.00    -0.274 OA
ATOM     16  C   UNL     1      -4.825   1.602  -1.026  0.00  0.00    +0.164 C 
ATOM     17  O   UNL     1      -4.901   0.394  -1.123  0.00  0.00    -0.292 OA
ATOM     18  C   UNL     1      -5.981   2.453  -1.474  0.00  0.00    +0.083 C 
ATOM     19  C   UNL     1      -5.449   3.821  -1.913  0.00  0.00    +0.001 C 
ATOM     20  C   UNL     1      -4.668   4.434  -0.750  0.00  0.00    +0.078 C 
ATOM     21  C   UNL     1      -6.619   4.734  -2.284  0.00  0.00    +0.008 C 
ATOM     22  H   UNL     1      -2.573  -1.885  -0.853  0.00  0.00    +0.155 HD
ENDROOT
BRANCH   2  23
ATOM     23  N   UNL     1      -0.078   4.069   0.233  0.00  0.00    -0.329 N 
ATOM     24  H   UNL     1       0.764   3.595   0.148  0.00  0.00    +0.145 HD
ATOM     25  H   UNL     1      -0.082   5.026   0.389  0.00  0.00    +0.145 HD
ENDBRANCH   2  23
BRANCH   1  26
ATOM     26  C   UNL     1      -0.017   1.346   0.019  0.00  0.00    +0.342 C 
ATOM     27  O   UNL     1       0.372   0.787   1.028  0.00  0.00    -0.245 OA
BRANCH  26  28
ATOM     28  O   UNL     1       0.733   1.310  -1.104  0.00  0.00    -0.462 OA
BRANCH  28  30
ATOM     29  C   UNL     1       2.675   0.669  -2.393  0.00  0.00    +0.048 C 
ATOM     30  C   UNL     1       1.971   0.600  -1.036  0.00  0.00    +0.229 C 
ENDBRANCH  28  30
ENDBRANCH  26  28
ENDBRANCH   1  26
TORSDOF 4
