REMARK  Name = ZINC11591941
REMARK  8 active torsions:
REMARK  status: ('A' for Active; 'I' for Inactive)
REMARK    1  A    between atoms: C_1  and  C_2
REMARK    2  A    between atoms: C_2  and  C_3
REMARK    3  A    between atoms: C_6  and  C_9
REMARK    4  A    between atoms: C_15  and  C_17
REMARK    5  A    between atoms: C_17  and  S_18
REMARK    6  A    between atoms: S_18  and  C_19
REMARK    7  A    between atoms: C_22  and  C_25
REMARK    8  A    between atoms: N_23  and  N_24
REMARK                            x       y       z     vdW  Elec       q    Type
REMARK                         _______ _______ _______ _____ _____    ______ ____
ROOT
ATOM      1  C   UNL     1       5.117  15.151   0.195  0.00  0.00    +0.080 A 
ATOM      2  C   UNL     1       6.350  14.670   0.536  0.00  0.00    +0.076 A 
ATOM      3  S   UNL     1       6.013  12.915   0.609  0.00  0.00    -0.060 S 
ATOM      4  C   UNL     1       4.281  13.003   0.173  0.00  0.00    +0.165 A 
ATOM      5  N   UNL     1       4.114  14.304   0.022  0.00  0.00    -0.225 NA
ATOM      6  N   UNL     1       3.356  11.976   0.035  0.00  0.00    -0.264 N 
ATOM      7  C   UNL     1       3.734  10.697   0.235  0.00  0.00    +0.229 C 
ATOM      8  O   UNL     1       4.882  10.444   0.535  0.00  0.00    -0.275 OA
ATOM      9  H   UNL     1       2.439  12.178  -0.205  0.00  0.00    +0.157 HD
ENDROOT
BRANCH   1  13
ATOM     10  C   UNL     1       4.507  19.329  -0.304  0.00  0.00    -0.048 A 
ATOM     11  C   UNL     1       3.453  18.452  -0.488  0.00  0.00    +0.004 A 
ATOM     12  C   UNL     1       3.645  17.095  -0.327  0.00  0.00    +0.010 A 
ATOM     13  C   UNL     1       4.904  16.608   0.021  0.00  0.00    +0.001 A 
ATOM     14  C   UNL     1       5.961  17.497   0.209  0.00  0.00    +0.010 A 
ATOM     15  C   UNL     1       5.758  18.852   0.041  0.00  0.00    +0.004 A 
BRANCH  10  17
ATOM     16  C   UNL     1       3.877  21.428   0.857  0.00  0.00    +0.009 C 
ATOM     17  C   UNL     1       4.290  20.810  -0.481  0.00  0.00    +0.032 C 
ENDBRANCH  10  17
ENDBRANCH   1  13
BRANCH   7  18
ATOM     18  C   UNL     1       2.731   9.583   0.085  0.00  0.00    +0.173 C 
BRANCH  18  19
ATOM     19  S   UNL     1       3.538   7.997   0.415  0.00  0.00    -0.075 S 
BRANCH  19  20
ATOM     20  C   UNL     1       2.175   6.905   0.176  0.00  0.00    +0.209 A 
ATOM     21  N   UNL     1       0.950   7.248  -0.151  0.00  0.00    -0.121 NA
ATOM     22  N   UNL     1       0.209   6.203  -0.249  0.00  0.00    -0.126 NA
ATOM     23  C   UNL     1       0.914   5.126   0.019  0.00  0.00    +0.188 A 
ATOM     24  N   UNL     1       2.197   5.543   0.297  0.00  0.00    -0.223 N 
BRANCH  23  25
ATOM     25  C   UNL     1       0.426   3.737   0.017  0.00  0.00    +0.058 A 
ATOM     26  C   UNL     1      -0.866   3.275   0.026  0.00  0.00    +0.019 A 
ATOM     27  C   UNL     1      -1.081   1.915   0.017  0.00  0.00    +0.008 A 
ATOM     28  C   UNL     1      -0.013   1.076   0.008  0.00  0.00    +0.046 A 
ATOM     29  S   UNL     1       1.361   2.216   0.001  0.00  0.00    -0.093 S 
ENDBRANCH  23  25
BRANCH  24  30
ATOM     30  N   UNL     1       3.267   4.760   0.623  0.00  0.00    -0.295 N 
ATOM     31  H   UNL     1       3.773   4.476  -0.203  0.00  0.00    +0.163 HD
ATOM     32  H   UNL     1       3.876   5.232   1.275  0.00  0.00    +0.163 HD
ENDBRANCH  24  30
ENDBRANCH  19  20
ENDBRANCH  18  19
ENDBRANCH   7  18
TORSDOF 7
