REMARK  Name = ZINC11855948
REMARK  3 active torsions:
REMARK  status: ('A' for Active; 'I' for Inactive)
REMARK    1  A    between atoms: C_10  and  C_11
REMARK    2  A    between atoms: N_13  and  C_14
REMARK    3  A    between atoms: C_16  and  C_31
REMARK                            x       y       z     vdW  Elec       q    Type
REMARK                         _______ _______ _______ _____ _____    ______ ____
ROOT
ATOM      1  C   UNL     1      -3.774   7.397  -0.030  0.00  0.00    +0.132 A 
ATOM      2  C   UNL     1      -2.706   8.229   0.065  0.00  0.00    +0.074 A 
ATOM      3  C   UNL     1      -3.186   9.555   0.030  0.00  0.00    +0.102 A 
ATOM      4  N   UNL     1      -4.499   9.515  -0.072  0.00  0.00    -0.162 NA
ATOM      5  N   UNL     1      -4.897   8.172  -0.111  0.00  0.00    -0.185 N 
ATOM      6  C   UNL     1      -6.195   7.713  -0.214  0.00  0.00    +0.234 A 
ATOM      7  N   UNL     1      -7.217   8.606  -0.288  0.00  0.00    -0.291 N 
ATOM      8  H   UNL     1      -7.036   9.559  -0.271  0.00  0.00    +0.172 HD
ATOM      9  C   UNL     1      -8.485   8.158  -0.384  0.00  0.00    +0.256 A 
ATOM     10  O   UNL     1      -9.415   8.944  -0.453  0.00  0.00    -0.267 OA
ATOM     11  C   UNL     1      -8.721   6.765  -0.404  0.00  0.00    +0.038 A 
ATOM     12  C   UNL     1      -7.661   5.920  -0.337  0.00  0.00    +0.053 A 
ATOM     13  N   UNL     1      -6.422   6.420  -0.246  0.00  0.00    -0.217 NA
ATOM     14  C   UNL     1      -7.813   4.422  -0.373  0.00  0.00    +0.056 C 
ATOM     15  C   UNL     1      -9.248   4.019  -0.040  0.00  0.00    +0.006 C 
ATOM     16  C   UNL     1     -10.197   4.827  -0.933  0.00  0.00    +0.005 C 
ATOM     17  C   UNL     1     -10.145   6.288  -0.491  0.00  0.00    +0.042 C 
ENDROOT
BRANCH   3  18
ATOM     18  C   UNL     1      -2.360  10.779   0.102  0.00  0.00    +0.039 A 
ATOM     19  C   UNL     1      -2.755  12.089   0.080  0.00  0.00    +0.018 A 
ATOM     20  C   UNL     1      -1.793  13.072   0.162  0.00  0.00    +0.008 A 
ATOM     21  C   UNL     1      -0.487  12.714   0.261  0.00  0.00    +0.046 A 
ATOM     22  S   UNL     1      -0.587  10.932   0.249  0.00  0.00    -0.095 S 
ENDBRANCH   3  18
BRANCH   1  25
ATOM     23  C   UNL     1      -2.552   5.365   0.052  0.00  0.00    +0.250 C 
ATOM     24  O   UNL     1      -1.520   6.003   0.136  0.00  0.00    -0.270 OA
ATOM     25  N   UNL     1      -3.734   6.006  -0.036  0.00  0.00    -0.266 N 
ATOM     26  H   UNL     1      -4.558   5.498  -0.103  0.00  0.00    +0.157 HD
BRANCH  23  36
ATOM     27  C   UNL     1       1.154   1.776  -0.050  0.00  0.00    +0.001 A 
ATOM     28  C   UNL     1       1.155   3.170  -0.044  0.00  0.00    +0.001 A 
ATOM     29  C   UNL     1      -0.013   3.871  -0.014  0.00  0.00    +0.009 A 
ATOM     30  C   UNL     1      -1.233   3.183   0.012  0.00  0.00    -0.006 A 
ATOM     31  C   UNL     1      -1.237   1.766   0.000  0.00  0.00    -0.017 A 
ATOM     32  C   UNL     1      -0.013   1.076  -0.026  0.00  0.00    +0.008 A 
ATOM     33  C   UNL     1      -2.463   1.079   0.032  0.00  0.00    +0.008 A 
ATOM     34  C   UNL     1      -3.640   1.761   0.064  0.00  0.00    +0.001 A 
ATOM     35  C   UNL     1      -3.683   3.149   0.070  0.00  0.00    +0.014 A 
ATOM     36  C   UNL     1      -2.510   3.892   0.045  0.00  0.00    +0.045 A 
ENDBRANCH  23  36
ENDBRANCH   1  25
TORSDOF 3
