REMARK  Name = ZINC22431936
REMARK  11 active torsions:
REMARK  status: ('A' for Active; 'I' for Inactive)
REMARK    1  A    between atoms: C_1  and  C_2
REMARK    2  A    between atoms: C_5  and  S_8
REMARK    3  A    between atoms: S_8  and  N_11
REMARK    4  A    between atoms: N_11  and  C_12
REMARK    5  A    between atoms: N_11  and  C_29
REMARK    6  A    between atoms: C_12  and  C_13
REMARK    7  A    between atoms: N_15  and  C_16
REMARK    8  A    between atoms: C_16  and  C_17
REMARK    9  A    between atoms: C_20  and  N_23
REMARK   10  A    between atoms: C_27  and  C_28
REMARK   11  A    between atoms: C_32  and  C_36
REMARK                            x       y       z     vdW  Elec       q    Type
REMARK                         _______ _______ _______ _____ _____    ______ ____
ROOT
ATOM      1  N   UNL     1       7.776   9.729  -1.979  0.00  0.00    -0.194 N 
ENDROOT
BRANCH   1   2
ATOM      2  C   UNL     1       7.437  10.776  -2.838  0.00  0.00    +0.053 A 
ATOM      3  C   UNL     1       8.424  11.622  -3.329  0.00  0.00    +0.025 A 
ATOM      4  C   UNL     1       8.087  12.653  -4.183  0.00  0.00    +0.006 A 
ATOM      5  C   UNL     1       6.766  12.852  -4.542  0.00  0.00    -0.032 A 
ATOM      6  C   UNL     1       5.779  12.015  -4.051  0.00  0.00    +0.046 A 
ATOM      7  C   UNL     1       6.111  10.978  -3.200  0.00  0.00    +0.045 A 
ATOM      8 CL   UNL     1       4.123  12.269  -4.505  0.00  0.00    -0.083 Cl
ATOM      9  C   UNL     1       6.401  13.982  -5.471  0.00  0.00    +0.045 C 
ENDBRANCH   1   2
BRANCH   1  10
ATOM     10  S   UNL     1       8.562  10.047  -0.556  0.00  0.00    +0.075 S 
ATOM     11  O   UNL     1       8.376  11.431  -0.290  0.00  0.00    -0.150 OA
ATOM     12  O   UNL     1       8.168   9.036   0.360  0.00  0.00    -0.150 OA
BRANCH  10  17
ATOM     13  C   UNL     1      14.459   9.262  -1.562  0.00  0.00    +0.044 C 
ATOM     14  C   UNL     1      12.986   9.458  -1.310  0.00  0.00    -0.050 A 
ATOM     15  C   UNL     1      12.434  10.722  -1.392  0.00  0.00    +0.005 A 
ATOM     16  C   UNL     1      11.083  10.902  -1.161  0.00  0.00    +0.029 A 
ATOM     17  C   UNL     1      10.284   9.818  -0.850  0.00  0.00    +0.109 A 
ATOM     18  C   UNL     1      10.838   8.554  -0.764  0.00  0.00    +0.029 A 
ATOM     19  C   UNL     1      12.188   8.373  -0.999  0.00  0.00    +0.005 A 
ENDBRANCH  10  17
ENDBRANCH   1  10
BRANCH   1  20
ATOM     20  C   UNL     1       7.436   8.349  -2.335  0.00  0.00    +0.227 C 
BRANCH  20  21
ATOM     21  C   UNL     1       6.023   8.053  -1.905  0.00  0.00    +0.232 C 
ATOM     22  O   UNL     1       5.364   8.910  -1.355  0.00  0.00    -0.274 OA
ATOM     23  N   UNL     1       5.491   6.835  -2.132  0.00  0.00    -0.310 N 
ATOM     24  H   UNL     1       6.088   6.058  -2.631  0.00  0.00    +0.149 HD
BRANCH  23  25
ATOM     25  C   UNL     1       4.117   6.547  -1.714  0.00  0.00    +0.139 C 
BRANCH  25  26
ATOM     26  C   UNL     1       3.767   5.128  -2.080  0.00  0.00    -0.030 A 
ATOM     27  C   UNL     1       4.010   4.104  -1.183  0.00  0.00    +0.007 A 
ATOM     28  C   UNL     1       3.691   2.802  -1.517  0.00  0.00    +0.026 A 
ATOM     29  C   UNL     1       3.125   2.522  -2.753  0.00  0.00    +0.048 A 
ATOM     30  C   UNL     1       2.887   3.552  -3.654  0.00  0.00    +0.026 A 
ATOM     31  C   UNL     1       3.204   4.852  -3.313  0.00  0.00    +0.007 A 
BRANCH  29  32
ATOM     32  N   UNL     1       2.801   1.201  -3.095  0.00  0.00    -0.305 N 
ATOM     33  C   UNL     1       3.621   0.108  -2.992  0.00  0.00    +0.110 A 
ATOM     34  C   UNL     1       2.913  -0.953  -3.424  0.00  0.00    +0.102 A 
ATOM     35  N   UNL     1       1.695  -0.524  -3.787  0.00  0.00    -0.350 N 
ATOM     36  C   UNL     1       1.614   0.764  -3.590  0.00  0.00    +0.088 A 
ATOM     37  C   UNL     1       0.407   1.622  -3.869  0.00  0.00    +0.084 C 
ATOM     38  H   UNL     1       0.955  -1.237  -4.179  0.00  0.00    +0.166 HD
ENDBRANCH  29  32
ENDBRANCH  25  26
ENDBRANCH  23  25
ENDBRANCH  20  21
ENDBRANCH   1  20
TORSDOF 8
