REMARK  Name = ZINC20573751
REMARK  6 active torsions:
REMARK  status: ('A' for Active; 'I' for Inactive)
REMARK    1  A    between atoms: C_1  and  C_2
REMARK    2  A    between atoms: C_2  and  C_4
REMARK    3  A    between atoms: C_2  and  N_21
REMARK    4  A    between atoms: C_22  and  C_24
REMARK    5  A    between atoms: C_24  and  O_25
REMARK    6  A    between atoms: O_25  and  C_26
REMARK                            x       y       z     vdW  Elec       q    Type
REMARK                         _______ _______ _______ _____ _____    ______ ____
ROOT
ATOM      1  C   UNL     1       0.609  -0.451  -1.303  0.00  0.00    +0.236 C 
ATOM      2  O   UNL     1       1.568  -1.194  -1.302  0.00  0.00    -0.274 OA
ATOM      3  N   UNL     1       0.088  -0.024  -2.470  0.00  0.00    -0.300 N 
ATOM      4  C   UNL     1      -0.997   0.967  -2.487  0.00  0.00    +0.110 C 
ATOM      5  C   UNL     1      -2.159   0.410  -3.315  0.00  0.00    +0.047 C 
ATOM      6  C   UNL     1      -1.649   0.009  -4.700  0.00  0.00    +0.064 C 
ATOM      7  C   UNL     1      -0.585  -1.080  -4.564  0.00  0.00    +0.047 C 
ATOM      8  C   UNL     1       0.598  -0.535  -3.749  0.00  0.00    +0.110 C 
ATOM      9  C   UNL     1      -2.795  -0.500  -5.535  0.00  0.00    +0.057 A 
ATOM     10  C   UNL     1      -3.386   0.232  -6.507  0.00  0.00    +0.039 A 
ATOM     11  N   UNL     1      -4.368  -0.536  -7.046  0.00  0.00    -0.349 N 
ATOM     12  H   UNL     1      -4.967  -0.285  -7.767  0.00  0.00    +0.166 HD
ATOM     13  C   UNL     1      -4.352  -1.719  -6.387  0.00  0.00    +0.171 A 
ATOM     14  N   UNL     1      -3.406  -1.685  -5.484  0.00  0.00    -0.348 N 
ATOM     15  C   UNL     1      -2.969   1.636  -6.860  0.00  0.00    +0.070 C 
ATOM     16  C   UNL     1      -2.102   2.173  -5.712  0.00  0.00    +0.088 C 
ATOM     17  N   UNL     1      -1.069   1.184  -5.370  0.00  0.00    -0.305 NA
ATOM     18  H   UNL     1      -0.343   1.600  -4.806  0.00  0.00    +0.123 HD
ATOM     19  H   UNL     1      -3.184  -2.407  -4.875  0.00  0.00    +0.166 HD
ENDROOT
BRANCH   1  21
ATOM     20  C   UNL     1       0.555   1.370   0.380  0.00  0.00    +0.038 C 
ATOM     21  C   UNL     1       0.001  -0.005   0.002  0.00  0.00    +0.156 C 
BRANCH  21  22
ATOM     22  N   UNL     1       0.335  -0.971   1.052  0.00  0.00    -0.301 N 
ATOM     23  C   UNL     1      -0.459  -1.092   2.134  0.00  0.00    +0.251 C 
ATOM     24  O   UNL     1      -1.450  -0.400   2.239  0.00  0.00    -0.272 OA
ATOM     25  H   UNL     1       1.127  -1.524   0.968  0.00  0.00    +0.150 HD
BRANCH  23  26
ATOM     26  C   UNL     1      -0.116  -2.085   3.214  0.00  0.00    +0.324 C 
BRANCH  26  27
ATOM     27  O   UNL     1      -1.101  -2.026   4.247  0.00  0.00    -0.483 OA
BRANCH  27  28
ATOM     28  C   UNL     1      -0.939  -2.865   5.304  0.00  0.00    +0.121 A 
ATOM     29  C   UNL     1       0.150  -3.724   5.348  0.00  0.00    +0.047 A 
ATOM     30  C   UNL     1       0.313  -4.576   6.423  0.00  0.00    +0.023 A 
ATOM     31  C   UNL     1      -0.608  -4.573   7.455  0.00  0.00    +0.041 A 
ATOM     32  C   UNL     1      -1.695  -3.718   7.413  0.00  0.00    +0.023 A 
ATOM     33  C   UNL     1      -1.858  -2.859   6.343  0.00  0.00    +0.047 A 
ATOM     34 CL   UNL     1      -0.401  -5.645   8.804  0.00  0.00    -0.084 Cl
ENDBRANCH  27  28
ENDBRANCH  26  27
ENDBRANCH  23  26
ENDBRANCH  21  22
ENDBRANCH   1  21
TORSDOF 5
