REMARK  Name = ZINC01420446
REMARK  11 active torsions:
REMARK  status: ('A' for Active; 'I' for Inactive)
REMARK    1  A    between atoms: C_1  and  C_2
REMARK    2  A    between atoms: C_4  and  C_36
REMARK    3  A    between atoms: C_6  and  S_8
REMARK    4  A    between atoms: S_8  and  C_9
REMARK    5  A    between atoms: C_9  and  C_10
REMARK    6  A    between atoms: N_12  and  C_13
REMARK    7  A    between atoms: N_12  and  C_21
REMARK    8  A    between atoms: C_13  and  C_14
REMARK    9  A    between atoms: C_21  and  C_23
REMARK   10  A    between atoms: C_21  and  C_24
REMARK   11  A    between atoms: N_26  and  C_27
REMARK                            x       y       z     vdW  Elec       q    Type
REMARK                         _______ _______ _______ _____ _____    ______ ____
ROOT
ATOM      1  C   UNL     1      -0.614  -2.605   5.418  0.00  0.00    +0.227 C 
ATOM      2  O   UNL     1      -0.885  -3.638   5.993  0.00  0.00    -0.275 OA
ATOM      3  N   UNL     1      -0.133  -1.554   6.112  0.00  0.00    -0.285 N 
ENDROOT
BRANCH   3   4
ATOM      4  C   UNL     1       0.175  -1.697   7.538  0.00  0.00    +0.159 C 
ATOM      5  C   UNL     1       1.667  -1.450   7.764  0.00  0.00    +0.038 C 
BRANCH   4   6
ATOM      6  C   UNL     1      -0.626  -0.694   8.327  0.00  0.00    +0.237 C 
ATOM      7  O   UNL     1      -1.366   0.078   7.754  0.00  0.00    -0.273 OA
ATOM      8  N   UNL     1      -0.520  -0.654   9.670  0.00  0.00    -0.284 N 
ATOM      9  H   UNL     1       0.125  -1.220  10.123  0.00  0.00    +0.155 HD
BRANCH   8  10
ATOM     10  C   UNL     1      -1.341   0.205  10.413  0.00  0.00    +0.037 A 
ATOM     11  C   UNL     1      -0.862   0.789  11.577  0.00  0.00    +0.027 A 
ATOM     12  C   UNL     1      -1.670   1.637  12.310  0.00  0.00    +0.051 A 
ATOM     13  C   UNL     1      -2.962   1.905  11.886  0.00  0.00    +0.166 A 
ATOM     14  C   UNL     1      -3.446   1.320  10.718  0.00  0.00    +0.168 A 
ATOM     15  C   UNL     1      -2.633   0.475   9.981  0.00  0.00    +0.072 A 
ATOM     16  O   UNL     1      -4.730   1.738  10.520  0.00  0.00    -0.453 OA
ATOM     17  C   UNL     1      -5.165   2.259  11.790  0.00  0.00    +0.466 C 
ATOM     18  O   UNL     1      -3.944   2.691  12.419  0.00  0.00    -0.453 OA
ENDBRANCH   8  10
ENDBRANCH   4   6
ENDBRANCH   3   4
BRANCH   1  19
ATOM     19  C   UNL     1      -0.816  -2.496   3.929  0.00  0.00    +0.173 C 
BRANCH  19  20
ATOM     20  S   UNL     1      -1.729  -3.946   3.334  0.00  0.00    -0.077 S 
BRANCH  20  26
ATOM     21  C   UNL     1      -0.867  -1.086  -0.821  0.00  0.00    +0.066 C 
ATOM     22  C   UNL     1      -1.460  -2.337  -0.227  0.00  0.00    +0.043 A 
ATOM     23  C   UNL     1      -2.114  -3.255  -1.034  0.00  0.00    +0.046 A 
ATOM     24  C   UNL     1      -2.645  -4.393  -0.448  0.00  0.00    +0.043 A 
ATOM     25  N   UNL     1      -2.513  -4.569   0.857  0.00  0.00    -0.227 NA
ATOM     26  C   UNL     1      -1.882  -3.671   1.600  0.00  0.00    +0.189 A 
ATOM     27  N   UNL     1      -1.358  -2.576   1.070  0.00  0.00    -0.227 NA
ATOM     28  C   UNL     1      -3.365  -5.418  -1.286  0.00  0.00    +0.066 C 
ENDBRANCH  20  26
ENDBRANCH  19  20
ENDBRANCH   1  19
BRANCH   3  29
ATOM     29  C   UNL     1       0.082  -0.270   5.441  0.00  0.00    +0.143 C 
BRANCH  29  30
ATOM     30  C   UNL     1       1.424  -0.280   4.756  0.00  0.00    -0.030 A 
ATOM     31  C   UNL     1       2.561   0.076   5.458  0.00  0.00    +0.006 A 
ATOM     32  C   UNL     1       3.792   0.068   4.830  0.00  0.00    +0.020 A 
ATOM     33  C   UNL     1       3.887  -0.297   3.499  0.00  0.00    +0.041 A 
ATOM     34  C   UNL     1       2.749  -0.653   2.797  0.00  0.00    +0.020 A 
ATOM     35  C   UNL     1       1.519  -0.650   3.428  0.00  0.00    +0.006 A 
ATOM     36 CL   UNL     1       5.433  -0.308   2.709  0.00  0.00    -0.084 Cl
ENDBRANCH  29  30
ENDBRANCH   3  29
TORSDOF 8
