REMARK  Name = ZINC36740746
REMARK  4 active torsions:
REMARK  status: ('A' for Active; 'I' for Inactive)
REMARK    1  A    between atoms: N_12  and  C_16
REMARK    2  A    between atoms: C_16  and  C_17
REMARK    3  A    between atoms: N_19  and  C_20
REMARK    4  A    between atoms: C_21  and  C_30
REMARK                            x       y       z     vdW  Elec       q    Type
REMARK                         _______ _______ _______ _____ _____    ______ ____
ROOT
ATOM      1  C   UNL     1       7.044   0.044  -0.773  0.00  0.00    +0.214 C 
ENDROOT
BRANCH   1  13
ATOM      2  C   UNL     1      -0.017   1.377   0.010  0.00  0.00    +0.000 A 
ATOM      3  C   UNL     1       1.172   2.082   0.002  0.00  0.00    +0.000 A 
ATOM      4  C   UNL     1       2.375   1.405  -0.015  0.00  0.00    +0.006 A 
ATOM      5  C   UNL     1       2.398   0.019  -0.025  0.00  0.00    -0.012 A 
ATOM      6  C   UNL     1       1.207  -0.686  -0.013  0.00  0.00    -0.042 A 
ATOM      7  C   UNL     1       0.002  -0.004   0.002  0.00  0.00    +0.004 A 
ATOM      8  C   UNL     1       1.492  -2.174  -0.016  0.00  0.00    +0.038 C 
ATOM      9  C   UNL     1       2.965  -2.303  -0.464  0.00  0.00    +0.045 C 
ATOM     10  C   UNL     1       3.551  -0.948  -0.050  0.00  0.00    +0.138 C 
ATOM     11  C   UNL     1       4.627  -0.503  -1.006  0.00  0.00    +0.251 C 
ATOM     12  O   UNL     1       4.518  -0.305  -2.197  0.00  0.00    -0.272 OA
ATOM     13  N   UNL     1       5.740  -0.373  -0.252  0.00  0.00    -0.215 N 
ATOM     14  C   UNL     1       5.504  -0.674   1.032  0.00  0.00    +0.310 C 
ATOM     15  O   UNL     1       6.350  -0.631   1.903  0.00  0.00    -0.252 OA
ATOM     16  N   UNL     1       4.221  -1.029   1.248  0.00  0.00    -0.281 N 
ATOM     17  H   UNL     1       3.822  -1.286   2.095  0.00  0.00    +0.152 HD
ENDBRANCH   1  13
BRANCH   1  18
ATOM     18  C   UNL     1       7.159   1.545  -0.696  0.00  0.00    +0.236 C 
ATOM     19  O   UNL     1       6.242   2.201  -0.249  0.00  0.00    -0.274 OA
ATOM     20  N   UNL     1       8.280   2.158  -1.123  0.00  0.00    -0.278 N 
ATOM     21  H   UNL     1       9.014   1.634  -1.480  0.00  0.00    +0.155 HD
BRANCH  20  22
ATOM     22  C   UNL     1       8.386   3.541  -1.051  0.00  0.00    +0.090 A 
ATOM     23  C   UNL     1       9.449   4.334  -1.444  0.00  0.00    +0.084 A 
ATOM     24  C   UNL     1       9.314   5.772  -1.264  0.00  0.00    -0.018 A 
ATOM     25  C   UNL     1       8.139   6.147  -0.716  0.00  0.00    -0.004 A 
ATOM     26  S   UNL     1       7.250   4.634  -0.475  0.00  0.00    -0.077 S 
ATOM     27  C   UNL     1       7.687   7.534  -0.380  0.00  0.00    +0.043 C 
ATOM     28  C   UNL     1       7.932   8.450  -1.587  0.00  0.00    +0.005 C 
ATOM     29  C   UNL     1       9.337   9.034  -1.478  0.00  0.00    +0.001 C 
ATOM     30  C   UNL     1      10.277   8.028  -0.817  0.00  0.00    +0.005 C 
ATOM     31  C   UNL     1      10.393   6.767  -1.668  0.00  0.00    +0.037 C 
BRANCH  23  32
ATOM     32  C   UNL     1      10.635   3.763  -2.007  0.00  0.00    +0.102 C 
ATOM     33  N   UNL     1      11.576   3.310  -2.453  0.00  0.00    -0.191 NA
ENDBRANCH  23  32
ENDBRANCH  20  22
ENDBRANCH   1  18
TORSDOF 4
