REMARK  Name = ZINC27360174
REMARK  8 active torsions:
REMARK  status: ('A' for Active; 'I' for Inactive)
REMARK    1  A    between atoms: C_1  and  C_2
REMARK    2  A    between atoms: C_7  and  S_30
REMARK    3  A    between atoms: C_12  and  C_14
REMARK    4  A    between atoms: C_14  and  N_15
REMARK    5  A    between atoms: N_15  and  C_16
REMARK    6  A    between atoms: N_15  and  C_24
REMARK    7  A    between atoms: C_16  and  C_17
REMARK    8  A    between atoms: S_30  and  N_33
REMARK                            x       y       z     vdW  Elec       q    Type
REMARK                         _______ _______ _______ _____ _____    ______ ____
ROOT
ATOM      1  C   UNL     1      -0.639  -4.654  -3.197  0.00  0.00    +0.029 C 
ATOM      2  C   UNL     1       0.492  -4.807  -4.216  0.00  0.00    +0.083 C 
ATOM      3  C   UNL     1       0.913  -6.281  -4.333  0.00  0.00    +0.059 C 
ATOM      4  C   UNL     1       2.364  -6.298  -3.905  0.00  0.00    -0.022 A 
ATOM      5  C   UNL     1       3.266  -7.340  -3.803  0.00  0.00    +0.034 A 
ATOM      6  C   UNL     1       4.560  -7.098  -3.380  0.00  0.00    +0.105 A 
ATOM      7  C   UNL     1       4.950  -5.811  -3.059  0.00  0.00    +0.030 A 
ATOM      8  C   UNL     1       4.053  -4.769  -3.160  0.00  0.00    +0.026 A 
ATOM      9  C   UNL     1       2.744  -5.005  -3.587  0.00  0.00    +0.040 A 
ATOM     10  N   UNL     1       1.691  -4.101  -3.755  0.00  0.00    -0.270 N 
ATOM     11  C   UNL     1       1.765  -2.776  -3.522  0.00  0.00    +0.203 C 
ATOM     12  O   UNL     1       0.792  -2.074  -3.698  0.00  0.00    -0.277 OA
ENDROOT
BRANCH   6  13
ATOM     13  S   UNL     1       5.709  -8.428  -3.249  0.00  0.00    +0.056 S 
ATOM     14  O   UNL     1       5.252  -9.447  -4.129  0.00  0.00    -0.153 OA
ATOM     15  O   UNL     1       7.005  -7.856  -3.354  0.00  0.00    -0.153 OA
BRANCH  13  16
ATOM     16  N   UNL     1       5.582  -9.036  -1.714  0.00  0.00    -0.204 NA
ATOM     17  H   UNL     1       6.286  -9.872  -1.591  0.00  0.00    +0.144 HD
ATOM     18  H   UNL     1       4.555  -9.393  -1.545  0.00  0.00    +0.144 HD
ENDBRANCH  13  16
ENDBRANCH   6  13
BRANCH  11  19
ATOM     19  C   UNL     1       3.057  -2.166  -3.042  0.00  0.00    +0.020 C 
BRANCH  19  20
ATOM     20  N   UNL     1       2.836  -0.754  -2.704  0.00  0.00    +0.390 N 
ATOM     21  H   UNL     1       2.117  -0.342  -3.427  0.00  0.00    -0.080 HD
BRANCH  20  22
ATOM     22  C   UNL     1       2.254  -0.618  -1.362  0.00  0.00    -0.067 C 
ATOM     23  C   UNL     1       3.164  -1.304  -0.341  0.00  0.00    -0.015 C 
ATOM     24  C   UNL     1       2.558  -1.163   1.057  0.00  0.00    -0.002 C 
ATOM     25  C   UNL     1       1.176  -1.820   1.083  0.00  0.00    -0.000 C 
ATOM     26  C   UNL     1       0.267  -1.134   0.061  0.00  0.00    -0.002 C 
ATOM     27  C   UNL     1       0.873  -1.274  -1.337  0.00  0.00    -0.015 C 
ENDBRANCH  20  22
BRANCH  20  28
ATOM     28  C   UNL     1       4.082   0.016  -2.818  0.00  0.00    -0.042 C 
BRANCH  28  29
ATOM     29  C   UNL     1       3.760   1.487  -2.884  0.00  0.00    -0.064 A 
ATOM     30  C   UNL     1       3.467   2.075  -4.100  0.00  0.00    +0.004 A 
ATOM     31  C   UNL     1       3.166   3.423  -4.161  0.00  0.00    +0.038 A 
ATOM     32  C   UNL     1       3.169   4.186  -3.006  0.00  0.00    +0.123 A 
ATOM     33  C   UNL     1       3.468   3.596  -1.789  0.00  0.00    +0.038 A 
ATOM     34  C   UNL     1       3.763   2.247  -1.730  0.00  0.00    +0.004 A 
ATOM     35  F   UNL     1       2.881   5.504  -3.065  0.00  0.00    -0.205 F 
ENDBRANCH  28  29
ENDBRANCH  20  28
ENDBRANCH  19  20
ENDBRANCH  11  19
TORSDOF 7
