REMARK  Name = ZINC27027459
REMARK  9 active torsions:
REMARK  status: ('A' for Active; 'I' for Inactive)
REMARK    1  A    between atoms: C_1  and  O_2
REMARK    2  A    between atoms: O_2  and  C_3
REMARK    3  A    between atoms: C_6  and  C_11
REMARK    4  A    between atoms: C_8  and  O_9
REMARK    5  A    between atoms: O_9  and  C_10
REMARK    6  A    between atoms: N_15  and  C_16
REMARK    7  A    between atoms: C_19  and  C_22
REMARK    8  A    between atoms: N_32  and  C_33
REMARK    9  A    between atoms: C_33  and  C_34
REMARK                            x       y       z     vdW  Elec       q    Type
REMARK                         _______ _______ _______ _____ _____    ______ ____
ROOT
ATOM      1  C   UNL     1      -0.188   5.669  -0.595  0.00  0.00    +0.058 A 
ATOM      2  C   UNL     1       0.935   6.376  -0.836  0.00  0.00    +0.075 A 
ATOM      3  S   UNL     1       0.312   8.047  -0.926  0.00  0.00    -0.059 S 
ATOM      4  C   UNL     1      -1.412   7.685  -0.635  0.00  0.00    +0.152 A 
ATOM      5  N   UNL     1      -2.440   8.512  -0.575  0.00  0.00    -0.336 N 
ATOM      6  N   UNL     1      -1.388   6.318  -0.496  0.00  0.00    -0.317 N 
ATOM      7  H   UNL     1      -3.436   8.133  -0.300  0.00  0.00    +0.168 HD
ENDROOT
BRANCH   1  11
ATOM      8  C   UNL     1      -0.006   1.441  -0.170  0.00  0.00    +0.162 A 
ATOM      9  C   UNL     1      -1.020   2.019  -0.919  0.00  0.00    +0.050 A 
ATOM     10  C   UNL     1      -1.085   3.391  -1.054  0.00  0.00    +0.014 A 
ATOM     11  C   UNL     1      -0.123   4.199  -0.446  0.00  0.00    +0.003 A 
ATOM     12  C   UNL     1       0.900   3.616   0.303  0.00  0.00    +0.059 A 
ATOM     13  C   UNL     1       0.957   2.241   0.440  0.00  0.00    +0.162 A 
BRANCH   8  15
ATOM     14  C   UNL     1      -0.969  -0.672  -0.686  0.00  0.00    +0.277 C 
ATOM     15  O   UNL     1       0.051   0.089  -0.035  0.00  0.00    -0.491 OA
ENDBRANCH   8  15
BRANCH  13  16
ATOM     16  O   UNL     1       1.953   1.671   1.168  0.00  0.00    -0.491 OA
ATOM     17  C   UNL     1       2.907   2.552   1.765  0.00  0.00    +0.277 C 
ENDBRANCH  13  16
ENDBRANCH   1  11
BRANCH   5  18
ATOM     18  C   UNL     1      -2.267   9.836  -0.853  0.00  0.00    +0.041 A 
ATOM     19  C   UNL     1      -2.037  10.746   0.186  0.00  0.00    +0.026 A 
ATOM     20  C   UNL     1      -1.860  12.071  -0.093  0.00  0.00    +0.013 A 
ATOM     21  C   UNL     1      -1.918  12.520  -1.415  0.00  0.00    +0.019 A 
ATOM     22  C   UNL     1      -2.152  11.614  -2.453  0.00  0.00    +0.013 A 
ATOM     23  C   UNL     1      -2.325  10.288  -2.176  0.00  0.00    +0.026 A 
BRANCH  21  24
ATOM     24  C   UNL     1      -1.730  13.954  -1.716  0.00  0.00    +0.164 A 
ATOM     25  N   UNL     1      -2.011  14.967  -0.922  0.00  0.00    -0.129 NA
ATOM     26  N   UNL     1      -1.713  16.074  -1.507  0.00  0.00    -0.134 NA
ATOM     27  C   UNL     1      -1.228  15.835  -2.692  0.00  0.00    +0.134 A 
ATOM     28  N   UNL     1      -1.227  14.486  -2.869  0.00  0.00    -0.311 N 
ATOM     29  C   UNL     1      -0.801  13.764  -4.068  0.00  0.00    +0.125 C 
ATOM     30  C   UNL     1       0.265  14.586  -4.799  0.00  0.00    +0.022 C 
ATOM     31  C   UNL     1      -0.405  15.531  -5.795  0.00  0.00    +0.002 C 
ATOM     32  C   UNL     1      -1.325  16.510  -5.071  0.00  0.00    +0.008 C 
ATOM     33  C   UNL     1      -0.738  16.846  -3.697  0.00  0.00    +0.076 C 
ENDBRANCH  21  24
ENDBRANCH   5  18
BRANCH   6  34
ATOM     34  C   UNL     1      -2.622   5.571  -0.241  0.00  0.00    +0.151 C 
BRANCH  34  35
ATOM     35  C   UNL     1      -3.532   6.390   0.638  0.00  0.00    -0.013 C 
ATOM     36  C   UNL     1      -4.757   6.650   0.252  0.00  0.00    +0.005 C 
ENDBRANCH  34  35
ENDBRANCH   6  34
TORSDOF 7
