REMARK  Name = ZINC35692982
REMARK  12 active torsions:
REMARK  status: ('A' for Active; 'I' for Inactive)
REMARK    1  A    between atoms: C_1  and  C_2
REMARK    2  A    between atoms: C_2  and  C_3
REMARK    3  A    between atoms: C_3  and  C_5
REMARK    4  A    between atoms: C_3  and  N_6
REMARK    5  A    between atoms: N_6  and  C_7
REMARK    6  A    between atoms: C_9  and  C_10
REMARK    7  A    between atoms: C_15  and  C_32
REMARK    8  A    between atoms: C_16  and  C_27
REMARK    9  A    between atoms: C_17  and  C_20
REMARK   10  A    between atoms: C_27  and  O_29
REMARK   11  A    between atoms: O_29  and  C_30
REMARK   12  A    between atoms: C_30  and  C_31
REMARK                            x       y       z     vdW  Elec       q    Type
REMARK                         _______ _______ _______ _____ _____    ______ ____
ROOT
ATOM      1  C   UNL     1       0.584   0.451  -6.035  0.00  0.00    +0.048 C 
ATOM      2  C   UNL     1      -0.058   1.050  -7.062  0.00  0.00    +0.072 C 
ATOM      3  S   UNL     1       1.228   1.153  -8.291  0.00  0.00    -0.060 S 
ATOM      4  C   UNL     1       2.473   0.437  -7.421  0.00  0.00    +0.166 C 
ATOM      5  N   UNL     1       3.727   0.188  -7.737  0.00  0.00    -0.220 NA
ATOM      6  C   UNL     1       4.606  -0.392  -6.936  0.00  0.00    +0.158 C 
ATOM      7  C   UNL     1       4.240  -0.787  -5.664  0.00  0.00    +0.092 C 
ATOM      8  C   UNL     1       2.813  -0.534  -5.230  0.00  0.00    +0.151 C 
ATOM      9  N   UNL     1       1.915   0.130  -6.212  0.00  0.00    -0.267 N 
ENDROOT
BRANCH   8  10
ATOM     10  C   UNL     1       2.200  -1.859  -4.856  0.00  0.00    -0.004 A 
ATOM     11  C   UNL     1       1.510  -2.593  -5.802  0.00  0.00    +0.007 A 
ATOM     12  C   UNL     1       0.948  -3.808  -5.459  0.00  0.00    +0.000 A 
ATOM     13  C   UNL     1       1.075  -4.290  -4.169  0.00  0.00    +0.001 A 
ATOM     14  C   UNL     1       1.765  -3.557  -3.223  0.00  0.00    +0.020 A 
ATOM     15  C   UNL     1       2.333  -2.343  -3.567  0.00  0.00    +0.046 A 
ATOM     16 CL   UNL     1       3.205  -1.425  -2.380  0.00  0.00    -0.083 Cl
ENDBRANCH   8  10
BRANCH   6  17
ATOM     17  C   UNL     1       6.016  -0.623  -7.415  0.00  0.00    +0.435 C 
ATOM     18  F   UNL     1       6.715  -1.371  -6.463  0.00  0.00    -0.164 F 
ATOM     19  F   UNL     1       5.988  -1.320  -8.628  0.00  0.00    -0.164 F 
ATOM     20  F   UNL     1       6.654   0.609  -7.600  0.00  0.00    -0.164 F 
ENDBRANCH   6  17
BRANCH   1  23
ATOM     21  C   UNL     1      -1.436   0.363  -4.669  0.00  0.00    +0.239 C 
ATOM     22  O   UNL     1      -2.113   0.945  -5.688  0.00  0.00    -0.271 OA
ATOM     23  C   UNL     1      -0.109   0.157  -4.773  0.00  0.00    +0.091 C 
BRANCH  21  24
ATOM     24  N   UNL     1      -2.108  -0.020  -3.521  0.00  0.00    -0.309 N 
ATOM     25  H   UNL     1      -1.614  -0.371  -2.763  0.00  0.00    +0.149 HD
BRANCH  24  26
ATOM     26  C   UNL     1      -3.566   0.104  -3.450  0.00  0.00    +0.070 C 
ATOM     27  C   UNL     1      -3.940   1.549  -3.115  0.00  0.00    +0.028 C 
BRANCH  26  29
ATOM     28  C   UNL     1      -3.841  -2.281  -2.757  0.00  0.00    +0.005 C 
ATOM     29  C   UNL     1      -4.105  -0.827  -2.361  0.00  0.00    +0.018 C 
ENDBRANCH  26  29
ENDBRANCH  24  26
ENDBRANCH  21  24
ENDBRANCH   1  23
BRANCH   7  30
ATOM     30  C   UNL     1       5.159  -1.402  -4.805  0.00  0.00    +0.339 C 
ATOM     31  O   UNL     1       5.194  -2.618  -4.719  0.00  0.00    -0.245 OA
BRANCH  30  32
ATOM     32  O   UNL     1       6.008  -0.648  -4.072  0.00  0.00    -0.462 OA
BRANCH  32  33
ATOM     33  C   UNL     1       6.919  -1.343  -3.217  0.00  0.00    +0.229 C 
ATOM     34  C   UNL     1       7.792  -0.330  -2.473  0.00  0.00    +0.048 C 
ENDBRANCH  32  33
ENDBRANCH  30  32
ENDBRANCH   7  30
TORSDOF 9
