REMARK  Name = ZINC18179531
REMARK  9 active torsions:
REMARK  status: ('A' for Active; 'I' for Inactive)
REMARK    1  A    between atoms: C_1  and  C_2
REMARK    2  A    between atoms: C_5  and  N_8
REMARK    3  A    between atoms: C_13  and  C_27
REMARK    4  A    between atoms: N_15  and  C_21
REMARK    5  A    between atoms: C_29  and  O_36
REMARK    6  A    between atoms: C_30  and  O_35
REMARK    7  A    between atoms: C_31  and  O_33
REMARK    8  A    between atoms: O_33  and  C_34
REMARK    9  A    between atoms: O_36  and  C_37
REMARK                            x       y       z     vdW  Elec       q    Type
REMARK                         _______ _______ _______ _____ _____    ______ ____
ROOT
ATOM      1  N   UNL     1       0.059  -4.172  -0.021  0.00  0.00    -0.208 N 
ATOM      2  C   UNL     1       0.167  -4.901   1.096  0.00  0.00    +0.235 C 
ATOM      3  O   UNL     1       0.270  -4.453   2.218  0.00  0.00    -0.274 OA
ATOM      4  C   UNL     1       0.142  -6.369   0.742  0.00  0.00    +0.145 C 
ATOM      5  C   UNL     1       1.530  -6.988   1.022  0.00  0.00    +0.157 C 
ATOM      6  N   UNL     1       1.811  -7.740  -0.226  0.00  0.00    -0.244 N 
ATOM      7  O   UNL     1       1.307  -6.904  -1.269  0.00  0.00    -0.257 OA
ATOM      8  C   UNL     1       0.034  -6.364  -0.808  0.00  0.00    +0.249 C 
ATOM      9  C   UNL     1      -0.036  -4.891  -1.145  0.00  0.00    +0.259 C 
ATOM     10  O   UNL     1      -0.157  -4.433  -2.261  0.00  0.00    -0.272 OA
ENDROOT
BRANCH   1  15
ATOM     11  C   UNL     1      -0.016   1.503   0.012  0.00  0.00    +0.044 C 
ATOM     12  C   UNL     1       0.004  -0.004   0.003  0.00  0.00    -0.050 A 
ATOM     13  C   UNL     1      -1.043  -0.711   0.565  0.00  0.00    +0.005 A 
ATOM     14  C   UNL     1      -1.028  -2.092   0.558  0.00  0.00    +0.024 A 
ATOM     15  C   UNL     1       0.040  -2.771  -0.013  0.00  0.00    +0.044 A 
ATOM     16  C   UNL     1       1.090  -2.058  -0.577  0.00  0.00    +0.024 A 
ATOM     17  C   UNL     1       1.067  -0.677  -0.572  0.00  0.00    +0.005 A 
ENDBRANCH   1  15
BRANCH   6  18
ATOM     18  C   UNL     1       2.429  -8.986  -0.352  0.00  0.00    +0.065 A 
ATOM     19  C   UNL     1       2.856  -9.669   0.779  0.00  0.00    +0.028 A 
ATOM     20  C   UNL     1       3.466 -10.901   0.650  0.00  0.00    +0.002 A 
ATOM     21  C   UNL     1       3.653 -11.455  -0.603  0.00  0.00    +0.000 A 
ATOM     22  C   UNL     1       3.229 -10.777  -1.732  0.00  0.00    +0.002 A 
ATOM     23  C   UNL     1       2.613  -9.547  -1.610  0.00  0.00    +0.028 A 
ENDBRANCH   6  18
BRANCH   5  24
ATOM     24  C   UNL     1       2.560  -5.911   1.244  0.00  0.00    -0.015 A 
ATOM     25  C   UNL     1       3.119  -5.258   0.162  0.00  0.00    +0.055 A 
ATOM     26  C   UNL     1       4.068  -4.266   0.362  0.00  0.00    +0.165 A 
ATOM     27  C   UNL     1       4.455  -3.929   1.653  0.00  0.00    +0.201 A 
ATOM     28  C   UNL     1       3.891  -4.587   2.739  0.00  0.00    +0.165 A 
ATOM     29  C   UNL     1       2.939  -5.574   2.530  0.00  0.00    +0.055 A 
BRANCH  28  30
ATOM     30  O   UNL     1       4.267  -4.261   4.004  0.00  0.00    -0.491 OA
ATOM     31  C   UNL     1       3.645  -4.979   5.072  0.00  0.00    +0.277 C 
ENDBRANCH  28  30
BRANCH  27  32
ATOM     32  O   UNL     1       5.386  -2.956   1.854  0.00  0.00    -0.501 OA
ATOM     33  H   UNL     1       5.014  -2.068   1.946  0.00  0.00    +0.292 HD
ENDBRANCH  27  32
BRANCH  26  34
ATOM     34  O   UNL     1       4.618  -3.624  -0.704  0.00  0.00    -0.491 OA
ATOM     35  C   UNL     1       4.172  -4.023  -2.002  0.00  0.00    +0.277 C 
ENDBRANCH  26  34
ENDBRANCH   5  24
TORSDOF 6
