REMARK  Name = ZINC38649463
REMARK  9 active torsions:
REMARK  status: ('A' for Active; 'I' for Inactive)
REMARK    1  A    between atoms: C_1  and  C_2
REMARK    2  A    between atoms: C_2  and  C_3
REMARK    3  A    between atoms: C_2  and  C_4
REMARK    4  A    between atoms: C_7  and  C_10
REMARK    5  A    between atoms: C_15  and  O_24
REMARK    6  A    between atoms: C_19  and  N_23
REMARK    7  A    between atoms: C_20  and  C_21
REMARK    8  A    between atoms: O_24  and  C_25
REMARK    9  A    between atoms: C_25  and  C_27
REMARK                            x       y       z     vdW  Elec       q    Type
REMARK                         _______ _______ _______ _____ _____    ______ ____
ROOT
ATOM      1  C   UNL     1       2.844  -1.873   4.692  0.00  0.00    +0.098 C 
ATOM      2  C   UNL     1       2.125  -1.397   5.926  0.00  0.00    +0.008 A 
ATOM      3  C   UNL     1       2.344  -0.111   6.387  0.00  0.00    +0.012 A 
ATOM      4  C   UNL     1       1.694   0.343   7.518  0.00  0.00    +0.047 A 
ATOM      5  C   UNL     1       0.817  -0.492   8.196  0.00  0.00    +0.135 A 
ATOM      6  C   UNL     1       0.596  -1.780   7.737  0.00  0.00    +0.093 A 
ATOM      7  C   UNL     1       1.250  -2.235   6.599  0.00  0.00    +0.138 A 
ATOM      8  O   UNL     1       1.022  -3.498   6.163  0.00  0.00    -0.441 OA
ATOM      9  C   UNL     1       1.898  -4.088   5.331  0.00  0.00    +0.199 C 
ATOM     10  C   UNL     1       2.785  -3.373   4.606  0.00  0.00    +0.098 C 
ENDROOT
BRANCH   1  14
ATOM     11  C   UNL     1       0.988  -0.188   1.233  0.00  0.00    -0.045 A 
ATOM     12  C   UNL     1       2.318   0.078   1.503  0.00  0.00    +0.004 A 
ATOM     13  C   UNL     1       2.918  -0.468   2.622  0.00  0.00    +0.005 A 
ATOM     14  C   UNL     1       2.189  -1.278   3.472  0.00  0.00    -0.035 A 
ATOM     15  C   UNL     1       0.859  -1.542   3.203  0.00  0.00    +0.005 A 
ATOM     16  C   UNL     1       0.257  -0.994   2.086  0.00  0.00    +0.004 A 
BRANCH  11  18
ATOM     17  C   UNL     1       0.403   1.934   0.089  0.00  0.00    +0.012 C 
ATOM     18  C   UNL     1       0.334   0.407   0.013  0.00  0.00    +0.013 C 
ATOM     19  C   UNL     1       1.063  -0.074  -1.243  0.00  0.00    +0.012 C 
ENDBRANCH  11  18
ENDBRANCH   1  14
BRANCH   9  20
ATOM     20  N   UNL     1       1.889  -5.455   5.215  0.00  0.00    -0.328 N 
ATOM     21  H   UNL     1       1.256  -5.982   5.730  0.00  0.00    +0.145 HD
ATOM     22  H   UNL     1       2.514  -5.896   4.619  0.00  0.00    +0.145 HD
ENDBRANCH   9  20
BRANCH  10  23
ATOM     23  C   UNL     1       3.691  -4.061   3.737  0.00  0.00    +0.101 C 
ATOM     24  N   UNL     1       4.409  -4.608   3.047  0.00  0.00    -0.191 NA
ENDBRANCH  10  23
BRANCH   5  25
ATOM     25  O   UNL     1       0.177  -0.047   9.310  0.00  0.00    -0.422 OA
BRANCH  25  26
ATOM     26  C   UNL     1      -0.768   0.902   9.159  0.00  0.00    +0.346 C 
ATOM     27  O   UNL     1      -1.099   1.258   8.046  0.00  0.00    -0.244 OA
BRANCH  26  28
ATOM     28  C   UNL     1      -1.400   1.508  10.347  0.00  0.00    +0.078 A 
ATOM     29  C   UNL     1      -1.018   1.104  11.629  0.00  0.00    +0.018 A 
ATOM     30  C   UNL     1      -1.612   1.674  12.734  0.00  0.00    +0.021 A 
ATOM     31  C   UNL     1      -2.588   2.645  12.577  0.00  0.00    +0.042 A 
ATOM     32  C   UNL     1      -2.973   3.050  11.310  0.00  0.00    +0.040 A 
ATOM     33  C   UNL     1      -2.381   2.493  10.195  0.00  0.00    +0.056 A 
ATOM     34 CL   UNL     1      -2.858   3.007   8.607  0.00  0.00    -0.083 Cl
ATOM     35 CL   UNL     1      -3.332   3.356  13.975  0.00  0.00    -0.083 Cl
ENDBRANCH  26  28
ENDBRANCH  25  26
ENDBRANCH   5  25
TORSDOF 7
