REMARK  Name = ZINC08711952
REMARK  6 active torsions:
REMARK  status: ('A' for Active; 'I' for Inactive)
REMARK    1  A    between atoms: C_4  and  C_7
REMARK    2  A    between atoms: C_7  and  C_8
REMARK    3  A    between atoms: C_7  and  N_70
REMARK    4  A    between atoms: C_19  and  C_21
REMARK    5  A    between atoms: C_26  and  C_40
REMARK    6  A    between atoms: C_29  and  C_32
REMARK                            x       y       z     vdW  Elec       q    Type
REMARK                         _______ _______ _______ _____ _____    ______ ____
ROOT
ATOM      1  C   UNL     1       4.570   0.995  -0.630  0.00  0.00    -0.058 C 
ATOM      2  C   UNL     1       5.181   1.870   0.470  0.00  0.00    +0.089 C 
ATOM      3  N   UNL     1       6.504   1.329   0.816  0.00  0.00    -0.300 N 
ATOM      4  C   UNL     1       6.609  -0.104   1.132  0.00  0.00    +0.089 C 
ATOM      5  C   UNL     1       5.942  -0.901   0.006  0.00  0.00    -0.058 C 
ATOM      6  C   UNL     1       7.591   2.125   0.843  0.00  0.00    +0.267 C 
ATOM      7  O   UNL     1       7.508   3.281   0.476  0.00  0.00    -0.268 OA
ATOM      8  N   UNL     1       4.557  -0.409  -0.167  0.00  0.00    +0.389 N 
ATOM      9  H   UNL     1       4.072  -0.458   0.736  0.00  0.00    -0.080 HD
ENDROOT
BRANCH   6  10
ATOM     10  C   UNL     1       8.884   1.593   1.319  0.00  0.00    +0.149 A 
ATOM     11  C   UNL     1      10.125   2.268   1.277  0.00  0.00    +0.078 A 
ATOM     12  C   UNL     1      11.054   1.446   1.803  0.00  0.00    +0.119 A 
ATOM     13  N   UNL     1      10.435   0.286   2.173  0.00  0.00    -0.238 N 
ATOM     14  N   UNL     1       9.081   0.405   1.863  0.00  0.00    -0.164 NA
ATOM     15  C   UNL     1      11.132  -0.846   2.791  0.00  0.00    +0.215 C 
ATOM     16  C   UNL     1      12.461  -0.352   3.374  0.00  0.00    +0.063 C 
ATOM     17  C   UNL     1      13.223   0.460   2.321  0.00  0.00    +0.104 C 
ATOM     18  N   UNL     1      12.425   1.654   1.980  0.00  0.00    -0.322 N 
ATOM     19  H   UNL     1      12.829   2.531   1.885  0.00  0.00    +0.148 HD
BRANCH  17  20
ATOM     20  C   UNL     1      13.434  -0.378   1.086  0.00  0.00    -0.026 A 
ATOM     21  C   UNL     1      12.402  -0.548   0.183  0.00  0.00    +0.007 A 
ATOM     22  C   UNL     1      12.595  -1.312  -0.953  0.00  0.00    +0.022 A 
ATOM     23  C   UNL     1      13.820  -1.915  -1.181  0.00  0.00    +0.059 A 
ATOM     24  C   UNL     1      14.852  -1.748  -0.273  0.00  0.00    +0.060 A 
ATOM     25  C   UNL     1      14.658  -0.979   0.860  0.00  0.00    +0.027 A 
ATOM     26 CL   UNL     1      16.389  -2.504  -0.558  0.00  0.00    -0.082 Cl
ATOM     27 CL   UNL     1      14.061  -2.880  -2.603  0.00  0.00    -0.082 Cl
ENDBRANCH  17  20
BRANCH  15  28
ATOM     28  C   UNL     1      10.267  -1.432   3.909  0.00  0.00    +0.412 C 
ATOM     29  F   UNL     1      10.016  -0.446   4.869  0.00  0.00    -0.168 F 
ATOM     30  F   UNL     1       9.055  -1.882   3.374  0.00  0.00    -0.168 F 
ATOM     31  F   UNL     1      10.940  -2.503   4.506  0.00  0.00    -0.168 F 
ENDBRANCH  15  28
ENDBRANCH   6  10
BRANCH   8  32
ATOM     32  C   UNL     1       3.841  -1.256  -1.144  0.00  0.00    -0.007 C 
BRANCH  32  36
ATOM     33  C   UNL     1       4.183  -5.345   0.042  0.00  0.00    +0.000 A 
ATOM     34  C   UNL     1       3.981  -4.364   0.994  0.00  0.00    +0.000 A 
ATOM     35  C   UNL     1       3.870  -3.041   0.611  0.00  0.00    +0.002 A 
ATOM     36  C   UNL     1       3.962  -2.698  -0.726  0.00  0.00    -0.057 A 
ATOM     37  C   UNL     1       4.164  -3.680  -1.678  0.00  0.00    +0.002 A 
ATOM     38  C   UNL     1       4.274  -5.003  -1.295  0.00  0.00    +0.000 A 
ENDBRANCH  32  36
BRANCH  32  39
ATOM     39  C   UNL     1       2.388  -0.857  -1.158  0.00  0.00    -0.057 A 
ATOM     40  C   UNL     1       1.701  -0.705   0.033  0.00  0.00    +0.002 A 
ATOM     41  C   UNL     1       0.370  -0.334   0.020  0.00  0.00    +0.000 A 
ATOM     42  C   UNL     1      -0.278  -0.125  -1.183  0.00  0.00    +0.000 A 
ATOM     43  C   UNL     1       0.406  -0.282  -2.373  0.00  0.00    +0.000 A 
ATOM     44  C   UNL     1       1.740  -0.648  -2.361  0.00  0.00    +0.002 A 
ENDBRANCH  32  39
ENDBRANCH   8  32
TORSDOF 6
