REMARK  Name = ZINC39686288
REMARK  12 active torsions:
REMARK  status: ('A' for Active; 'I' for Inactive)
REMARK    1  A    between atoms: C_1  and  C_2
REMARK    2  A    between atoms: C_4  and  C_11
REMARK    3  A    between atoms: N_5  and  C_7
REMARK    4  A    between atoms: C_7  and  C_8
REMARK    5  A    between atoms: C_7  and  C_9
REMARK    6  A    between atoms: C_7  and  C_10
REMARK    7  A    between atoms: C_15  and  C_24
REMARK    8  A    between atoms: N_26  and  C_27
REMARK    9  A    between atoms: C_33  and  C_35
REMARK   10  A    between atoms: C_35  and  C_36
REMARK   11  A    between atoms: C_36  and  C_37
REMARK   12  A    between atoms: C_36  and  C_38
REMARK                            x       y       z     vdW  Elec       q    Type
REMARK                         _______ _______ _______ _____ _____    ______ ____
ROOT
ATOM      1  C   UNL     1      -0.605  -4.089  -1.325  0.00  0.00    +0.265 C 
ATOM      2  O   UNL     1      -0.869  -3.935  -2.502  0.00  0.00    -0.268 OA
ATOM      3  N   UNL     1      -0.736  -5.304  -0.758  0.00  0.00    -0.295 N 
ATOM      4  C   UNL     1      -0.593  -5.659   0.674  0.00  0.00    +0.121 C 
ATOM      5  C   UNL     1      -1.708  -6.697   0.932  0.00  0.00    +0.100 C 
ATOM      6  C   UNL     1      -2.007  -7.304  -0.449  0.00  0.00    -0.004 C 
ATOM      7  C   UNL     1      -1.063  -6.587  -1.425  0.00  0.00    +0.115 C 
ATOM      8  C   UNL     1      -3.458  -7.041  -0.839  0.00  0.00    -0.010 C 
ATOM      9  C   UNL     1      -3.747  -7.703  -2.189  0.00  0.00    -0.082 C 
ATOM     10  N   UNL     1      -3.500  -9.147  -2.091  0.00  0.00    +0.379 N 
ATOM     11  C   UNL     1      -2.081  -9.394  -1.806  0.00  0.00    -0.082 C 
ATOM     12  C   UNL     1      -1.722  -8.803  -0.440  0.00  0.00    -0.010 C 
ATOM     13  H   UNL     1      -4.062  -9.534  -1.348  0.00  0.00    -0.086 HD
ATOM     14  H   UNL     1      -3.749  -9.589  -2.962  0.00  0.00    -0.086 HD
ENDROOT
BRANCH   1  18
ATOM     15  C   UNL     1       1.212  -1.176   2.409  0.00  0.00    +0.067 C 
ATOM     16  C   UNL     1       0.650  -1.663   1.098  0.00  0.00    +0.061 A 
ATOM     17  C   UNL     1       0.343  -2.988   0.777  0.00  0.00    +0.057 A 
ATOM     18  C   UNL     1      -0.141  -2.948  -0.519  0.00  0.00    +0.124 A 
ATOM     19  N   UNL     1      -0.101  -1.637  -0.901  0.00  0.00    -0.254 N 
ATOM     20  N   UNL     1       0.358  -0.921   0.061  0.00  0.00    -0.175 NA
BRANCH  19  21
ATOM     21  C   UNL     1      -0.522  -1.125  -2.208  0.00  0.00    +0.056 C 
ATOM     22  C   UNL     1      -1.963  -1.557  -2.485  0.00  0.00    +0.036 C 
ATOM     23  C   UNL     1      -0.439   0.403  -2.208  0.00  0.00    +0.036 C 
ATOM     24  C   UNL     1       0.396  -1.686  -3.296  0.00  0.00    +0.036 C 
ENDBRANCH  19  21
ENDBRANCH   1  18
BRANCH   5  25
ATOM     25  C   UNL     1      -1.225  -7.761   1.883  0.00  0.00    +0.218 C 
ATOM     26  O   UNL     1      -0.041  -8.018   1.955  0.00  0.00    -0.275 OA
ATOM     27  N   UNL     1      -2.107  -8.429   2.652  0.00  0.00    -0.312 N 
ATOM     28  H   UNL     1      -3.059  -8.279   2.540  0.00  0.00    +0.149 HD
BRANCH  27  29
ATOM     29  C   UNL     1      -1.629  -9.381   3.658  0.00  0.00    +0.076 C 
ATOM     30  C   UNL     1      -1.393 -10.743   2.999  0.00  0.00    +0.041 C 
ATOM     31  C   UNL     1      -0.860 -11.726   4.046  0.00  0.00    +0.109 C 
ATOM     32  N   UNL     1      -1.792 -11.758   5.182  0.00  0.00    -0.301 N 
ATOM     33  C   UNL     1      -2.157 -10.492   5.832  0.00  0.00    +0.109 C 
ATOM     34  C   UNL     1      -2.675  -9.523   4.765  0.00  0.00    +0.041 C 
ATOM     35  C   UNL     1      -2.301 -12.927   5.620  0.00  0.00    +0.216 C 
ATOM     36  O   UNL     1      -1.992 -13.965   5.075  0.00  0.00    -0.276 OA
BRANCH  35  37
ATOM     37  C   UNL     1      -3.255 -12.943   6.786  0.00  0.00    +0.099 C 
BRANCH  37  38
ATOM     38  C   UNL     1      -3.680 -14.384   7.077  0.00  0.00    -0.008 C 
ATOM     39  C   UNL     1      -2.464 -15.191   7.537  0.00  0.00    +0.008 C 
ATOM     40  C   UNL     1      -4.742 -14.390   8.178  0.00  0.00    +0.008 C 
ENDBRANCH  37  38
ENDBRANCH  35  37
ENDBRANCH  27  29
ENDBRANCH   5  25
TORSDOF 6
