REMARK  Name = ZINC53552679
REMARK  9 active torsions:
REMARK  status: ('A' for Active; 'I' for Inactive)
REMARK    1  A    between atoms: C_1  and  C_2
REMARK    2  A    between atoms: C_2  and  C_4
REMARK    3  A    between atoms: C_2  and  C_22
REMARK    4  A    between atoms: C_4  and  N_5
REMARK    5  A    between atoms: N_8  and  C_9
REMARK    6  A    between atoms: C_9  and  C_11
REMARK    7  A    between atoms: C_9  and  C_12
REMARK    8  A    between atoms: C_16  and  S_18
REMARK    9  A    between atoms: S_18  and  N_21
REMARK                            x       y       z     vdW  Elec       q    Type
REMARK                         _______ _______ _______ _____ _____    ______ ____
ROOT
ATOM      1  N   UNL     1      -0.008  -0.140   2.444  0.00  0.00    -0.299 N 
ATOM      2  C   UNL     1       0.457  -0.484   3.661  0.00  0.00    +0.300 C 
ATOM      3  O   UNL     1       1.499  -1.102   3.762  0.00  0.00    -0.253 OA
ATOM      4  N   UNL     1      -0.234  -0.143   4.767  0.00  0.00    -0.293 N 
ATOM      5  H   UNL     1      -0.840   0.353   2.364  0.00  0.00    +0.150 HD
ATOM      6  H   UNL     1      -1.065   0.350   4.687  0.00  0.00    +0.151 HD
ENDROOT
BRANCH   4   7
ATOM      7  C   UNL     1       0.272  -0.517   6.091  0.00  0.00    +0.102 C 
ATOM      8  C   UNL     1      -0.180  -1.940   6.426  0.00  0.00    +0.033 C 
BRANCH   7   9
ATOM      9  C   UNL     1      -0.269   0.438   7.123  0.00  0.00    -0.026 A 
ATOM     10  C   UNL     1      -1.581   0.868   7.047  0.00  0.00    +0.005 A 
ATOM     11  C   UNL     1      -2.077   1.744   7.994  0.00  0.00    +0.002 A 
ATOM     12  C   UNL     1      -1.262   2.190   9.018  0.00  0.00    +0.028 A 
ATOM     13  C   UNL     1       0.049   1.759   9.094  0.00  0.00    +0.105 A 
ATOM     14  C   UNL     1       0.544   0.880   8.149  0.00  0.00    +0.034 A 
BRANCH  13  15
ATOM     15  S   UNL     1       1.089   2.328  10.399  0.00  0.00    +0.056 S 
ATOM     16  O   UNL     1       2.426   2.205   9.935  0.00  0.00    -0.153 OA
ATOM     17  O   UNL     1       0.546   3.565  10.840  0.00  0.00    -0.153 OA
BRANCH  15  18
ATOM     18  N   UNL     1       0.924   1.263  11.656  0.00  0.00    -0.204 NA
ATOM     19  H   UNL     1       0.331   0.500  11.571  0.00  0.00    +0.144 HD
ATOM     20  H   UNL     1       1.420   1.403  12.478  0.00  0.00    +0.144 HD
ENDBRANCH  15  18
ENDBRANCH  13  15
ENDBRANCH   7   9
ENDBRANCH   4   7
BRANCH   1  21
ATOM     21  C   UNL     1       0.742  -0.511   1.242  0.00  0.00    +0.113 C 
BRANCH  21  23
ATOM     22  C   UNL     1      -0.019   1.526   0.010  0.00  0.00    +0.014 C 
ATOM     23  C   UNL     1       0.002  -0.004   0.002  0.00  0.00    +0.033 C 
BRANCH  23  24
ATOM     24  C   UNL     1       0.707  -0.490  -1.238  0.00  0.00    -0.043 A 
ATOM     25  C   UNL     1       2.026  -0.142  -1.464  0.00  0.00    +0.004 A 
ATOM     26  C   UNL     1       2.673  -0.587  -2.602  0.00  0.00    +0.000 A 
ATOM     27  C   UNL     1       2.002  -1.382  -3.512  0.00  0.00    +0.000 A 
ATOM     28  C   UNL     1       0.684  -1.731  -3.285  0.00  0.00    +0.000 A 
ATOM     29  C   UNL     1       0.038  -1.289  -2.146  0.00  0.00    +0.004 A 
ENDBRANCH  23  24
ENDBRANCH  21  23
ENDBRANCH   1  21
TORSDOF 7
