REMARK  Name = ZINC12642720
REMARK  8 active torsions:
REMARK  status: ('A' for Active; 'I' for Inactive)
REMARK    1  A    between atoms: C_4  and  C_7
REMARK    2  A    between atoms: C_7  and  N_61
REMARK    3  A    between atoms: C_8  and  C_9
REMARK    4  A    between atoms: C_8  and  N_61
REMARK    5  A    between atoms: C_14  and  C_16
REMARK    6  A    between atoms: C_14  and  C_23
REMARK    7  A    between atoms: C_14  and  N_61
REMARK    8  A    between atoms: N_27  and  C_28
REMARK                            x       y       z     vdW  Elec       q    Type
REMARK                         _______ _______ _______ _____ _____    ______ ____
ROOT
ATOM      1  C   UNL     1      -0.346   0.481  -0.193  0.00  0.00    +0.034 C 
ENDROOT
BRANCH   1   2
ATOM      2  C   UNL     1      -1.008   0.400   1.158  0.00  0.00    -0.053 A 
ATOM      3  C   UNL     1      -2.386   0.366   1.252  0.00  0.00    +0.005 A 
ATOM      4  C   UNL     1      -2.994   0.287   2.490  0.00  0.00    +0.038 A 
ATOM      5  C   UNL     1      -2.221   0.253   3.639  0.00  0.00    +0.123 A 
ATOM      6  C   UNL     1      -0.841   0.292   3.544  0.00  0.00    +0.038 A 
ATOM      7  C   UNL     1      -0.235   0.366   2.304  0.00  0.00    +0.005 A 
ATOM      8  F   UNL     1      -2.814   0.180   4.851  0.00  0.00    -0.205 F 
ENDBRANCH   1   2
BRANCH   1   9
ATOM      9  C   UNL     1      -0.383   1.905  -0.686  0.00  0.00    +0.143 A 
ATOM     10  N   UNL     1      -1.424   2.539  -1.168  0.00  0.00    -0.115 NA
ATOM     11  N   UNL     1      -1.054   3.735  -1.477  0.00  0.00    -0.023 NA
ATOM     12  N   UNL     1       0.198   3.876  -1.211  0.00  0.00    -0.044 NA
ATOM     13  N   UNL     1       0.647   2.770  -0.723  0.00  0.00    -0.227 N 
BRANCH  13  14
ATOM     14  C   UNL     1       2.021   2.505  -0.288  0.00  0.00    +0.111 C 
ATOM     15  C   UNL     1       2.398   3.477   0.832  0.00  0.00    +0.027 C 
ATOM     16  C   UNL     1       3.833   3.201   1.286  0.00  0.00    +0.002 C 
ATOM     17  C   UNL     1       4.787   3.389   0.104  0.00  0.00    +0.000 C 
ATOM     18  C   UNL     1       4.410   2.417  -1.016  0.00  0.00    +0.002 C 
ATOM     19  C   UNL     1       2.975   2.694  -1.469  0.00  0.00    +0.027 C 
ENDBRANCH  13  14
ENDBRANCH   1   9
BRANCH   1  20
ATOM     20  N   UNL     1      -1.089  -0.375  -1.142  0.00  0.00    +0.395 N 
ATOM     21  H   UNL     1      -2.067  -0.065  -1.175  0.00  0.00    -0.079 HD
BRANCH  20  22
ATOM     22  C   UNL     1      -1.046  -1.782  -0.692  0.00  0.00    -0.041 C 
BRANCH  22  26
ATOM     23  C   UNL     1       2.993  -3.145  -0.416  0.00  0.00    +0.000 A 
ATOM     24  C   UNL     1       2.363  -2.622   0.697  0.00  0.00    +0.000 A 
ATOM     25  C   UNL     1       1.056  -2.181   0.608  0.00  0.00    +0.002 A 
ATOM     26  C   UNL     1       0.379  -2.263  -0.595  0.00  0.00    -0.064 A 
ATOM     27  C   UNL     1       1.008  -2.791  -1.707  0.00  0.00    +0.002 A 
ATOM     28  C   UNL     1       2.317  -3.227  -1.619  0.00  0.00    +0.000 A 
ENDBRANCH  22  26
ENDBRANCH  20  22
BRANCH  20  29
ATOM     29  C   UNL     1      -0.502  -0.259  -2.494  0.00  0.00    -0.034 C 
BRANCH  29  30
ATOM     30  C   UNL     1      -1.472  -0.833  -3.494  0.00  0.00    -0.027 A 
ATOM     31  C   UNL     1      -2.538  -0.241  -4.085  0.00  0.00    +0.009 A 
ATOM     32  C   UNL     1      -3.296  -0.968  -4.983  0.00  0.00    +0.008 A 
ATOM     33  C   UNL     1      -2.950  -2.252  -5.247  0.00  0.00    +0.045 A 
ATOM     34  S   UNL     1      -1.510  -2.466  -4.213  0.00  0.00    -0.103 S 
ENDBRANCH  29  30
ENDBRANCH  20  29
ENDBRANCH   1  20
TORSDOF 8
