REMARK  Name = ZINC20154999
REMARK  11 active torsions:
REMARK  status: ('A' for Active; 'I' for Inactive)
REMARK    1  A    between atoms: C_1  and  C_2
REMARK    2  A    between atoms: C_2  and  O_3
REMARK    3  A    between atoms: O_3  and  C_4
REMARK    4  A    between atoms: C_4  and  C_6
REMARK    5  A    between atoms: C_9  and  N_12
REMARK    6  A    between atoms: C_13  and  C_15
REMARK    7  A    between atoms: C_17  and  N_31
REMARK    8  A    between atoms: C_20  and  N_21
REMARK    9  A    between atoms: C_22  and  C_24
REMARK   10  A    between atoms: C_24  and  N_25
REMARK   11  A    between atoms: N_25  and  C_26
REMARK                            x       y       z     vdW  Elec       q    Type
REMARK                         _______ _______ _______ _____ _____    ______ ____
ROOT
ATOM      1  C   UNL     1       9.220   2.588   1.666  0.00  0.00    +0.060 A 
ATOM      2  C   UNL     1      10.532   2.502   1.194  0.00  0.00    +0.047 A 
ATOM      3  C   UNL     1      10.790   1.881  -0.009  0.00  0.00    +0.127 A 
ATOM      4  C   UNL     1       9.755   1.336  -0.752  0.00  0.00    +0.034 A 
ATOM      5  C   UNL     1       8.454   1.409  -0.296  0.00  0.00    +0.026 A 
ATOM      6  C   UNL     1       8.175   2.031   0.914  0.00  0.00    +0.046 A 
ENDROOT
BRANCH   1   8
ATOM      7  N   UNL     1       9.927   3.877   3.620  0.00  0.00    -0.281 N 
ATOM      8  C   UNL     1       8.936   3.257   2.949  0.00  0.00    +0.250 C 
ATOM      9  O   UNL     1       7.808   3.248   3.403  0.00  0.00    -0.270 OA
ATOM     10  H   UNL     1      10.964   3.806   3.259  0.00  0.00    +0.155 HD
BRANCH   7  14
ATOM     11  C   UNL     1       9.064   6.067   7.055  0.00  0.00    +0.059 A 
ATOM     12  C   UNL     1      10.336   5.514   6.878  0.00  0.00    +0.017 A 
ATOM     13  C   UNL     1      10.618   4.791   5.741  0.00  0.00    +0.024 A 
ATOM     14  C   UNL     1       9.638   4.610   4.769  0.00  0.00    +0.034 A 
ATOM     15  C   UNL     1       8.373   5.163   4.940  0.00  0.00    +0.024 A 
ATOM     16  C   UNL     1       8.083   5.883   6.076  0.00  0.00    +0.017 A 
BRANCH  11  17
ATOM     17  C   UNL     1       8.758   6.841   8.272  0.00  0.00    +0.339 C 
ATOM     18  O   UNL     1       9.612   7.000   9.122  0.00  0.00    -0.245 OA
BRANCH  17  19
ATOM     19  O   UNL     1       7.532   7.374   8.441  0.00  0.00    -0.461 OA
BRANCH  19  21
ATOM     20  C   UNL     1       5.865   8.648   9.677  0.00  0.00    +0.048 C 
ATOM     21  C   UNL     1       7.302   8.124   9.663  0.00  0.00    +0.229 C 
ENDBRANCH  19  21
ENDBRANCH  17  19
ENDBRANCH  11  17
ENDBRANCH   7  14
ENDBRANCH   1   8
BRANCH   6  22
ATOM     22  N   UNL     1       6.863   2.107   1.375  0.00  0.00    -0.286 N 
ATOM     23  C   UNL     1       5.838   2.065   0.502  0.00  0.00    +0.200 C 
ATOM     24  O   UNL     1       6.057   2.065  -0.691  0.00  0.00    -0.278 OA
ATOM     25  H   UNL     1       6.664   2.201   2.453  0.00  0.00    +0.155 HD
BRANCH  23  26
ATOM     26  C   UNL     1       4.419   2.017   1.007  0.00  0.00    +0.015 C 
BRANCH  26  27
ATOM     27  N   UNL     1       3.494   1.977  -0.134  0.00  0.00    +0.387 N 
ATOM     28  H   UNL     1       3.634   2.877  -0.751  0.00  0.00    -0.085 HD
ATOM     29  H   UNL     1       3.698   1.082  -0.740  0.00  0.00    -0.085 HD
BRANCH  27  30
ATOM     30  C   UNL     1       2.098   1.929   0.322  0.00  0.00    -0.071 C 
ATOM     31  C   UNL     1       1.512   3.358   0.443  0.00  0.00    -0.016 C 
ATOM     32  C   UNL     1      -0.012   3.153   0.313  0.00  0.00    -0.002 C 
ATOM     33  C   UNL     1      -0.215   1.831  -0.447  0.00  0.00    -0.002 C 
ATOM     34  C   UNL     1       1.192   1.278  -0.753  0.00  0.00    -0.016 C 
ENDBRANCH  27  30
ENDBRANCH  26  27
ENDBRANCH  23  26
ENDBRANCH   6  22
BRANCH   3  35
ATOM     35  N   UNL     1      12.181   1.796  -0.510  0.00  0.00    +0.056 N 
ATOM     36  O   UNL     1      12.412   1.248  -1.573  0.00  0.00    -0.126 OA
ATOM     37  O   UNL     1      13.093   2.274   0.140  0.00  0.00    -0.126 OA
ENDBRANCH   3  35
TORSDOF 10
