REMARK  Name = ZINC59461864
REMARK  8 active torsions:
REMARK  status: ('A' for Active; 'I' for Inactive)
REMARK    1  A    between atoms: C_1  and  C_2
REMARK    2  A    between atoms: C_5  and  C_8
REMARK    3  A    between atoms: C_15  and  C_24
REMARK    4  A    between atoms: C_16  and  C_18
REMARK    5  A    between atoms: C_24  and  C_26
REMARK    6  A    between atoms: C_24  and  C_32
REMARK    7  A    between atoms: C_32  and  C_34
REMARK    8  A    between atoms: C_32  and  C_36
REMARK                            x       y       z     vdW  Elec       q    Type
REMARK                         _______ _______ _______ _____ _____    ______ ____
ROOT
ATOM      1  C   UNL     1      -1.518  -3.619  -1.851  0.00  0.00    +0.080 A 
ATOM      2  C   UNL     1      -1.532  -3.924  -0.519  0.00  0.00    +0.077 A 
ATOM      3  S   UNL     1      -1.101  -5.658  -0.571  0.00  0.00    -0.056 S 
ATOM      4  C   UNL     1      -0.947  -5.796  -2.346  0.00  0.00    +0.196 A 
ATOM      5  N   UNL     1      -1.230  -4.566  -2.732  0.00  0.00    -0.221 NA
ATOM      6  N   UNL     1      -0.621  -6.905  -3.116  0.00  0.00    -0.194 N 
ATOM      7  C   UNL     1      -0.347  -8.140  -2.651  0.00  0.00    +0.278 A 
ATOM      8  C   UNL     1      -0.068  -8.969  -3.755  0.00  0.00    +0.053 A 
ATOM      9  C   UNL     1      -0.177  -8.216  -4.886  0.00  0.00    +0.072 A 
ATOM     10  N   UNL     1      -0.524  -6.937  -4.513  0.00  0.00    -0.287 N 
ATOM     11  O   UNL     1      -0.343  -8.479  -1.481  0.00  0.00    -0.265 OA
ATOM     12  H   UNL     1      -0.674  -6.190  -5.113  0.00  0.00    +0.188 HD
ENDROOT
BRANCH   1  17
ATOM     13  C   UNL     1      -2.722   1.727  -3.622  0.00  0.00    +0.044 C 
ATOM     14  C   UNL     1      -2.406   0.328  -3.159  0.00  0.00    -0.050 A 
ATOM     15  C   UNL     1      -2.106  -0.653  -4.086  0.00  0.00    +0.004 A 
ATOM     16  C   UNL     1      -1.816  -1.936  -3.667  0.00  0.00    +0.010 A 
ATOM     17  C   UNL     1      -1.827  -2.242  -2.307  0.00  0.00    +0.001 A 
ATOM     18  C   UNL     1      -2.130  -1.248  -1.378  0.00  0.00    +0.010 A 
ATOM     19  C   UNL     1      -2.413   0.032  -1.808  0.00  0.00    +0.004 A 
ENDBRANCH   1  17
BRANCH   9  20
ATOM     20  C   UNL     1       0.034  -8.690  -6.269  0.00  0.00    +0.000 A 
ATOM     21  C   UNL     1      -0.566  -9.873  -6.704  0.00  0.00    +0.010 A 
ATOM     22  C   UNL     1      -0.364 -10.310  -7.997  0.00  0.00    +0.001 A 
ATOM     23  C   UNL     1       0.431  -9.579  -8.861  0.00  0.00    +0.000 A 
ATOM     24  C   UNL     1       1.030  -8.406  -8.436  0.00  0.00    +0.001 A 
ATOM     25  C   UNL     1       0.831  -7.954  -7.148  0.00  0.00    +0.010 A 
ENDBRANCH   9  20
BRANCH   8  26
ATOM     26  C   UNL     1       0.289 -10.432  -3.696  0.00  0.00    +0.082 C 
BRANCH  26  27
ATOM     27  C   UNL     1      -0.875 -11.211  -3.140  0.00  0.00    -0.038 A 
ATOM     28  C   UNL     1      -1.214 -11.089  -1.806  0.00  0.00    +0.004 A 
ATOM     29  C   UNL     1      -2.281 -11.804  -1.296  0.00  0.00    +0.000 A 
ATOM     30  C   UNL     1      -3.010 -12.640  -2.121  0.00  0.00    +0.000 A 
ATOM     31  C   UNL     1      -2.672 -12.761  -3.456  0.00  0.00    +0.000 A 
ATOM     32  C   UNL     1      -1.607 -12.043  -3.966  0.00  0.00    +0.004 A 
ENDBRANCH  26  27
BRANCH  26  33
ATOM     33  C   UNL     1       1.509 -10.623  -2.792  0.00  0.00    +0.189 C 
BRANCH  33  34
ATOM     34  C   UNL     1       2.673  -9.843  -3.348  0.00  0.00    +0.228 C 
ATOM     35  O   UNL     1       3.692 -10.419  -3.665  0.00  0.00    -0.275 OA
ATOM     36  N   UNL     1       2.581  -8.507  -3.493  0.00  0.00    -0.328 N 
ATOM     37  H   UNL     1       1.766  -8.046  -3.239  0.00  0.00    +0.145 HD
ATOM     38  H   UNL     1       3.330  -8.005  -3.850  0.00  0.00    +0.145 HD
ENDBRANCH  33  34
BRANCH  33  39
ATOM     39  C   UNL     1       1.858 -12.052  -2.735  0.00  0.00    +0.076 C 
ATOM     40  N   UNL     1       2.127 -13.154  -2.691  0.00  0.00    -0.196 NA
ENDBRANCH  33  39
ENDBRANCH  26  33
ENDBRANCH   8  26
TORSDOF 7
