REMARK  Name = ZINC39940728
REMARK  6 active torsions:
REMARK  status: ('A' for Active; 'I' for Inactive)
REMARK    1  A    between atoms: C_3  and  N_20
REMARK    2  A    between atoms: C_6  and  C_7
REMARK    3  A    between atoms: N_9  and  C_10
REMARK    4  A    between atoms: C_10  and  C_11
REMARK    5  A    between atoms: N_20  and  S_21
REMARK    6  A    between atoms: S_21  and  C_24
REMARK                            x       y       z     vdW  Elec       q    Type
REMARK                         _______ _______ _______ _____ _____    ______ ____
ROOT
ATOM      1  C   UNL     1      -0.002   1.337  -0.110  0.00  0.00    +0.015 A 
ATOM      2  C   UNL     1       1.169   2.059  -0.095  0.00  0.00    +0.025 A 
ATOM      3  C   UNL     1       2.394   1.401  -0.037  0.00  0.00    +0.048 A 
ATOM      4  C   UNL     1       2.439   0.010   0.005  0.00  0.00    +0.025 A 
ATOM      5  C   UNL     1       1.271  -0.718  -0.011  0.00  0.00    +0.015 A 
ATOM      6  C   UNL     1       0.039  -0.060  -0.069  0.00  0.00    +0.037 A 
ENDROOT
BRANCH   6   7
ATOM      7  C   UNL     1      -1.214  -0.837  -0.085  0.00  0.00    +0.244 C 
ATOM      8  O   UNL     1      -2.285  -0.263  -0.135  0.00  0.00    -0.270 OA
ATOM      9  N   UNL     1      -1.173  -2.184  -0.044  0.00  0.00    -0.307 N 
ATOM     10  H   UNL     1      -0.319  -2.642  -0.004  0.00  0.00    +0.149 HD
BRANCH   9  11
ATOM     11  C   UNL     1      -2.418  -2.956  -0.061  0.00  0.00    +0.140 C 
BRANCH  11  12
ATOM     12  C   UNL     1      -2.097  -4.427  -0.008  0.00  0.00    -0.027 A 
ATOM     13  C   UNL     1      -1.907  -5.134  -1.181  0.00  0.00    +0.009 A 
ATOM     14  C   UNL     1      -1.613  -6.484  -1.137  0.00  0.00    +0.050 A 
ATOM     15  C   UNL     1      -1.507  -7.132   0.083  0.00  0.00    +0.166 A 
ATOM     16  C   UNL     1      -1.698  -6.420   1.264  0.00  0.00    +0.167 A 
ATOM     17  C   UNL     1      -1.988  -5.066   1.213  0.00  0.00    +0.054 A 
ATOM     18  O   UNL     1      -1.543  -7.273   2.318  0.00  0.00    -0.453 OA
ATOM     19  C   UNL     1      -1.659  -8.596   1.762  0.00  0.00    +0.466 C 
ATOM     20  O   UNL     1      -1.232  -8.432   0.397  0.00  0.00    -0.453 OA
ENDBRANCH  11  12
ENDBRANCH   9  11
ENDBRANCH   6   7
BRANCH   3  21
ATOM     21  N   UNL     1       3.576   2.133  -0.021  0.00  0.00    -0.216 N 
ATOM     22  H   UNL     1       3.701   2.865  -0.646  0.00  0.00    +0.174 HD
BRANCH  21  23
ATOM     23  S   UNL     1       4.769   1.758   1.064  0.00  0.00    +0.072 S 
ATOM     24  O   UNL     1       5.022   0.366   0.924  0.00  0.00    -0.150 OA
ATOM     25  O   UNL     1       5.786   2.737   0.905  0.00  0.00    -0.150 OA
BRANCH  23  26
ATOM     26  C   UNL     1       4.097   1.987   2.677  0.00  0.00    +0.110 A 
ATOM     27  C   UNL     1       4.113   3.320   3.266  0.00  0.00    +0.031 A 
ATOM     28  C   UNL     1       3.614   3.565   4.497  0.00  0.00    +0.027 A 
ATOM     29  C   UNL     1       3.039   2.468   5.273  0.00  0.00    +0.056 A 
ATOM     30  N   UNL     1       2.489   2.363   6.456  0.00  0.00    -0.268 N 
ATOM     31  C   UNL     1       2.128   1.050   6.652  0.00  0.00    +0.308 C 
ATOM     32  O   UNL     1       1.592   0.616   7.650  0.00  0.00    -0.252 OA
ATOM     33  N   UNL     1       2.465   0.305   5.547  0.00  0.00    -0.267 N 
ATOM     34  C   UNL     1       3.023   1.098   4.668  0.00  0.00    +0.058 A 
ATOM     35  C   UNL     1       3.579   0.923   3.328  0.00  0.00    +0.054 A 
ATOM     36  H   UNL     1       2.315  -0.647   5.438  0.00  0.00    +0.156 HD
ATOM     37  H   UNL     1       2.358   3.087   7.088  0.00  0.00    +0.156 HD
ENDBRANCH  23  26
ENDBRANCH  21  23
ENDBRANCH   3  21
TORSDOF 6
