REMARK  Name = ZINC28075434
REMARK  7 active torsions:
REMARK  status: ('A' for Active; 'I' for Inactive)
REMARK    1  A    between atoms: C_1  and  C_2
REMARK    2  A    between atoms: C_7  and  C_8
REMARK    3  A    between atoms: C_11  and  S_13
REMARK    4  A    between atoms: S_13  and  C_14
REMARK    5  A    between atoms: C_14  and  C_16
REMARK    6  A    between atoms: C_14  and  C_17
REMARK    7  A    between atoms: C_23  and  C_28
REMARK                            x       y       z     vdW  Elec       q    Type
REMARK                         _______ _______ _______ _____ _____    ______ ____
ROOT
ATOM      1  C   UNL     1       0.183   2.113   8.426  0.00  0.00    +0.124 A 
ATOM      2  N   UNL     1       0.869   3.130   9.007  0.00  0.00    -0.309 N 
ATOM      3  H   UNL     1       1.259   3.820   8.449  0.00  0.00    +0.170 HD
ATOM      4  C   UNL     1       1.018   3.199  10.343  0.00  0.00    +0.260 A 
ATOM      5  O   UNL     1       1.636   4.119  10.850  0.00  0.00    -0.267 OA
ATOM      6  C   UNL     1       0.438   2.176  11.159  0.00  0.00    +0.083 A 
ATOM      7  C   UNL     1       0.461   2.031  12.611  0.00  0.00    +0.039 A 
ATOM      8  C   UNL     1      -0.167   0.965  13.168  0.00  0.00    +0.059 A 
ATOM      9  S   UNL     1      -0.826   0.092  11.761  0.00  0.00    -0.076 S 
ATOM     10  C   UNL     1      -0.252   1.166  10.471  0.00  0.00    +0.116 A 
ATOM     11  N   UNL     1      -0.362   1.168   9.145  0.00  0.00    -0.225 NA
ENDROOT
BRANCH   7  12
ATOM     12  C   UNL     1       1.153   3.025  13.457  0.00  0.00    +0.136 A 
ATOM     13  C   UNL     1       0.632   3.642  14.552  0.00  0.00    +0.050 A 
ATOM     14  C   UNL     1       1.633   4.504  15.046  0.00  0.00    +0.042 A 
ATOM     15  C   UNL     1       2.702   4.371  14.238  0.00  0.00    +0.196 A 
ATOM     16  O   UNL     1       2.411   3.472  13.282  0.00  0.00    -0.463 OA
ENDBRANCH   7  12
BRANCH   1  17
ATOM     17  C   UNL     1       0.042   2.077   6.926  0.00  0.00    +0.119 C 
ATOM     18  C   UNL     1      -1.283   2.728   6.522  0.00  0.00    +0.027 C 
BRANCH  17  19
ATOM     19  S   UNL     1       0.066   0.354   6.357  0.00  0.00    -0.055 S 
BRANCH  19  23
ATOM     20  C   UNL     1       0.026   0.017   2.492  0.00  0.00    +0.249 A 
ATOM     21  N   UNL     1       0.004   1.318   2.648  0.00  0.00    -0.106 NA
ATOM     22  N   UNL     1       0.015   1.598   3.904  0.00  0.00    -0.101 NA
ATOM     23  C   UNL     1       0.043   0.485   4.600  0.00  0.00    +0.278 A 
ATOM     24  O   UNL     1       0.045  -0.538   3.725  0.00  0.00    -0.411 OA
BRANCH  20  31
ATOM     25  C   UNL     1      -0.018   1.503   0.010  0.00  0.00    +0.044 C 
ATOM     26  C   UNL     1       0.002  -0.004   0.002  0.00  0.00    -0.038 A 
ATOM     27  C   UNL     1       0.006  -0.689  -1.196  0.00  0.00    +0.004 A 
ATOM     28  C   UNL     1       0.025  -2.072  -1.205  0.00  0.00    +0.000 A 
ATOM     29  C   UNL     1       0.040  -2.778  -0.015  0.00  0.00    +0.001 A 
ATOM     30  C   UNL     1       0.036  -2.106   1.189  0.00  0.00    +0.013 A 
ATOM     31  C   UNL     1       0.023  -0.710   1.206  0.00  0.00    +0.041 A 
ENDBRANCH  20  31
ENDBRANCH  19  23
ENDBRANCH  17  19
ENDBRANCH   1  17
TORSDOF 5
