REMARK  Name = ZINC40168115
REMARK  9 active torsions:
REMARK  status: ('A' for Active; 'I' for Inactive)
REMARK    1  A    between atoms: C_1  and  C_2
REMARK    2  A    between atoms: C_2  and  C_3
REMARK    3  A    between atoms: C_3  and  C_5
REMARK    4  A    between atoms: C_3  and  O_20
REMARK    5  A    between atoms: N_7  and  C_8
REMARK    6  A    between atoms: C_9  and  C_17
REMARK    7  A    between atoms: O_20  and  C_21
REMARK    8  A    between atoms: C_31  and  C_32
REMARK    9  A    between atoms: C_35  and  C_38
REMARK                            x       y       z     vdW  Elec       q    Type
REMARK                         _______ _______ _______ _____ _____    ______ ____
ROOT
ATOM      1  C   UNL     1       1.085  -0.387   1.077  0.00  0.00    +0.259 C 
ENDROOT
BRANCH   1   2
ATOM      2  C   UNL     1       1.511  -1.825   0.930  0.00  0.00    +0.258 C 
ATOM      3  O   UNL     1       1.100  -2.662   1.706  0.00  0.00    -0.271 OA
ATOM      4  N   UNL     1       2.348  -2.181  -0.064  0.00  0.00    -0.276 N 
ATOM      5  H   UNL     1       2.735  -1.502  -0.639  0.00  0.00    +0.155 HD
BRANCH   4   6
ATOM      6  C   UNL     1       2.656  -3.518  -0.266  0.00  0.00    +0.084 A 
ATOM      7  C   UNL     1       3.493  -4.064  -1.226  0.00  0.00    +0.068 A 
ATOM      8  C   UNL     1       3.650  -5.508  -1.227  0.00  0.00    -0.023 A 
ATOM      9  C   UNL     1       2.940  -6.141  -0.268  0.00  0.00    -0.004 A 
ATOM     10  S   UNL     1       2.105  -4.846   0.601  0.00  0.00    -0.077 S 
ATOM     11  C   UNL     1       2.889  -7.616  -0.012  0.00  0.00    +0.043 C 
ATOM     12  C   UNL     1       3.467  -8.338  -1.238  0.00  0.00    +0.005 C 
ATOM     13  C   UNL     1       4.791  -7.673  -1.625  0.00  0.00    +0.005 C 
ATOM     14  C   UNL     1       4.526  -6.281  -2.202  0.00  0.00    +0.037 C 
BRANCH   7  15
ATOM     15  C   UNL     1       4.192  -3.220  -2.200  0.00  0.00    +0.244 C 
ATOM     16  O   UNL     1       5.298  -2.781  -1.943  0.00  0.00    -0.270 OA
ATOM     17  N   UNL     1       3.610  -2.929  -3.380  0.00  0.00    -0.325 N 
ATOM     18  H   UNL     1       2.728  -3.278  -3.585  0.00  0.00    +0.145 HD
ATOM     19  H   UNL     1       4.072  -2.370  -4.024  0.00  0.00    +0.145 HD
ENDBRANCH   7  15
ENDBRANCH   4   6
ENDBRANCH   1   2
BRANCH   1  21
ATOM     20  C   UNL     1      -0.086   1.510  -0.051  0.00  0.00    +0.008 C 
ATOM     21  C   UNL     1       0.204   0.009  -0.109  0.00  0.00    +0.051 C 
ENDBRANCH   1  21
BRANCH   1  22
ATOM     22  O   UNL     1       0.347  -0.231   2.291  0.00  0.00    -0.472 OA
BRANCH  22  23
ATOM     23  C   UNL     1       0.499   0.945   2.959  0.00  0.00    +0.212 A 
ATOM     24  C   UNL     1       1.772   1.328   3.454  0.00  0.00    +0.235 A 
ATOM     25  O   UNL     1       2.754   0.620   3.295  0.00  0.00    -0.283 OA
ATOM     26  C   UNL     1       1.863   2.615   4.169  0.00  0.00    +0.068 A 
ATOM     27  C   UNL     1       3.074   3.072   4.689  0.00  0.00    +0.015 A 
ATOM     28  C   UNL     1       3.117   4.280   5.349  0.00  0.00    +0.001 A 
ATOM     29  C   UNL     1       1.965   5.039   5.497  0.00  0.00    +0.004 A 
ATOM     30  C   UNL     1       0.762   4.598   4.988  0.00  0.00    +0.047 A 
ATOM     31  C   UNL     1       0.696   3.382   4.318  0.00  0.00    +0.140 A 
ATOM     32  O   UNL     1      -0.471   2.935   3.811  0.00  0.00    -0.451 OA
ATOM     33  C   UNL     1      -0.570   1.768   3.154  0.00  0.00    +0.181 A 
BRANCH  33  34
ATOM     34  C   UNL     1      -1.886   1.358   2.627  0.00  0.00    +0.021 A 
ATOM     35  C   UNL     1      -2.352   0.058   2.836  0.00  0.00    +0.012 A 
ATOM     36  C   UNL     1      -3.583  -0.318   2.341  0.00  0.00    +0.004 A 
ATOM     37  C   UNL     1      -4.357   0.590   1.639  0.00  0.00    -0.050 A 
ATOM     38  C   UNL     1      -3.902   1.879   1.429  0.00  0.00    +0.004 A 
ATOM     39  C   UNL     1      -2.675   2.271   1.923  0.00  0.00    +0.012 A 
ATOM     40  C   UNL     1      -5.701   0.171   1.101  0.00  0.00    +0.044 C 
ENDBRANCH  33  34
ENDBRANCH  22  23
ENDBRANCH   1  22
TORSDOF 7
