REMARK  Name = ZINC63557084
REMARK  7 active torsions:
REMARK  status: ('A' for Active; 'I' for Inactive)
REMARK    1  A    between atoms: C_1  and  C_2
REMARK    2  A    between atoms: C_2  and  C_3
REMARK    3  A    between atoms: C_2  and  C_4
REMARK    4  A    between atoms: C_11  and  C_13
REMARK    5  A    between atoms: N_18  and  C_20
REMARK    6  A    between atoms: C_20  and  C_21
REMARK    7  A    between atoms: C_21  and  C_22
REMARK                            x       y       z     vdW  Elec       q    Type
REMARK                         _______ _______ _______ _____ _____    ______ ____
ROOT
ATOM      1  C   UNL     1      -3.976  -4.267  -4.627  0.00  0.00    +0.101 C 
ATOM      2  C   UNL     1      -3.160  -3.906  -5.890  0.00  0.00    +0.110 C 
ATOM      3  C   UNL     1      -3.305  -5.119  -6.783  0.00  0.00    +0.216 C 
ATOM      4  O   UNL     1      -3.056  -5.141  -7.970  0.00  0.00    -0.276 OA
ATOM      5  N   UNL     1      -3.749  -6.168  -6.070  0.00  0.00    -0.300 N 
ATOM      6  C   UNL     1      -3.943  -5.811  -4.659  0.00  0.00    +0.121 C 
ENDROOT
BRANCH   1  13
ATOM      7  C   UNL     1      -1.433  -0.534   0.013  0.00  0.00    +0.156 C 
ATOM      8  N   UNL     1      -1.462  -2.014   0.027  0.00  0.00    -0.253 N 
ATOM      9  N   UNL     1      -2.055  -2.600  -1.068  0.00  0.00    -0.163 NA
ATOM     10  C   UNL     1      -2.559  -1.923  -2.053  0.00  0.00    +0.179 C 
ATOM     11  S   UNL     1      -2.275  -0.220  -1.593  0.00  0.00    -0.065 S 
ATOM     12  N   UNL     1      -3.177  -2.410  -3.200  0.00  0.00    -0.263 N 
ATOM     13  C   UNL     1      -3.307  -3.739  -3.384  0.00  0.00    +0.224 C 
ATOM     14  O   UNL     1      -2.884  -4.511  -2.549  0.00  0.00    -0.275 OA
ATOM     15  H   UNL     1      -1.089  -2.534   0.757  0.00  0.00    +0.169 HD
ATOM     16  H   UNL     1      -3.515  -1.793  -3.869  0.00  0.00    +0.157 HD
BRANCH   7  18
ATOM     17  C   UNL     1      -0.019   1.526   0.010  0.00  0.00    +0.010 C 
ATOM     18  C   UNL     1       0.002  -0.004   0.002  0.00  0.00    +0.015 C 
ATOM     19  C   UNL     1       0.742  -0.511   1.242  0.00  0.00    +0.010 C 
ENDBRANCH   7  18
ENDBRANCH   1  13
BRANCH   5  20
ATOM     20  C   UNL     1      -4.008  -7.497  -6.629  0.00  0.00    +0.112 C 
BRANCH  20  21
ATOM     21  C   UNL     1      -2.736  -8.344  -6.540  0.00  0.00    +0.052 C 
BRANCH  21  22
ATOM     22  C   UNL     1      -3.002  -9.711  -7.114  0.00  0.00    -0.040 C 
ATOM     23  C   UNL     1      -2.750 -10.126  -8.377  0.00  0.00    +0.000 A 
ATOM     24  C   UNL     1      -2.175  -9.453  -9.548  0.00  0.00    +0.030 A 
ATOM     25  C   UNL     1      -2.046 -10.144 -10.704  0.00  0.00    +0.042 A 
ATOM     26  C   UNL     1      -2.446 -11.484 -10.811  0.00  0.00    +0.022 A 
ATOM     27  C   UNL     1      -2.982 -12.169  -9.779  0.00  0.00    +0.027 A 
ATOM     28  C   UNL     1      -3.164 -11.540  -8.516  0.00  0.00    +0.043 A 
ATOM     29  N   UNL     1      -3.653 -11.983  -7.383  0.00  0.00    -0.380 N 
ATOM     30  C   UNL     1      -3.598 -10.900  -6.395  0.00  0.00    +0.144 C 
ATOM     31 CL   UNL     1      -1.367  -9.351 -12.092  0.00  0.00    -0.084 Cl
ATOM     32  H   UNL     1      -3.991 -12.878  -7.224  0.00  0.00    +0.160 HD
ENDBRANCH  21  22
ENDBRANCH  20  21
ENDBRANCH   5  20
TORSDOF 5
