REMARK  Name = ZINC54558090
REMARK  7 active torsions:
REMARK  status: ('A' for Active; 'I' for Inactive)
REMARK    1  A    between atoms: C_1  and  C_2
REMARK    2  A    between atoms: C_3  and  S_8
REMARK    3  A    between atoms: S_8  and  C_9
REMARK    4  A    between atoms: C_9  and  C_18
REMARK    5  A    between atoms: C_12  and  C_15
REMARK    6  A    between atoms: C_15  and  C_16
REMARK    7  A    between atoms: C_15  and  C_17
REMARK                            x       y       z     vdW  Elec       q    Type
REMARK                         _______ _______ _______ _____ _____    ______ ____
ROOT
ATOM      1  C   UNL     1       0.003  -1.562  -3.855  0.00  0.00    +0.122 C 
ATOM      2  C   UNL     1       1.266  -2.373  -3.555  0.00  0.00    +0.030 C 
ATOM      3  C   UNL     1       1.278  -3.635  -4.421  0.00  0.00    +0.006 C 
ATOM      4  C   UNL     1       1.265  -3.239  -5.899  0.00  0.00    -0.008 C 
ATOM      5  C   UNL     1       0.003  -2.428  -6.199  0.00  0.00    +0.006 C 
ATOM      6  C   UNL     1      -0.010  -1.167  -5.333  0.00  0.00    +0.030 C 
ENDROOT
BRANCH   4   7
ATOM      7  C   UNL     1       1.278  -4.501  -6.765  0.00  0.00    -0.014 C 
ATOM      8  C   UNL     1       1.265  -4.105  -8.243  0.00  0.00    +0.007 C 
ATOM      9  C   UNL     1       2.540  -5.312  -6.465  0.00  0.00    +0.007 C 
ENDBRANCH   4   7
BRANCH   1  10
ATOM     10  C   UNL     1      -1.214  -2.395  -3.547  0.00  0.00    +0.372 C 
ATOM     11  O   UNL     1      -2.018  -2.015  -2.712  0.00  0.00    -0.245 OA
ATOM     12  O   UNL     1      -1.395  -3.449  -4.132  0.00  0.00    -0.245 OA
ENDBRANCH   1  10
BRANCH   1  13
ATOM     13  S   UNL     1      -0.012  -0.066  -2.829  0.00  0.00    -0.098 S 
BRANCH  13  16
ATOM     14  C   UNL     1      -0.018   1.503   0.010  0.00  0.00    +0.067 C 
ATOM     15  C   UNL     1       0.002  -0.004   0.002  0.00  0.00    +0.061 A 
ATOM     16  C   UNL     1       0.005  -0.682  -1.178  0.00  0.00    +0.070 A 
ATOM     17  S   UNL     1       0.031  -2.370  -0.589  0.00  0.00    -0.046 S 
ATOM     18  C   UNL     1       0.035  -1.995   1.158  0.00  0.00    +0.157 A 
ATOM     19  N   UNL     1       0.022  -0.675   1.141  0.00  0.00    -0.229 NA
ATOM     20  N   UNL     1       0.052  -2.861   2.245  0.00  0.00    -0.337 N 
ATOM     21  H   UNL     1       0.065  -3.820   2.100  0.00  0.00    +0.144 HD
ATOM     22  H   UNL     1       0.052  -2.507   3.148  0.00  0.00    +0.144 HD
ENDBRANCH  13  16
ENDBRANCH   1  13
TORSDOF 4
