REMARK  Name = ZINC12503429
REMARK  11 active torsions:
REMARK  status: ('A' for Active; 'I' for Inactive)
REMARK    1  A    between atoms: C_1  and  C_2
REMARK    2  A    between atoms: C_5  and  O_9
REMARK    3  A    between atoms: O_9  and  C_10
REMARK    4  A    between atoms: C_10  and  C_11
REMARK    5  A    between atoms: N_13  and  N_14
REMARK    6  A    between atoms: N_14  and  C_15
REMARK    7  A    between atoms: C_15  and  N_17
REMARK    8  A    between atoms: C_18  and  C_20
REMARK    9  A    between atoms: C_20  and  O_21
REMARK   10  A    between atoms: O_21  and  C_22
REMARK   11  A    between atoms: C_27  and  C_28
REMARK                            x       y       z     vdW  Elec       q    Type
REMARK                         _______ _______ _______ _____ _____    ______ ____
ROOT
ATOM      1  N   UNL     1       2.951   6.517   0.009  0.00  0.00    -0.245 N 
ATOM      2  H   UNL     1       2.811   7.476   0.015  0.00  0.00    +0.172 HD
ENDROOT
BRANCH   1   5
ATOM      3  C   UNL     1       5.310   6.834  -0.012  0.00  0.00    +0.267 C 
ATOM      4  O   UNL     1       5.135   8.034  -0.004  0.00  0.00    -0.271 OA
ATOM      5  N   UNL     1       4.252   5.999  -0.006  0.00  0.00    -0.232 N 
ATOM      6  H   UNL     1       4.393   5.039  -0.013  0.00  0.00    +0.173 HD
BRANCH   3   7
ATOM      7  C   UNL     1       6.710   6.277  -0.028  0.00  0.00    +0.326 C 
BRANCH   7   8
ATOM      8  O   UNL     1       7.651   7.353  -0.032  0.00  0.00    -0.482 OA
BRANCH   8  13
ATOM      9  C   UNL     1      13.112   5.974  -0.093  0.00  0.00    +0.044 C 
ATOM     10  C   UNL     1      11.651   6.343  -0.076  0.00  0.00    -0.049 A 
ATOM     11  C   UNL     1      10.688   5.351  -0.072  0.00  0.00    +0.007 A 
ATOM     12  C   UNL     1       9.348   5.686  -0.057  0.00  0.00    +0.047 A 
ATOM     13  C   UNL     1       8.969   7.021  -0.046  0.00  0.00    +0.135 A 
ATOM     14  C   UNL     1       9.936   8.015  -0.056  0.00  0.00    +0.060 A 
ATOM     15  C   UNL     1      11.276   7.674  -0.066  0.00  0.00    +0.022 A 
ATOM     16 BR   UNL     1       9.423   9.835  -0.048  0.00  0.00    -0.047 Br
ENDBRANCH   8  13
ENDBRANCH   7   8
ENDBRANCH   3   7
ENDBRANCH   1   5
BRANCH   1  17
ATOM     17  C   UNL     1       1.893   5.681   0.015  0.00  0.00    +0.153 C 
ATOM     18  S   UNL     1       0.302   6.314   0.033  0.00  0.00    -0.017 S 
BRANCH  17  19
ATOM     19  N   UNL     1       2.088   4.348   0.005  0.00  0.00    -0.264 N 
ATOM     20  C   UNL     1       1.030   3.512   0.011  0.00  0.00    +0.256 C 
ATOM     21  O   UNL     1      -0.096   3.960   0.024  0.00  0.00    -0.272 OA
ATOM     22  H   UNL     1       2.989   3.989  -0.005  0.00  0.00    +0.157 HD
BRANCH  20  23
ATOM     23  C   UNL     1       1.248   2.021   0.001  0.00  0.00    +0.325 C 
BRANCH  23  24
ATOM     24  O   UNL     1      -0.016   1.355   0.009  0.00  0.00    -0.482 OA
BRANCH  24  25
ATOM     25  C   UNL     1       0.002  -0.004   0.002  0.00  0.00    +0.124 A 
ATOM     26  C   UNL     1       1.212  -0.682  -0.013  0.00  0.00    +0.047 A 
ATOM     27  C   UNL     1       1.229  -2.063  -0.020  0.00  0.00    +0.023 A 
ATOM     28  C   UNL     1       0.040  -2.771  -0.012  0.00  0.00    +0.041 A 
ATOM     29  C   UNL     1      -1.168  -2.096   0.003  0.00  0.00    +0.027 A 
ATOM     30  C   UNL     1      -1.189  -0.715   0.015  0.00  0.00    -0.007 A 
ATOM     31  C   UNL     1      -2.505   0.019   0.038  0.00  0.00    +0.047 C 
ATOM     32 CL   UNL     1       0.063  -4.506  -0.021  0.00  0.00    -0.084 Cl
ENDBRANCH  24  25
ENDBRANCH  23  24
ENDBRANCH  20  23
ENDBRANCH  17  19
ENDBRANCH   1  17
TORSDOF 9
