REMARK  Name = ZINC59434794
REMARK  5 active torsions:
REMARK  status: ('A' for Active; 'I' for Inactive)
REMARK    1  A    between atoms: C_5  and  N_10
REMARK    2  A    between atoms: C_6  and  N_7
REMARK    3  A    between atoms: C_11  and  C_13
REMARK    4  A    between atoms: C_13  and  S_14
REMARK    5  A    between atoms: S_14  and  C_15
REMARK                            x       y       z     vdW  Elec       q    Type
REMARK                         _______ _______ _______ _____ _____    ______ ____
ROOT
ATOM      1  N   UNL     1       1.217  -2.082  -0.046  0.00  0.00    -0.282 N 
ATOM      2  C   UNL     1       2.375  -2.749   0.129  0.00  0.00    +0.228 C 
ATOM      3  O   UNL     1       3.391  -2.142   0.393  0.00  0.00    -0.275 OA
ATOM      4  H   UNL     1       0.395  -2.571  -0.209  0.00  0.00    +0.155 HD
ENDROOT
BRANCH   1   9
ATOM      5  C   UNL     1       0.194   1.353   0.779  0.00  0.00    +0.050 A 
ATOM      6  C   UNL     1       1.165   2.082   0.115  0.00  0.00    +0.021 A 
ATOM      7  C   UNL     1       2.153   1.432  -0.603  0.00  0.00    +0.032 A 
ATOM      8  C   UNL     1       2.173   0.051  -0.658  0.00  0.00    +0.042 A 
ATOM      9  C   UNL     1       1.200  -0.683   0.009  0.00  0.00    +0.078 A 
ATOM     10  C   UNL     1       0.210  -0.027   0.728  0.00  0.00    +0.149 A 
ATOM     11 BR   UNL     1       3.522  -0.838  -1.640  0.00  0.00    -0.048 Br
ATOM     12 BR   UNL     1       1.140   3.972   0.188  0.00  0.00    -0.050 Br
BRANCH  10  13
ATOM     13  N   UNL     1      -0.829  -0.806   1.439  0.00  0.00    +0.058 N 
ATOM     14  O   UNL     1      -1.749  -0.236   1.979  0.00  0.00    -0.126 OA
ATOM     15  O   UNL     1      -0.757  -2.012   1.481  0.00  0.00    -0.126 OA
ENDBRANCH  10  13
ENDBRANCH   1   9
BRANCH   2  16
ATOM     16  C   UNL     1       2.408  -4.250  -0.005  0.00  0.00    +0.172 C 
BRANCH  16  17
ATOM     17  S   UNL     1       4.096  -4.846   0.284  0.00  0.00    -0.088 S 
BRANCH  17  18
ATOM     18  C   UNL     1       3.970  -6.593   0.095  0.00  0.00    +0.160 A 
ATOM     19  N   UNL     1       2.913  -7.328  -0.196  0.00  0.00    -0.133 NA
ATOM     20  N   UNL     1       3.038  -8.695  -0.298  0.00  0.00    -0.125 NA
ATOM     21  C   UNL     1       4.211  -9.263  -0.104  0.00  0.00    +0.180 A 
ATOM     22  S   UNL     1       5.239  -7.842   0.237  0.00  0.00    -0.025 S 
ATOM     23  N   UNL     1       4.558 -10.608  -0.157  0.00  0.00    -0.336 N 
ATOM     24  H   UNL     1       3.884 -11.275  -0.361  0.00  0.00    +0.144 HD
ATOM     25  H   UNL     1       5.474 -10.880   0.011  0.00  0.00    +0.144 HD
ENDBRANCH  17  18
ENDBRANCH  16  17
ENDBRANCH   2  16
TORSDOF 5
