REMARK  Name = ZINC17652513
REMARK  12 active torsions:
REMARK  status: ('A' for Active; 'I' for Inactive)
REMARK    1  A    between atoms: C_1  and  C_2
REMARK    2  A    between atoms: C_5  and  C_8
REMARK    3  A    between atoms: C_8  and  C_10
REMARK    4  A    between atoms: C_8  and  N_15
REMARK    5  A    between atoms: C_16  and  C_18
REMARK    6  A    between atoms: C_18  and  N_19
REMARK    7  A    between atoms: C_22  and  C_26
REMARK    8  A    between atoms: C_22  and  C_27
REMARK    9  A    between atoms: C_30  and  C_33
REMARK   10  A    between atoms: C_33  and  C_34
REMARK   11  A    between atoms: C_33  and  C_35
REMARK   12  A    between atoms: C_33  and  C_36
REMARK                            x       y       z     vdW  Elec       q    Type
REMARK                         _______ _______ _______ _____ _____    ______ ____
ROOT
ATOM      1  N   UNL     1      -0.018   1.461   0.010  0.00  0.00    -0.215 N 
ATOM      2  C   UNL     1       1.087   2.233   0.004  0.00  0.00    +0.251 C 
ATOM      3  O   UNL     1       2.240   1.861  -0.008  0.00  0.00    -0.272 OA
ATOM      4  C   UNL     1       0.587   3.664   0.015  0.00  0.00    +0.135 C 
ATOM      5  N   UNL     1      -0.879   3.518   0.028  0.00  0.00    -0.281 N 
ATOM      6  C   UNL     1      -1.135   2.197   0.019  0.00  0.00    +0.310 C 
ATOM      7  O   UNL     1      -2.255   1.726   0.022  0.00  0.00    -0.252 OA
ATOM      8  C   UNL     1       1.066   4.392   1.273  0.00  0.00    +0.047 C 
ATOM      9  H   UNL     1      -1.533   4.235   0.038  0.00  0.00    +0.152 HD
ENDROOT
BRANCH   4  10
ATOM     10  C   UNL     1       1.036   4.393  -1.225  0.00  0.00    -0.015 A 
ATOM     11  C   UNL     1       2.226   4.046  -1.837  0.00  0.00    +0.006 A 
ATOM     12  C   UNL     1       2.636   4.711  -2.978  0.00  0.00    +0.004 A 
ATOM     13  C   UNL     1       1.861   5.730  -3.499  0.00  0.00    -0.042 A 
ATOM     14  C   UNL     1       0.674   6.081  -2.884  0.00  0.00    +0.004 A 
ATOM     15  C   UNL     1       0.261   5.412  -1.747  0.00  0.00    +0.006 A 
BRANCH  13  16
ATOM     16  C   UNL     1       2.311   6.460  -4.739  0.00  0.00    -0.013 C 
ATOM     17  C   UNL     1       2.484   7.946  -4.421  0.00  0.00    +0.015 C 
ATOM     18  C   UNL     1       3.645   5.881  -5.215  0.00  0.00    +0.015 C 
ATOM     19  C   UNL     1       1.261   6.292  -5.839  0.00  0.00    +0.015 C 
ENDBRANCH  13  16
ENDBRANCH   4  10
BRANCH   1  20
ATOM     20  C   UNL     1       0.002  -0.004   0.002  0.00  0.00    +0.213 C 
BRANCH  20  22
ATOM     21  N   UNL     1       0.043  -1.840   1.659  0.00  0.00    -0.303 N 
ATOM     22  C   UNL     1       0.022  -0.514   1.420  0.00  0.00    +0.232 C 
ATOM     23  O   UNL     1       0.021   0.269   2.346  0.00  0.00    -0.274 OA
ATOM     24  H   UNL     1       0.044  -2.466   0.918  0.00  0.00    +0.150 HD
BRANCH  21  25
ATOM     25  C   UNL     1       0.063  -2.336   3.037  0.00  0.00    +0.140 C 
BRANCH  25  30
ATOM     26  C   UNL     1      -2.166  -7.665   3.200  0.00  0.00    +0.044 C 
ATOM     27  C   UNL     1      -1.585  -6.275   3.158  0.00  0.00    -0.050 A 
ATOM     28  C   UNL     1      -1.881  -5.372   4.161  0.00  0.00    +0.004 A 
ATOM     29  C   UNL     1      -1.347  -4.097   4.122  0.00  0.00    +0.006 A 
ATOM     30  C   UNL     1      -0.519  -3.726   3.080  0.00  0.00    -0.022 A 
ATOM     31  C   UNL     1      -0.228  -4.628   2.074  0.00  0.00    +0.006 A 
ATOM     32  C   UNL     1      -0.757  -5.904   2.115  0.00  0.00    +0.004 A 
ENDBRANCH  25  30
BRANCH  25  33
ATOM     33  C   UNL     1       1.483  -2.370   3.539  0.00  0.00    +0.014 A 
ATOM     34  C   UNL     1       1.966  -2.034   4.760  0.00  0.00    +0.013 A 
ATOM     35  C   UNL     1       3.323  -2.149   4.999  0.00  0.00    +0.008 A 
ATOM     36  C   UNL     1       4.131  -2.586   4.003  0.00  0.00    +0.045 A 
ATOM     37  S   UNL     1       2.969  -2.857   2.676  0.00  0.00    -0.099 S 
ENDBRANCH  25  33
ENDBRANCH  21  25
ENDBRANCH  20  22
ENDBRANCH   1  20
TORSDOF 7
