REMARK  Name = ZINC21076810
REMARK  9 active torsions:
REMARK  status: ('A' for Active; 'I' for Inactive)
REMARK    1  A    between atoms: C_1  and  N_2
REMARK    2  A    between atoms: N_2  and  C_3
REMARK    3  A    between atoms: N_2  and  C_4
REMARK    4  A    between atoms: C_7  and  N_10
REMARK    5  A    between atoms: C_11  and  C_13
REMARK    6  A    between atoms: C_13  and  S_14
REMARK    7  A    between atoms: S_14  and  C_15
REMARK    8  A    between atoms: N_20  and  N_21
REMARK    9  A    between atoms: C_22  and  C_23
REMARK                            x       y       z     vdW  Elec       q    Type
REMARK                         _______ _______ _______ _____ _____    ______ ____
ROOT
ATOM      1  C   UNL     1       1.309  -0.406  -0.028  0.00  0.00    +0.211 A 
ATOM      2  N   UNL     1       0.005  -0.001  -0.013  0.00  0.00    -0.186 NA
ATOM      3  C   UNL     1      -0.013   1.366  -0.016  0.00  0.00    +0.232 A 
ATOM      4  N   UNL     1       1.228   1.788  -0.032  0.00  0.00    -0.245 N 
ATOM      5  N   UNL     1       2.066   0.665  -0.040  0.00  0.00    -0.144 NA
ATOM      6  N   UNL     1      -1.146   2.167  -0.010  0.00  0.00    -0.205 N 
ATOM      7  H   UNL     1      -2.145   1.706  -0.002  0.00  0.00    +0.177 HD
ATOM      8  H   UNL     1       1.442   2.866  -0.037  0.00  0.00    +0.192 HD
ENDROOT
BRANCH   6   9
ATOM      9  N   UNL     1      -1.018   3.562  -0.014  0.00  0.00    -0.188 NA
ATOM     10  C   UNL     1      -2.079   4.311  -0.008  0.00  0.00    +0.139 C 
BRANCH  10  11
ATOM     11  C   UNL     1      -1.944   5.779  -0.013  0.00  0.00    +0.013 A 
ATOM     12  C   UNL     1      -3.083   6.588  -0.006  0.00  0.00    +0.012 A 
ATOM     13  C   UNL     1      -2.950   7.961  -0.010  0.00  0.00    +0.021 A 
ATOM     14  C   UNL     1      -1.691   8.538  -0.021  0.00  0.00    +0.042 A 
ATOM     15  C   UNL     1      -0.558   7.743  -0.027  0.00  0.00    +0.040 A 
ATOM     16  C   UNL     1      -0.676   6.368  -0.018  0.00  0.00    +0.051 A 
ATOM     17 CL   UNL     1       0.746   5.372  -0.019  0.00  0.00    -0.083 Cl
ATOM     18 CL   UNL     1      -1.534  10.267  -0.025  0.00  0.00    -0.083 Cl
ENDBRANCH  10  11
ENDBRANCH   6   9
BRANCH   1  19
ATOM     19  S   UNL     1       1.876  -2.075  -0.030  0.00  0.00    -0.075 S 
BRANCH  19  20
ATOM     20  C   UNL     1       3.683  -1.925  -0.052  0.00  0.00    +0.173 C 
BRANCH  20  22
ATOM     21  N   UNL     1       5.642  -3.435  -0.072  0.00  0.00    -0.285 N 
ATOM     22  C   UNL     1       4.301  -3.299  -0.056  0.00  0.00    +0.227 C 
ATOM     23  O   UNL     1       3.592  -4.283  -0.044  0.00  0.00    -0.275 OA
ATOM     24  H   UNL     1       6.284  -2.546  -0.159  0.00  0.00    +0.155 HD
BRANCH  21  28
ATOM     25  C   UNL     1       7.358  -7.226   0.209  0.00  0.00    +0.029 A 
ATOM     26  C   UNL     1       6.162  -7.054  -0.475  0.00  0.00    +0.025 A 
ATOM     27  C   UNL     1       5.594  -5.799  -0.568  0.00  0.00    +0.025 A 
ATOM     28  C   UNL     1       6.219  -4.708   0.023  0.00  0.00    +0.034 A 
ATOM     29  C   UNL     1       7.418  -4.879   0.702  0.00  0.00    +0.025 A 
ATOM     30  C   UNL     1       7.983  -6.135   0.800  0.00  0.00    +0.025 A 
BRANCH  25  32
ATOM     31  C   UNL     1       7.334  -9.627  -0.411  0.00  0.00    +0.129 C 
ATOM     32  N   UNL     1       7.933  -8.498   0.304  0.00  0.00    -0.336 N 
ATOM     33  C   UNL     1       9.135  -8.699   1.117  0.00  0.00    +0.129 C 
ENDBRANCH  25  32
ENDBRANCH  21  28
ENDBRANCH  20  22
ENDBRANCH  19  20
ENDBRANCH   1  19
TORSDOF 7
