REMARK  Name = ZINC05353917
REMARK  5 active torsions:
REMARK  status: ('A' for Active; 'I' for Inactive)
REMARK    1  A    between atoms: C_1  and  C_2
REMARK    2  A    between atoms: C_2  and  C_25
REMARK    3  A    between atoms: N_3  and  N_4
REMARK    4  A    between atoms: C_5  and  C_7
REMARK    5  A    between atoms: C_9  and  C_13
REMARK                            x       y       z     vdW  Elec       q    Type
REMARK                         _______ _______ _______ _____ _____    ______ ____
ROOT
ATOM      1  C   UNL     1       4.683   4.371  -0.019  0.00  0.00    +0.122 A 
ATOM      2  C   UNL     1       3.798   3.310  -0.011  0.00  0.00    +0.062 A 
ATOM      3  C   UNL     1       2.517   3.894  -0.001  0.00  0.00    +0.094 A 
ATOM      4  N   UNL     1       2.677   5.202   0.005  0.00  0.00    -0.173 NA
ATOM      5  N   UNL     1       3.924   5.508  -0.005  0.00  0.00    -0.272 N 
ATOM      6  H   UNL     1       4.286   6.440  -0.004  0.00  0.00    +0.189 HD
ENDROOT
BRANCH   3   7
ATOM      7  C   UNL     1       1.224   3.170   0.007  0.00  0.00    +0.010 A 
ATOM      8  C   UNL     1       1.188   1.783   0.000  0.00  0.00    +0.011 A 
ATOM      9  C   UNL     1      -0.013   1.076   0.008  0.00  0.00    +0.005 A 
ATOM     10  C   UNL     1      -1.206   1.736   0.017  0.00  0.00    -0.039 A 
ATOM     11  C   UNL     1      -1.190   3.127   0.030  0.00  0.00    -0.011 A 
ATOM     12  C   UNL     1      -0.001   3.876   0.023  0.00  0.00    -0.008 A 
ATOM     13  C   UNL     1      -0.104   5.274   0.031  0.00  0.00    +0.009 A 
ATOM     14  C   UNL     1      -1.346   5.843   0.046  0.00  0.00    +0.001 A 
ATOM     15  C   UNL     1      -2.516   5.079   0.053  0.00  0.00    +0.004 A 
ATOM     16  C   UNL     1      -2.449   3.719   0.045  0.00  0.00    -0.039 A 
ATOM     17  C   UNL     1      -3.471   2.609   0.049  0.00  0.00    +0.040 C 
ATOM     18  C   UNL     1      -2.651   1.300   0.035  0.00  0.00    +0.040 C 
ENDBRANCH   3   7
BRANCH   1  20
ATOM     19  N   UNL     1       6.887   5.423  -0.033  0.00  0.00    -0.201 N 
ATOM     20  C   UNL     1       6.152   4.293  -0.033  0.00  0.00    +0.281 C 
ATOM     21  O   UNL     1       6.703   3.209  -0.044  0.00  0.00    -0.267 OA
ATOM     22  H   UNL     1       6.447   6.288  -0.024  0.00  0.00    +0.178 HD
BRANCH  19  25
ATOM     23  C   UNL     1       8.310   7.780  -0.032  0.00  0.00    +0.068 C 
ATOM     24  C   UNL     1       8.993   6.437  -0.046  0.00  0.00    +0.065 C 
ATOM     25  N   UNL     1       8.286   5.349  -0.046  0.00  0.00    -0.184 NA
BRANCH  24  26
ATOM     26  C   UNL     1      10.466   6.358  -0.060  0.00  0.00    +0.016 A 
ATOM     27  C   UNL     1      11.231   7.528  -0.066  0.00  0.00    +0.012 A 
ATOM     28  C   UNL     1      12.607   7.448  -0.074  0.00  0.00    +0.021 A 
ATOM     29  C   UNL     1      13.232   6.212  -0.087  0.00  0.00    +0.042 A 
ATOM     30  C   UNL     1      12.482   5.048  -0.086  0.00  0.00    +0.040 A 
ATOM     31  C   UNL     1      11.103   5.114  -0.073  0.00  0.00    +0.051 A 
ATOM     32 CL   UNL     1      10.162   3.655  -0.072  0.00  0.00    -0.083 Cl
ATOM     33 CL   UNL     1      14.966   6.121  -0.105  0.00  0.00    -0.083 Cl
ENDBRANCH  24  26
ENDBRANCH  19  25
ENDBRANCH   1  20
TORSDOF 4
