REMARK  Name = ZINC09404704
REMARK  7 active torsions:
REMARK  status: ('A' for Active; 'I' for Inactive)
REMARK    1  A    between atoms: C_3  and  S_25
REMARK    2  A    between atoms: C_6  and  C_7
REMARK    3  A    between atoms: N_9  and  C_10
REMARK    4  A    between atoms: C_10  and  N_12
REMARK    5  A    between atoms: N_12  and  C_13
REMARK    6  A    between atoms: C_14  and  C_23
REMARK    7  A    between atoms: S_25  and  N_28
REMARK                            x       y       z     vdW  Elec       q    Type
REMARK                         _______ _______ _______ _____ _____    ______ ____
ROOT
ATOM      1  C   UNL     1      -3.119   3.066   4.885  0.00  0.00    +0.250 C 
ATOM      2  O   UNL     1      -3.928   2.303   5.377  0.00  0.00    -0.270 OA
ATOM      3  N   UNL     1      -2.918   4.281   5.433  0.00  0.00    -0.264 N 
ATOM      4  H   UNL     1      -2.273   4.889   5.040  0.00  0.00    +0.157 HD
ENDROOT
BRANCH   1  10
ATOM      5  C   UNL     1      -2.561   1.402   3.117  0.00  0.00    +0.015 A 
ATOM      6  C   UNL     1      -1.846   1.030   1.998  0.00  0.00    +0.029 A 
ATOM      7  C   UNL     1      -0.927   1.900   1.439  0.00  0.00    +0.106 A 
ATOM      8  C   UNL     1      -0.715   3.147   2.002  0.00  0.00    +0.029 A 
ATOM      9  C   UNL     1      -1.427   3.533   3.118  0.00  0.00    +0.015 A 
ATOM     10  C   UNL     1      -2.356   2.660   3.687  0.00  0.00    +0.037 A 
BRANCH   7  11
ATOM     11  S   UNL     1      -0.017   1.417   0.010  0.00  0.00    +0.061 S 
ATOM     12  O   UNL     1       0.002  -0.004   0.002  0.00  0.00    -0.153 OA
ATOM     13  O   UNL     1       1.172   2.195   0.003  0.00  0.00    -0.153 OA
BRANCH  11  14
ATOM     14  N   UNL     1      -0.897   1.885  -1.312  0.00  0.00    -0.177 NA
ATOM     15  C   UNL     1      -1.909   1.071  -2.000  0.00  0.00    +0.109 C 
ATOM     16  C   UNL     1      -2.444   1.906  -3.183  0.00  0.00    +0.018 C 
ATOM     17  C   UNL     1      -1.295   2.918  -3.438  0.00  0.00    +0.018 C 
ATOM     18  C   UNL     1      -0.792   3.186  -1.998  0.00  0.00    +0.109 C 
ENDBRANCH  11  14
ENDBRANCH   7  11
ENDBRANCH   1  10
BRANCH   3  19
ATOM     19  C   UNL     1      -3.615   4.651   6.526  0.00  0.00    +0.141 C 
ATOM     20  S   UNL     1      -4.753   3.577   7.219  0.00  0.00    -0.018 S 
BRANCH  19  21
ATOM     21  N   UNL     1      -3.414   5.866   7.073  0.00  0.00    -0.290 N 
ATOM     22  H   UNL     1      -2.768   6.474   6.680  0.00  0.00    +0.154 HD
BRANCH  21  23
ATOM     23  C   UNL     1      -4.130   6.247   8.198  0.00  0.00    +0.089 A 
ATOM     24  C   UNL     1      -4.061   7.439   8.901  0.00  0.00    +0.084 A 
ATOM     25  C   UNL     1      -4.933   7.597  10.056  0.00  0.00    -0.018 A 
ATOM     26  C   UNL     1      -5.717   6.530  10.328  0.00  0.00    -0.004 A 
ATOM     27  S   UNL     1      -5.323   5.345   9.071  0.00  0.00    -0.077 S 
ATOM     28  C   UNL     1      -6.693   6.375  11.451  0.00  0.00    +0.043 C 
ATOM     29  C   UNL     1      -7.591   7.617  11.518  0.00  0.00    +0.005 C 
ATOM     30  C   UNL     1      -6.928   8.644  12.431  0.00  0.00    +0.001 C 
ATOM     31  C   UNL     1      -5.408   8.545  12.316  0.00  0.00    +0.005 C 
ATOM     32  C   UNL     1      -4.960   8.868  10.895  0.00  0.00    +0.037 C 
BRANCH  24  33
ATOM     33  C   UNL     1      -3.164   8.482   8.502  0.00  0.00    +0.102 C 
ATOM     34  N   UNL     1      -2.453   9.309   8.185  0.00  0.00    -0.191 NA
ENDBRANCH  24  33
ENDBRANCH  21  23
ENDBRANCH  19  21
ENDBRANCH   3  19
TORSDOF 7
