REMARK  Name = ZINC09926883
REMARK  4 active torsions:
REMARK  status: ('A' for Active; 'I' for Inactive)
REMARK    1  A    between atoms: C_4  and  N_7
REMARK    2  A    between atoms: C_8  and  C_10
REMARK    3  A    between atoms: C_10  and  C_11
REMARK    4  A    between atoms: C_23  and  C_25
REMARK                            x       y       z     vdW  Elec       q    Type
REMARK                         _______ _______ _______ _____ _____    ______ ____
ROOT
ATOM      1  C   UNL     1      -1.026   3.243   0.031  0.00  0.00    +0.199 C 
ATOM      2  C   UNL     1      -0.953   4.423   0.982  0.00  0.00    +0.334 C 
ATOM      3  O   UNL     1      -1.923   5.103   1.217  0.00  0.00    -0.248 OA
ATOM      4  O   UNL     1       0.240   4.679   1.555  0.00  0.00    -0.423 OA
ATOM      5  C   UNL     1       1.339   4.583   0.757  0.00  0.00    +0.153 A 
ATOM      6  C   UNL     1       2.544   5.114   1.196  0.00  0.00    +0.048 A 
ATOM      7  C   UNL     1       3.672   5.017   0.405  0.00  0.00    +0.004 A 
ATOM      8  C   UNL     1       3.608   4.391  -0.827  0.00  0.00    +0.002 A 
ATOM      9  C   UNL     1       2.412   3.862  -1.273  0.00  0.00    +0.027 A 
ATOM     10  C   UNL     1       1.275   3.958  -0.485  0.00  0.00    +0.080 A 
ATOM     11  N   UNL     1       0.061   3.424  -0.948  0.00  0.00    -0.250 N 
ATOM     12  C   UNL     1      -0.103   3.088  -2.243  0.00  0.00    +0.252 C 
ATOM     13  O   UNL     1       0.833   3.167  -3.015  0.00  0.00    -0.270 OA
ENDROOT
BRANCH  12  14
ATOM     14  C   UNL     1      -1.420   2.625  -2.725  0.00  0.00    +0.037 A 
ATOM     15  C   UNL     1      -2.235   1.849  -1.898  0.00  0.00    +0.016 A 
ATOM     16  C   UNL     1      -3.466   1.424  -2.350  0.00  0.00    +0.039 A 
ATOM     17  C   UNL     1      -3.891   1.756  -3.627  0.00  0.00    +0.123 A 
ATOM     18  C   UNL     1      -3.083   2.522  -4.455  0.00  0.00    +0.039 A 
ATOM     19  C   UNL     1      -1.853   2.957  -4.010  0.00  0.00    +0.016 A 
ATOM     20  F   UNL     1      -5.095   1.332  -4.068  0.00  0.00    -0.205 F 
ENDBRANCH  12  14
BRANCH   1  21
ATOM     21  C   UNL     1      -0.827   1.936   0.800  0.00  0.00    +0.130 C 
BRANCH  21  23
ATOM     22  N   UNL     1      -0.771  -0.433   0.090  0.00  0.00    -0.285 N 
ATOM     23  C   UNL     1      -0.423   0.845  -0.159  0.00  0.00    +0.220 C 
ATOM     24  O   UNL     1       0.214   1.118  -1.153  0.00  0.00    -0.275 OA
ATOM     25  H   UNL     1      -1.351  -0.641   0.839  0.00  0.00    +0.155 HD
BRANCH  22  29
ATOM     26  C   UNL     1       0.644  -3.491  -2.360  0.00  0.00    +0.000 A 
ATOM     27  C   UNL     1       0.479  -3.713  -1.006  0.00  0.00    +0.002 A 
ATOM     28  C   UNL     1       0.010  -2.701  -0.191  0.00  0.00    +0.023 A 
ATOM     29  C   UNL     1      -0.296  -1.460  -0.733  0.00  0.00    +0.033 A 
ATOM     30  C   UNL     1      -0.134  -1.242  -2.095  0.00  0.00    +0.023 A 
ATOM     31  C   UNL     1       0.340  -2.256  -2.904  0.00  0.00    +0.002 A 
ENDBRANCH  22  29
ENDBRANCH  21  23
ENDBRANCH   1  21
TORSDOF 4
