REMARK  Name = ZINC21085527
REMARK  12 active torsions:
REMARK  status: ('A' for Active; 'I' for Inactive)
REMARK    1  A    between atoms: C_1  and  C_2
REMARK    2  A    between atoms: C_4  and  C_10
REMARK    3  A    between atoms: C_6  and  C_9
REMARK    4  A    between atoms: C_7  and  O_8
REMARK    5  A    between atoms: N_11  and  C_25
REMARK    6  A    between atoms: N_15  and  C_16
REMARK    7  A    between atoms: C_16  and  C_17
REMARK    8  A    between atoms: C_20  and  O_23
REMARK    9  A    between atoms: O_23  and  C_24
REMARK   10  A    between atoms: C_25  and  C_26
REMARK   11  A    between atoms: C_29  and  O_32
REMARK   12  A    between atoms: O_32  and  C_33
REMARK                            x       y       z     vdW  Elec       q    Type
REMARK                         _______ _______ _______ _____ _____    ______ ____
ROOT
ATOM      1  C   UNL     1      -1.932   1.171  -1.313  0.00  0.00    +0.034 C 
ATOM      2  N   UNL     1      -0.555   1.638  -1.101  0.00  0.00    +0.395 N 
ATOM      3  C   UNL     1       0.043   0.995   0.078  0.00  0.00    -0.074 C 
ATOM      4  C   UNL     1      -0.800   1.324   1.314  0.00  0.00    -0.003 C 
ATOM      5  C   UNL     1      -2.243   0.870   1.070  0.00  0.00    +0.081 C 
ATOM      6  N   UNL     1      -2.755   1.517  -0.147  0.00  0.00    -0.307 NA
ATOM      7  H   UNL     1      -0.591   2.721  -0.914  0.00  0.00    -0.079 HD
ENDROOT
BRANCH   1  11
ATOM      8  C   UNL     1      -4.074   0.815  -5.820  0.00  0.00    +0.047 C 
ATOM      9  C   UNL     1      -3.526   1.659  -4.699  0.00  0.00    -0.009 A 
ATOM     10  C   UNL     1      -3.004   1.057  -3.571  0.00  0.00    +0.010 A 
ATOM     11  C   UNL     1      -2.501   1.831  -2.542  0.00  0.00    -0.046 A 
ATOM     12  C   UNL     1      -2.525   3.211  -2.637  0.00  0.00    +0.010 A 
ATOM     13  C   UNL     1      -3.041   3.818  -3.765  0.00  0.00    -0.009 A 
ATOM     14  C   UNL     1      -3.546   3.043  -4.799  0.00  0.00    +0.123 A 
ATOM     15  C   UNL     1      -3.061   5.321  -3.870  0.00  0.00    +0.047 C 
BRANCH  14  16
ATOM     16  O   UNL     1      -4.059   3.638  -5.908  0.00  0.00    -0.506 OA
ATOM     17  H   UNL     1      -4.074   4.735  -5.986  0.00  0.00    +0.292 HD
ENDBRANCH  14  16
ENDBRANCH   1  11
BRANCH   6  18
ATOM     18  C   UNL     1      -4.164   1.170  -0.375  0.00  0.00    +0.118 C 
BRANCH  18  19
ATOM     19  C   UNL     1      -5.027   1.880   0.636  0.00  0.00    -0.033 A 
ATOM     20  C   UNL     1      -5.318   1.272   1.843  0.00  0.00    +0.008 A 
ATOM     21  C   UNL     1      -6.104   1.923   2.774  0.00  0.00    +0.046 A 
ATOM     22  C   UNL     1      -6.611   3.183   2.492  0.00  0.00    +0.120 A 
ATOM     23  C   UNL     1      -6.322   3.789   1.278  0.00  0.00    +0.046 A 
ATOM     24  C   UNL     1      -5.530   3.136   0.352  0.00  0.00    +0.008 A 
BRANCH  22  25
ATOM     25  O   UNL     1      -7.388   3.824   3.404  0.00  0.00    -0.495 OA
ATOM     26  C   UNL     1      -7.644   3.140   4.632  0.00  0.00    +0.277 C 
ENDBRANCH  22  25
ENDBRANCH  18  19
ENDBRANCH   6  18
BRANCH   2  27
ATOM     27  C   UNL     1       0.267   1.413  -2.297  0.00  0.00    -0.040 C 
BRANCH  27  28
ATOM     28  C   UNL     1       1.521   2.244  -2.208  0.00  0.00    -0.064 A 
ATOM     29  C   UNL     1       1.538   3.525  -2.727  0.00  0.00    +0.005 A 
ATOM     30  C   UNL     1       2.685   4.291  -2.642  0.00  0.00    +0.046 A 
ATOM     31  C   UNL     1       3.823   3.769  -2.045  0.00  0.00    +0.120 A 
ATOM     32  C   UNL     1       3.806   2.481  -1.530  0.00  0.00    +0.046 A 
ATOM     33  C   UNL     1       2.655   1.721  -1.613  0.00  0.00    +0.005 A 
BRANCH  31  34
ATOM     34  O   UNL     1       4.954   4.519  -1.965  0.00  0.00    -0.495 OA
ATOM     35  C   UNL     1       4.900   5.836  -2.516  0.00  0.00    +0.277 C 
ENDBRANCH  31  34
ENDBRANCH  27  28
ENDBRANCH   2  27
TORSDOF 8
