REMARK  Name = ZINC59384789
REMARK  5 active torsions:
REMARK  status: ('A' for Active; 'I' for Inactive)
REMARK    1  A    between atoms: C_1  and  C_2
REMARK    2  A    between atoms: C_3  and  C_17
REMARK    3  A    between atoms: C_4  and  C_10
REMARK    4  A    between atoms: N_19  and  N_20
REMARK    5  A    between atoms: C_21  and  C_22
REMARK                            x       y       z     vdW  Elec       q    Type
REMARK                         _______ _______ _______ _____ _____    ______ ____
ROOT
ATOM      1  C   UNL     1       0.658   1.366   0.081  0.00  0.00    +0.061 C 
ATOM      2  C   UNL     1       0.360  -0.111   0.045  0.00  0.00    +0.017 C 
ATOM      3  C   UNL     1      -0.922  -0.528  -0.024  0.00  0.00    +0.057 C 
ATOM      4  C   UNL     1      -1.176  -2.021  -0.058  0.00  0.00    +0.139 C 
ATOM      5  N   UNL     1       0.004  -2.901  -0.013  0.00  0.00    -0.315 N 
ATOM      6  C   UNL     1       1.225  -2.333   0.055  0.00  0.00    +0.135 C 
ATOM      7  S   UNL     1       2.606  -3.343   0.108  0.00  0.00    -0.019 S 
ATOM      8  N   UNL     1       1.392  -1.005   0.077  0.00  0.00    -0.300 N 
ATOM      9  H   UNL     1      -0.095  -3.866  -0.031  0.00  0.00    +0.149 HD
ATOM     10  H   UNL     1       2.297  -0.658   0.122  0.00  0.00    +0.154 HD
ENDROOT
BRANCH   4  11
ATOM     11  C   UNL     1      -1.939  -2.334  -1.319  0.00  0.00    -0.023 A 
ATOM     12  C   UNL     1      -1.292  -2.317  -2.541  0.00  0.00    +0.007 A 
ATOM     13  C   UNL     1      -1.991  -2.604  -3.698  0.00  0.00    +0.020 A 
ATOM     14  C   UNL     1      -3.339  -2.907  -3.634  0.00  0.00    +0.041 A 
ATOM     15  C   UNL     1      -3.987  -2.923  -2.412  0.00  0.00    +0.020 A 
ATOM     16  C   UNL     1      -3.285  -2.642  -1.254  0.00  0.00    +0.007 A 
ATOM     17 CL   UNL     1      -4.219  -3.267  -5.087  0.00  0.00    -0.084 Cl
ENDBRANCH   4  11
BRANCH   3  18
ATOM     18  C   UNL     1      -1.992   0.398  -0.063  0.00  0.00    +0.263 C 
ATOM     19  O   UNL     1      -2.657   0.603   0.937  0.00  0.00    -0.269 OA
ATOM     20  N   UNL     1      -2.275   1.053  -1.206  0.00  0.00    -0.203 N 
ATOM     21  H   UNL     1      -1.795   0.837  -2.021  0.00  0.00    +0.178 HD
BRANCH  20  22
ATOM     22  N   UNL     1      -3.263   2.046  -1.218  0.00  0.00    -0.187 NA
ATOM     23  C   UNL     1      -3.536   2.678  -2.319  0.00  0.00    +0.141 C 
BRANCH  23  24
ATOM     24  C   UNL     1      -4.576   3.723  -2.331  0.00  0.00    +0.030 A 
ATOM     25  C   UNL     1      -4.876   4.400  -3.515  0.00  0.00    +0.012 A 
ATOM     26  C   UNL     1      -5.850   5.377  -3.520  0.00  0.00    +0.001 A 
ATOM     27  C   UNL     1      -6.530   5.687  -2.355  0.00  0.00    +0.003 A 
ATOM     28  C   UNL     1      -6.240   5.022  -1.178  0.00  0.00    +0.039 A 
ATOM     29  C   UNL     1      -5.271   4.037  -1.159  0.00  0.00    +0.132 A 
ATOM     30  F   UNL     1      -4.992   3.384  -0.009  0.00  0.00    -0.205 F 
ENDBRANCH  23  24
ENDBRANCH  20  22
ENDBRANCH   3  18
TORSDOF 4
