REMARK  Name = ZINC09514252
REMARK  10 active torsions:
REMARK  status: ('A' for Active; 'I' for Inactive)
REMARK    1  A    between atoms: C_1  and  C_2
REMARK    2  A    between atoms: C_6  and  S_8
REMARK    3  A    between atoms: S_8  and  N_11
REMARK    4  A    between atoms: N_11  and  C_12
REMARK    5  A    between atoms: C_12  and  C_14
REMARK    6  A    between atoms: C_12  and  C_25
REMARK    7  A    between atoms: C_14  and  C_15
REMARK    8  A    between atoms: N_27  and  C_28
REMARK    9  A    between atoms: C_28  and  C_30
REMARK   10  A    between atoms: C_28  and  C_31
REMARK                            x       y       z     vdW  Elec       q    Type
REMARK                         _______ _______ _______ _____ _____    ______ ____
ROOT
ATOM      1  C   UNL     1      -1.166   5.730  -2.462  0.00  0.00    +0.166 C 
ENDROOT
BRANCH   1   2
ATOM      2  C   UNL     1      -1.312   6.759  -3.554  0.00  0.00    +0.232 C 
ATOM      3  O   UNL     1      -0.603   7.743  -3.558  0.00  0.00    -0.274 OA
ATOM      4  N   UNL     1      -2.229   6.586  -4.525  0.00  0.00    -0.307 N 
ATOM      5  H   UNL     1      -2.796   5.799  -4.522  0.00  0.00    +0.149 HD
BRANCH   4   6
ATOM      6  C   UNL     1      -2.371   7.586  -5.586  0.00  0.00    +0.100 C 
ATOM      7  C   UNL     1      -3.300   8.705  -5.112  0.00  0.00    +0.033 C 
BRANCH   6   8
ATOM      8  C   UNL     1      -2.954   6.936  -6.814  0.00  0.00    -0.025 A 
ATOM      9  C   UNL     1      -2.481   7.278  -8.068  0.00  0.00    +0.008 A 
ATOM     10  C   UNL     1      -3.014   6.683  -9.195  0.00  0.00    +0.041 A 
ATOM     11  C   UNL     1      -4.023   5.744  -9.071  0.00  0.00    +0.158 A 
ATOM     12  C   UNL     1      -4.498   5.401  -7.814  0.00  0.00    +0.159 A 
ATOM     13  C   UNL     1      -3.958   5.995  -6.687  0.00  0.00    +0.046 A 
ATOM     14  F   UNL     1      -5.483   4.484  -7.691  0.00  0.00    -0.202 F 
ATOM     15  F   UNL     1      -4.545   5.162 -10.173  0.00  0.00    -0.202 F 
ENDBRANCH   6   8
ENDBRANCH   4   6
ENDBRANCH   1   2
BRANCH   1  16
ATOM     16  N   UNL     1      -0.110   6.147  -1.536  0.00  0.00    -0.178 NA
ATOM     17  H   UNL     1       0.817   5.932  -1.729  0.00  0.00    +0.149 HD
BRANCH  16  18
ATOM     18  S   UNL     1      -0.497   6.984  -0.161  0.00  0.00    +0.059 S 
ATOM     19  O   UNL     1      -1.334   8.060  -0.562  0.00  0.00    -0.153 OA
ATOM     20  O   UNL     1       0.719   7.186   0.547  0.00  0.00    -0.153 OA
BRANCH  18  26
ATOM     21  C   UNL     1      -5.146   5.226   1.457  0.00  0.00    +0.044 C 
ATOM     22  C   UNL     1      -3.643   5.152   1.540  0.00  0.00    -0.049 A 
ATOM     23  C   UNL     1      -3.041   4.250   2.397  0.00  0.00    +0.003 A 
ATOM     24  C   UNL     1      -1.663   4.179   2.469  0.00  0.00    +0.002 A 
ATOM     25  C   UNL     1      -0.886   5.013   1.688  0.00  0.00    +0.028 A 
ATOM     26  C   UNL     1      -1.487   5.919   0.835  0.00  0.00    +0.106 A 
ATOM     27  C   UNL     1      -2.866   5.991   0.762  0.00  0.00    +0.032 A 
ENDBRANCH  18  26
ENDBRANCH  16  18
ENDBRANCH   1  16
BRANCH   1  28
ATOM     28  C   UNL     1      -0.799   4.380  -3.080  0.00  0.00    +0.067 C 
BRANCH  28  29
ATOM     29  C   UNL     1      -0.770   3.326  -2.003  0.00  0.00    -0.020 A 
ATOM     30  C   UNL     1       0.311   2.905  -1.327  0.00  0.00    +0.087 A 
ATOM     31  N   UNL     1      -0.049   1.940  -0.426  0.00  0.00    -0.360 N 
ATOM     32  H   UNL     1       0.560   1.487   0.178  0.00  0.00    +0.165 HD
ATOM     33  C   UNL     1      -1.403   1.704  -0.509  0.00  0.00    +0.047 A 
ATOM     34  C   UNL     1      -1.914   2.562  -1.500  0.00  0.00    +0.003 A 
ATOM     35  C   UNL     1      -3.276   2.542  -1.804  0.00  0.00    +0.010 A 
ATOM     36  C   UNL     1      -4.108   1.689  -1.135  0.00  0.00    +0.001 A 
ATOM     37  C   UNL     1      -3.609   0.840  -0.156  0.00  0.00    +0.002 A 
ATOM     38  C   UNL     1      -2.268   0.844   0.159  0.00  0.00    +0.026 A 
ENDBRANCH  28  29
ENDBRANCH   1  28
TORSDOF 8
