REMARK  Name = ZINC08764232
REMARK  8 active torsions:
REMARK  status: ('A' for Active; 'I' for Inactive)
REMARK    1  A    between atoms: C_1  and  C_2
REMARK    2  A    between atoms: C_2  and  C_3
REMARK    3  A    between atoms: C_16  and  C_18
REMARK    4  A    between atoms: C_19  and  O_36
REMARK    5  A    between atoms: N_24  and  C_27
REMARK    6  A    between atoms: C_27  and  C_28
REMARK    7  A    between atoms: C_31  and  O_34
REMARK    8  A    between atoms: O_34  and  C_35
REMARK                            x       y       z     vdW  Elec       q    Type
REMARK                         _______ _______ _______ _____ _____    ______ ____
ROOT
ATOM      1  C   UNL     1       0.848   4.089  -0.967  0.00  0.00    +0.068 A 
ATOM      2  C   UNL     1       0.017   5.072  -0.516  0.00  0.00    +0.201 A 
ATOM      3  N   UNL     1      -0.746   5.775  -1.414  0.00  0.00    -0.278 N 
ATOM      4  H   UNL     1      -1.339   6.475  -1.098  0.00  0.00    +0.173 HD
ATOM      5  C   UNL     1      -0.677   5.500  -2.729  0.00  0.00    +0.332 A 
ATOM      6  O   UNL     1      -1.360   6.134  -3.510  0.00  0.00    -0.246 OA
ATOM      7  N   UNL     1       0.137   4.535  -3.193  0.00  0.00    -0.256 N 
ATOM      8  C   UNL     1       0.907   3.824  -2.346  0.00  0.00    +0.262 A 
ATOM      9  O   UNL     1       1.646   2.953  -2.772  0.00  0.00    -0.267 OA
ENDROOT
BRANCH   1  22
ATOM     10  C   UNL     1       3.941   2.447   0.375  0.00  0.00    -0.066 C 
ATOM     11  C   UNL     1       3.629   0.998  -0.022  0.00  0.00    +0.022 C 
ATOM     12  C   UNL     1       2.131   0.827  -0.013  0.00  0.00    -0.022 A 
ATOM     13  C   UNL     1       1.353  -0.405  -0.013  0.00  0.00    +0.003 A 
ATOM     14  C   UNL     1       1.672  -1.764  -0.023  0.00  0.00    +0.010 A 
ATOM     15  C   UNL     1       0.675  -2.698  -0.018  0.00  0.00    +0.001 A 
ATOM     16  C   UNL     1      -0.657  -2.307  -0.003  0.00  0.00    +0.002 A 
ATOM     17  C   UNL     1      -0.996  -0.972   0.006  0.00  0.00    +0.026 A 
ATOM     18  C   UNL     1       0.002  -0.004   0.002  0.00  0.00    +0.047 A 
ATOM     19  N   UNL     1      -0.017   1.374   0.010  0.00  0.00    -0.359 N 
ATOM     20  H   UNL     1      -0.818   1.921   0.017  0.00  0.00    +0.166 HD
ATOM     21  C   UNL     1       1.260   1.856   0.000  0.00  0.00    +0.011 A 
ATOM     22  C   UNL     1       1.696   3.303  -0.000  0.00  0.00    +0.018 C 
ATOM     23  N   UNL     1       3.112   3.371  -0.427  0.00  0.00    +0.390 N 
ATOM     24  H   UNL     1       3.178   3.110  -1.418  0.00  0.00    -0.084 HD
ATOM     25  H   UNL     1       3.457   4.330  -0.301  0.00  0.00    -0.084 HD
BRANCH  10  27
ATOM     26  C   UNL     1       5.758   4.145   0.619  0.00  0.00    +0.002 C 
ATOM     27  C   UNL     1       5.418   2.743   0.108  0.00  0.00    -0.019 C 
ENDBRANCH  10  27
ENDBRANCH   1  22
BRANCH   2  28
ATOM     28  O   UNL     1      -0.054   5.350   0.803  0.00  0.00    -0.493 OA
ATOM     29  H   UNL     1      -0.671   6.062   1.022  0.00  0.00    +0.294 HD
ENDBRANCH   2  28
BRANCH   7  30
ATOM     30  C   UNL     1       0.191   4.258  -4.631  0.00  0.00    +0.165 C 
BRANCH  30  31
ATOM     31  C   UNL     1       1.255   5.114  -5.268  0.00  0.00    -0.027 A 
ATOM     32  C   UNL     1       0.932   6.365  -5.761  0.00  0.00    +0.009 A 
ATOM     33  C   UNL     1       1.907   7.153  -6.340  0.00  0.00    +0.046 A 
ATOM     34  C   UNL     1       3.209   6.685  -6.437  0.00  0.00    +0.120 A 
ATOM     35  C   UNL     1       3.530   5.427  -5.947  0.00  0.00    +0.046 A 
ATOM     36  C   UNL     1       2.553   4.645  -5.363  0.00  0.00    +0.009 A 
BRANCH  34  37
ATOM     37  O   UNL     1       4.169   7.457  -7.011  0.00  0.00    -0.495 OA
ATOM     38  C   UNL     1       3.767   8.741  -7.493  0.00  0.00    +0.277 C 
ENDBRANCH  34  37
ENDBRANCH  30  31
ENDBRANCH   7  30
TORSDOF 6
