REMARK  Name = ZINC03305424
REMARK  12 active torsions:
REMARK  status: ('A' for Active; 'I' for Inactive)
REMARK    1  A    between atoms: C_1  and  C_2
REMARK    2  A    between atoms: C_2  and  C_3
REMARK    3  A    between atoms: C_2  and  C_4
REMARK    4  A    between atoms: C_2  and  C_17
REMARK    5  A    between atoms: C_4  and  N_5
REMARK    6  A    between atoms: N_5  and  C_6
REMARK    7  A    between atoms: C_6  and  N_8
REMARK    8  A    between atoms: N_8  and  C_9
REMARK    9  A    between atoms: C_17  and  N_18
REMARK   10  A    between atoms: N_18  and  C_19
REMARK   11  A    between atoms: C_19  and  N_21
REMARK   12  A    between atoms: N_21  and  C_22
REMARK                            x       y       z     vdW  Elec       q    Type
REMARK                         _______ _______ _______ _____ _____    ______ ____
ROOT
ATOM      1  C   UNL     1      -0.061   4.020   1.063  0.00  0.00    +0.014 C 
ATOM      2  C   UNL     1      -0.962   3.888  -0.166  0.00  0.00    -0.004 C 
ATOM      3  C   UNL     1      -0.222   4.409  -1.400  0.00  0.00    +0.014 C 
ENDROOT
BRANCH   2   4
ATOM      4  C   UNL     1      -1.329   2.418  -0.375  0.00  0.00    +0.111 C 
BRANCH   4   5
ATOM      5  N   UNL     1      -0.109   1.634  -0.578  0.00  0.00    -0.326 N 
ATOM      6  H   UNL     1       0.756   2.072  -0.569  0.00  0.00    +0.148 HD
BRANCH   5   7
ATOM      7  C   UNL     1      -0.188   0.304  -0.783  0.00  0.00    +0.135 C 
ATOM      8  S   UNL     1      -1.715  -0.470  -0.798  0.00  0.00    -0.019 S 
BRANCH   7   9
ATOM      9  N   UNL     1       0.935  -0.416  -0.976  0.00  0.00    -0.296 N 
ATOM     10  H   UNL     1       1.793   0.031  -1.037  0.00  0.00    +0.154 HD
BRANCH   9  11
ATOM     11  C   UNL     1       0.862  -1.810  -1.087  0.00  0.00    +0.051 A 
ATOM     12  C   UNL     1      -0.109  -2.394  -1.890  0.00  0.00    +0.026 A 
ATOM     13  C   UNL     1      -0.179  -3.769  -1.998  0.00  0.00    +0.022 A 
ATOM     14  C   UNL     1       0.717  -4.566  -1.307  0.00  0.00    +0.042 A 
ATOM     15  C   UNL     1       1.686  -3.987  -0.506  0.00  0.00    +0.041 A 
ATOM     16  C   UNL     1       1.764  -2.611  -0.399  0.00  0.00    +0.063 A 
ATOM     17 CL   UNL     1       2.985  -1.886   0.600  0.00  0.00    -0.082 Cl
ATOM     18 CL   UNL     1       0.625  -6.293  -1.446  0.00  0.00    -0.083 Cl
ENDBRANCH   9  11
ENDBRANCH   7   9
ENDBRANCH   5   7
ENDBRANCH   4   5
ENDBRANCH   2   4
BRANCH   2  19
ATOM     19  C   UNL     1      -2.237   4.707   0.046  0.00  0.00    +0.111 C 
BRANCH  19  20
ATOM     20  N   UNL     1      -1.886   6.115   0.245  0.00  0.00    -0.326 N 
ATOM     21  H   UNL     1      -0.956   6.390   0.228  0.00  0.00    +0.148 HD
BRANCH  20  22
ATOM     22  C   UNL     1      -2.855   7.029   0.453  0.00  0.00    +0.135 C 
ATOM     23  S   UNL     1      -4.496   6.544   0.483  0.00  0.00    -0.019 S 
BRANCH  22  24
ATOM     24  N   UNL     1      -2.531   8.324   0.636  0.00  0.00    -0.296 N 
ATOM     25  H   UNL     1      -1.606   8.607   0.571  0.00  0.00    +0.154 HD
BRANCH  24  26
ATOM     26  C   UNL     1      -3.531   9.262   0.922  0.00  0.00    +0.051 A 
ATOM     27  C   UNL     1      -4.590   8.919   1.752  0.00  0.00    +0.026 A 
ATOM     28  C   UNL     1      -5.575   9.845   2.032  0.00  0.00    +0.022 A 
ATOM     29  C   UNL     1      -5.508  11.115   1.486  0.00  0.00    +0.042 A 
ATOM     30  C   UNL     1      -4.455  11.461   0.658  0.00  0.00    +0.041 A 
ATOM     31  C   UNL     1      -3.463  10.539   0.379  0.00  0.00    +0.063 A 
ATOM     32 CL   UNL     1      -2.137  10.975  -0.653  0.00  0.00    -0.082 Cl
ATOM     33 CL   UNL     1      -6.749  12.277   1.840  0.00  0.00    -0.083 Cl
ENDBRANCH  24  26
ENDBRANCH  22  24
ENDBRANCH  20  22
ENDBRANCH  19  20
ENDBRANCH   2  19
TORSDOF 10
