REMARK  Name = ZINC23353606
REMARK  8 active torsions:
REMARK  status: ('A' for Active; 'I' for Inactive)
REMARK    1  A    between atoms: C_1  and  N_2
REMARK    2  A    between atoms: C_5  and  C_7
REMARK    3  A    between atoms: N_9  and  C_10
REMARK    4  A    between atoms: C_10  and  C_11
REMARK    5  A    between atoms: C_19  and  N_23
REMARK    6  A    between atoms: N_23  and  C_24
REMARK    7  A    between atoms: C_24  and  C_25
REMARK    8  A    between atoms: C_25  and  N_30
REMARK                            x       y       z     vdW  Elec       q    Type
REMARK                         _______ _______ _______ _____ _____    ______ ____
ROOT
ATOM      1  C   UNL     1       7.882   4.599  -2.416  0.00  0.00    +0.172 C 
ATOM      2  N   UNL     1       7.205   3.302  -2.481  0.00  0.00    -0.270 N 
ATOM      3  C   UNL     1       5.917   3.088  -2.164  0.00  0.00    +0.043 A 
ATOM      4  C   UNL     1       5.671   1.768  -2.352  0.00  0.00    +0.004 A 
ATOM      5  C   UNL     1       6.880   1.210  -2.799  0.00  0.00    +0.150 A 
ATOM      6  N   UNL     1       7.757   2.198  -2.850  0.00  0.00    -0.166 NA
ATOM      7  C   UNL     1       4.344   1.103  -2.108  0.00  0.00    +0.023 C 
ATOM      8  C   UNL     1       3.484   2.044  -1.254  0.00  0.00    -0.067 C 
ATOM      9  C   UNL     1       3.496   3.447  -1.867  0.00  0.00    -0.009 C 
ATOM     10  C   UNL     1       4.883   4.076  -1.689  0.00  0.00    +0.054 C 
ENDROOT
BRANCH   5  11
ATOM     11  C   UNL     1       7.124  -0.205  -3.144  0.00  0.00    +0.265 C 
ATOM     12  O   UNL     1       6.224  -1.017  -3.052  0.00  0.00    -0.268 OA
ATOM     13  N   UNL     1       8.345  -0.597  -3.562  0.00  0.00    -0.306 N 
ATOM     14  H   UNL     1       9.159   0.138  -3.645  0.00  0.00    +0.149 HD
BRANCH  13  15
ATOM     15  C   UNL     1       8.586  -2.000  -3.904  0.00  0.00    +0.142 C 
BRANCH  15  16
ATOM     16  C   UNL     1      10.019  -2.172  -4.338  0.00  0.00    +0.005 A 
ATOM     17  C   UNL     1      10.932  -2.767  -3.488  0.00  0.00    +0.008 A 
ATOM     18  C   UNL     1      12.247  -2.925  -3.886  0.00  0.00    +0.000 A 
ATOM     19  C   UNL     1      12.650  -2.488  -5.134  0.00  0.00    +0.003 A 
ATOM     20  C   UNL     1      11.739  -1.893  -5.986  0.00  0.00    +0.038 A 
ATOM     21  C   UNL     1      10.421  -1.738  -5.590  0.00  0.00    +0.128 A 
ATOM     22  F   UNL     1       9.528  -1.161  -6.423  0.00  0.00    -0.205 F 
ENDBRANCH  15  16
ENDBRANCH  13  15
ENDBRANCH   5  11
BRANCH   8  23
ATOM     23  N   UNL     1       2.105   1.541  -1.209  0.00  0.00    +0.382 N 
ATOM     24  H   UNL     1       1.555   1.900  -2.092  0.00  0.00    -0.085 HD
ATOM     25  H   UNL     1       2.115   0.441  -1.207  0.00  0.00    -0.085 HD
BRANCH  23  26
ATOM     26  C   UNL     1       1.412   2.008  -0.001  0.00  0.00    -0.060 C 
BRANCH  26  27
ATOM     27  C   UNL     1      -0.018   1.465   0.010  0.00  0.00    +0.007 C 
ATOM     28  C   UNL     1      -0.768   1.976   1.257  0.00  0.00    +0.020 C 
ATOM     29  C   UNL     1      -1.536   3.224   0.752  0.00  0.00    +0.002 C 
ATOM     30  C   UNL     1      -1.983   2.800  -0.668  0.00  0.00    +0.002 C 
ATOM     31  C   UNL     1      -0.790   1.988  -1.214  0.00  0.00    +0.020 C 
BRANCH  27  32
ATOM     32  N   UNL     1       0.002  -0.004   0.002  0.00  0.00    -0.294 NA
ATOM     33  C   UNL     1      -1.362  -0.549  -0.058  0.00  0.00    +0.113 C 
ATOM     34  C   UNL     1      -1.293  -2.077  -0.125  0.00  0.00    +0.175 C 
ATOM     35  O   UNL     1      -0.564  -2.566   1.004  0.00  0.00    -0.377 OA
ATOM     36  C   UNL     1       0.769  -2.056   1.093  0.00  0.00    +0.175 C 
ATOM     37  C   UNL     1       0.721  -0.528   1.173  0.00  0.00    +0.113 C 
ENDBRANCH  27  32
ENDBRANCH  26  27
ENDBRANCH  23  26
ENDBRANCH   8  23
TORSDOF 7
