REMARK  Name = ZINC59166899
REMARK  9 active torsions:
REMARK  status: ('A' for Active; 'I' for Inactive)
REMARK    1  A    between atoms: C_1  and  O_2
REMARK    2  A    between atoms: O_2  and  C_3
REMARK    3  A    between atoms: N_13  and  N_14
REMARK    4  A    between atoms: C_15  and  C_17
REMARK    5  A    between atoms: C_17  and  N_18
REMARK    6  A    between atoms: N_18  and  C_19
REMARK    7  A    between atoms: N_18  and  C_26
REMARK    8  A    between atoms: C_19  and  C_20
REMARK    9  A    between atoms: C_26  and  C_27
REMARK                            x       y       z     vdW  Elec       q    Type
REMARK                         _______ _______ _______ _____ _____    ______ ____
ROOT
ATOM      1  N   UNL     1      -3.538  -5.743  -0.671  0.00  0.00    -0.208 N 
ATOM      2  C   UNL     1      -4.188  -6.908  -0.481  0.00  0.00    +0.216 C 
ATOM      3  O   UNL     1      -5.397  -6.949  -0.566  0.00  0.00    -0.276 OA
ATOM      4  H   UNL     1      -2.571  -5.711  -0.603  0.00  0.00    +0.177 HD
ENDROOT
BRANCH   1  15
ATOM      5  C   UNL     1      -3.412   0.111  -1.862  0.00  0.00    +0.142 A 
ATOM      6  C   UNL     1      -4.717   0.535  -2.050  0.00  0.00    +0.047 A 
ATOM      7  C   UNL     1      -5.769  -0.359  -1.947  0.00  0.00    +0.004 A 
ATOM      8  C   UNL     1      -5.524  -1.687  -1.656  0.00  0.00    +0.012 A 
ATOM      9  C   UNL     1      -4.217  -2.124  -1.466  0.00  0.00    +0.032 A 
ATOM     10  C   UNL     1      -3.148  -1.228  -1.573  0.00  0.00    +0.085 A 
ATOM     11  N   UNL     1      -1.953  -1.907  -1.348  0.00  0.00    -0.277 N 
ATOM     12  C   UNL     1      -2.169  -3.211  -1.101  0.00  0.00    +0.269 C 
ATOM     13  O   UNL     1      -1.316  -4.047  -0.869  0.00  0.00    -0.268 OA
ATOM     14  C   UNL     1      -3.627  -3.445  -1.150  0.00  0.00    +0.153 C 
ATOM     15  N   UNL     1      -4.259  -4.579  -0.965  0.00  0.00    -0.175 NA
ATOM     16  H   UNL     1      -1.077  -1.492  -1.367  0.00  0.00    +0.155 HD
BRANCH   5  18
ATOM     17  C   UNL     1      -2.731   2.353  -2.264  0.00  0.00    +0.277 C 
ATOM     18  O   UNL     1      -2.388   0.999  -1.966  0.00  0.00    -0.493 OA
ENDBRANCH   5  18
ENDBRANCH   1  15
BRANCH   2  19
ATOM     19  C   UNL     1      -3.412  -8.161  -0.164  0.00  0.00    +0.021 C 
BRANCH  19  20
ATOM     20  N   UNL     1      -4.343  -9.286  -0.005  0.00  0.00    +0.391 N 
ATOM     21  H   UNL     1      -5.035  -9.054   0.692  0.00  0.00    -0.080 HD
BRANCH  20  22
ATOM     22  C   UNL     1      -5.010  -9.556  -1.286  0.00  0.00    -0.042 C 
BRANCH  22  23
ATOM     23  C   UNL     1      -6.070 -10.609  -1.089  0.00  0.00    -0.064 A 
ATOM     24  C   UNL     1      -5.784 -11.935  -1.355  0.00  0.00    +0.002 A 
ATOM     25  C   UNL     1      -6.756 -12.901  -1.174  0.00  0.00    +0.000 A 
ATOM     26  C   UNL     1      -8.014 -12.541  -0.727  0.00  0.00    +0.000 A 
ATOM     27  C   UNL     1      -8.299 -11.215  -0.459  0.00  0.00    +0.000 A 
ATOM     28  C   UNL     1      -7.326 -10.249  -0.636  0.00  0.00    +0.002 A 
ENDBRANCH  22  23
ENDBRANCH  20  22
BRANCH  20  29
ATOM     29  C   UNL     1      -3.600 -10.480   0.421  0.00  0.00    -0.042 C 
BRANCH  29  30
ATOM     30  C   UNL     1      -3.023 -10.249   1.794  0.00  0.00    -0.064 A 
ATOM     31  C   UNL     1      -1.726  -9.790   1.930  0.00  0.00    +0.002 A 
ATOM     32  C   UNL     1      -1.196  -9.578   3.189  0.00  0.00    +0.000 A 
ATOM     33  C   UNL     1      -1.964  -9.825   4.312  0.00  0.00    +0.000 A 
ATOM     34  C   UNL     1      -3.261 -10.283   4.176  0.00  0.00    +0.000 A 
ATOM     35  C   UNL     1      -3.792 -10.491   2.917  0.00  0.00    +0.002 A 
ENDBRANCH  29  30
ENDBRANCH  20  29
ENDBRANCH  19  20
ENDBRANCH   2  19
TORSDOF 8
