REMARK  Name = ZINC64622358
REMARK  9 active torsions:
REMARK  status: ('A' for Active; 'I' for Inactive)
REMARK    1  A    between atoms: C_1  and  C_2
REMARK    2  A    between atoms: C_2  and  N_3
REMARK    3  A    between atoms: N_3  and  S_4
REMARK    4  A    between atoms: S_4  and  C_7
REMARK    5  A    between atoms: C_9  and  C_32
REMARK    6  A    between atoms: C_18  and  C_20
REMARK    7  A    between atoms: C_22  and  C_31
REMARK    8  A    between atoms: C_32  and  O_34
REMARK    9  A    between atoms: O_34  and  C_35
REMARK                            x       y       z     vdW  Elec       q    Type
REMARK                         _______ _______ _______ _____ _____    ______ ____
ROOT
ATOM      1  C   UNL     1      -0.219  -4.456  -0.338  0.00  0.00    +0.242 C 
ATOM      2  C   UNL     1       0.013  -5.882  -0.802  0.00  0.00    +0.072 C 
ATOM      3  C   UNL     1      -0.187  -6.179  -2.065  0.00  0.00    -0.041 C 
ATOM      4  C   UNL     1      -0.107  -7.592  -2.642  0.00  0.00    +0.051 C 
ATOM      5  C   UNL     1      -0.177  -7.464  -4.168  0.00  0.00    +0.112 C 
ATOM      6  N   UNL     1      -1.371  -6.713  -4.564  0.00  0.00    -0.298 N 
ATOM      7  C   UNL     1      -1.821  -5.552  -3.782  0.00  0.00    +0.126 C 
ATOM      8  C   UNL     1      -0.615  -5.033  -2.991  0.00  0.00    +0.092 C 
ATOM      9  S   UNL     1      -1.157  -3.769  -1.771  0.00  0.00    -0.119 S 
ATOM     10  C   UNL     1      -2.065  -7.091  -5.656  0.00  0.00    +0.242 C 
ATOM     11  O   UNL     1      -3.107  -6.536  -5.935  0.00  0.00    -0.273 OA
ENDROOT
BRANCH  10  12
ATOM     12  C   UNL     1      -1.548  -8.205  -6.529  0.00  0.00    +0.193 C 
ATOM     13  C   UNL     1      -0.599  -7.653  -7.569  0.00  0.00    -0.033 C 
ATOM     14  C   UNL     1      -1.148  -7.944  -8.770  0.00  0.00    +0.001 A 
ATOM     15  C   UNL     1      -0.720  -7.681 -10.149  0.00  0.00    +0.030 A 
ATOM     16  C   UNL     1      -1.500  -8.105 -11.171  0.00  0.00    +0.042 A 
ATOM     17  C   UNL     1      -2.704  -8.788 -10.945  0.00  0.00    +0.022 A 
ATOM     18  C   UNL     1      -3.163  -9.066  -9.706  0.00  0.00    +0.027 A 
ATOM     19  C   UNL     1      -2.423  -8.666  -8.559  0.00  0.00    +0.043 A 
ATOM     20  N   UNL     1      -2.653  -8.817  -7.276  0.00  0.00    -0.370 N 
ATOM     21 CL   UNL     1      -0.998  -7.795 -12.804  0.00  0.00    -0.084 Cl
ATOM     22  C   UNL     1       0.697  -6.926  -7.318  0.00  0.00    +0.042 C 
ATOM     23  H   UNL     1      -3.423  -9.259  -6.885  0.00  0.00    +0.161 HD
ENDBRANCH  10  12
BRANCH   1  24
ATOM     24  S   UNL     1       1.353  -3.581  -0.104  0.00  0.00    +0.046 S 
ATOM     25  O   UNL     1       2.031  -3.454  -1.346  0.00  0.00    -0.157 OA
ATOM     26  O   UNL     1       2.026  -4.083   1.042  0.00  0.00    -0.157 OA
BRANCH  24  27
ATOM     27  N   UNL     1       0.922  -2.034   0.302  0.00  0.00    -0.193 NA
ATOM     28  H   UNL     1       1.140  -1.299  -0.291  0.00  0.00    +0.148 HD
BRANCH  27  30
ATOM     29  C   UNL     1       0.262  -0.282   1.876  0.00  0.00    +0.022 C 
ATOM     30  C   UNL     1       0.211  -1.778   1.558  0.00  0.00    +0.102 C 
ENDBRANCH  27  30
ENDBRANCH  24  27
ENDBRANCH   1  24
BRANCH   2  31
ATOM     31  C   UNL     1       0.453  -6.914   0.146  0.00  0.00    +0.338 C 
ATOM     32  O   UNL     1       0.636  -8.053  -0.236  0.00  0.00    -0.245 OA
BRANCH  31  33
ATOM     33  O   UNL     1       0.654  -6.598   1.441  0.00  0.00    -0.465 OA
ATOM     34  C   UNL     1       1.082  -7.651   2.308  0.00  0.00    +0.280 C 
ENDBRANCH  31  33
ENDBRANCH   2  31
TORSDOF 6
