REMARK  Name = ZINC55410560
REMARK  5 active torsions:
REMARK  status: ('A' for Active; 'I' for Inactive)
REMARK    1  A    between atoms: C_4  and  N_7
REMARK    2  A    between atoms: N_10  and  C_11
REMARK    3  A    between atoms: C_17  and  C_19
REMARK    4  A    between atoms: C_19  and  S_20
REMARK    5  A    between atoms: S_20  and  C_21
REMARK                            x       y       z     vdW  Elec       q    Type
REMARK                         _______ _______ _______ _____ _____    ______ ____
ROOT
ATOM      1  C   UNL     1       4.691  -3.409  -3.603  0.00  0.00    +0.077 C 
ATOM      2  C   UNL     1       6.102  -3.300  -3.019  0.00  0.00    +0.041 C 
ATOM      3  C   UNL     1       6.750  -4.688  -3.001  0.00  0.00    +0.109 C 
ATOM      4  N   UNL     1       6.701  -5.251  -4.357  0.00  0.00    -0.301 N 
ATOM      5  C   UNL     1       5.405  -5.319  -5.046  0.00  0.00    +0.109 C 
ATOM      6  C   UNL     1       4.771  -3.924  -5.042  0.00  0.00    +0.041 C 
ATOM      7  C   UNL     1       7.822  -5.698  -4.956  0.00  0.00    +0.226 C 
ATOM      8  O   UNL     1       8.886  -5.636  -4.376  0.00  0.00    -0.275 OA
ENDROOT
BRANCH   1  12
ATOM      9  N   UNL     1       2.839  -0.440  -2.473  0.00  0.00    -0.297 N 
ATOM     10  C   UNL     1       3.424  -1.655  -2.483  0.00  0.00    +0.300 C 
ATOM     11  O   UNL     1       3.383  -2.358  -1.492  0.00  0.00    -0.253 OA
ATOM     12  N   UNL     1       4.055  -2.089  -3.592  0.00  0.00    -0.296 N 
ATOM     13  H   UNL     1       2.872   0.121  -3.264  0.00  0.00    +0.151 HD
ATOM     14  H   UNL     1       4.088  -1.528  -4.383  0.00  0.00    +0.151 HD
BRANCH   9  18
ATOM     15  C   UNL     1      -0.019   1.526   0.010  0.00  0.00    +0.000 C 
ATOM     16  C   UNL     1       1.417   2.055  -0.000  0.00  0.00    +0.002 C 
ATOM     17  C   UNL     1       2.133   1.562  -1.259  0.00  0.00    +0.022 C 
ATOM     18  C   UNL     1       2.154   0.032  -1.268  0.00  0.00    +0.074 C 
ATOM     19  C   UNL     1       0.718  -0.497  -1.257  0.00  0.00    +0.022 C 
ATOM     20  C   UNL     1       0.002  -0.004   0.002  0.00  0.00    +0.002 C 
ENDBRANCH   9  18
ENDBRANCH   1  12
BRANCH   7  21
ATOM     21  C   UNL     1       7.755  -6.273  -6.347  0.00  0.00    +0.173 C 
BRANCH  21  22
ATOM     22  S   UNL     1       9.415  -6.781  -6.873  0.00  0.00    -0.042 S 
BRANCH  22  23
ATOM     23  C   UNL     1       9.164  -7.443  -8.543  0.00  0.00    +0.444 C 
ATOM     24  F   UNL     1       8.633  -6.443  -9.366  0.00  0.00    -0.160 F 
ATOM     25  F   UNL     1      10.389  -7.873  -9.063  0.00  0.00    -0.160 F 
ATOM     26  F   UNL     1       8.275  -8.522  -8.488  0.00  0.00    -0.160 F 
ENDBRANCH  22  23
ENDBRANCH  21  22
ENDBRANCH   7  21
TORSDOF 5
