REMARK  Name = ZINC50429819
REMARK  6 active torsions:
REMARK  status: ('A' for Active; 'I' for Inactive)
REMARK    1  A    between atoms: C_1  and  C_2
REMARK    2  A    between atoms: C_5  and  C_18
REMARK    3  A    between atoms: C_7  and  N_8
REMARK    4  A    between atoms: N_8  and  S_9
REMARK    5  A    between atoms: S_9  and  C_12
REMARK    6  A    between atoms: C_18  and  N_20
REMARK                            x       y       z     vdW  Elec       q    Type
REMARK                         _______ _______ _______ _____ _____    ______ ____
ROOT
ATOM      1  C   UNL     1      -0.018   1.503   0.010  0.00  0.00    +0.046 C 
ATOM      2  C   UNL     1       0.002  -0.004   0.002  0.00  0.00    -0.026 A 
ATOM      3  C   UNL     1       0.006  -0.686  -1.200  0.00  0.00    +0.006 A 
ATOM      4  C   UNL     1       0.025  -2.066  -1.216  0.00  0.00    +0.010 A 
ATOM      5  C   UNL     1       0.041  -2.778  -0.015  0.00  0.00    +0.005 A 
ATOM      6  C   UNL     1       0.037  -2.090   1.198  0.00  0.00    +0.037 A 
ATOM      7  C   UNL     1       0.023  -0.703   1.203  0.00  0.00    +0.077 A 
ENDROOT
BRANCH   5   8
ATOM      8  C   UNL     1       0.061  -4.254  -0.029  0.00  0.00    +0.077 C 
ATOM      9  S   UNL     1       0.929  -5.110   1.173  0.00  0.00    -0.035 S 
BRANCH   8  10
ATOM     10  N   UNL     1      -0.605  -4.928  -0.988  0.00  0.00    -0.352 N 
ATOM     11  H   UNL     1      -1.097  -4.443  -1.669  0.00  0.00    +0.143 HD
ATOM     12  H   UNL     1      -0.592  -5.898  -0.998  0.00  0.00    +0.143 HD
ENDBRANCH   8  10
ENDBRANCH   5   8
BRANCH   7  13
ATOM     13  N   UNL     1       0.025  -0.009   2.416  0.00  0.00    -0.102 NA
BRANCH  13  14
ATOM     14  S   UNL     1       0.049  -0.841   3.847  0.00  0.00    +0.065 S 
ATOM     15  O   UNL     1      -1.175  -1.562   3.868  0.00  0.00    -0.153 OA
ATOM     16  O   UNL     1       1.294  -1.527   3.845  0.00  0.00    -0.153 OA
BRANCH  14  17
ATOM     17  C   UNL     1       0.043   0.440   5.131  0.00  0.00    +0.153 C 
ATOM     18  C   UNL     1       1.210   1.402   4.897  0.00  0.00    +0.028 C 
ATOM     19  C   UNL     1       1.204   2.482   5.981  0.00  0.00    +0.002 C 
ATOM     20  C   UNL     1       1.352   1.827   7.356  0.00  0.00    +0.000 C 
ATOM     21  C   UNL     1       0.186   0.864   7.589  0.00  0.00    +0.002 C 
ATOM     22  C   UNL     1       0.191  -0.216   6.506  0.00  0.00    +0.028 C 
ENDBRANCH  14  17
ENDBRANCH  13  14
ENDBRANCH   7  13
TORSDOF 5
