REMARK  Name = ZINC05721366
REMARK  4 active torsions:
REMARK  status: ('A' for Active; 'I' for Inactive)
REMARK    1  A    between atoms: C_1  and  S_2
REMARK    2  A    between atoms: S_2  and  C_3
REMARK    3  A    between atoms: C_6  and  C_9
REMARK    4  A    between atoms: N_10  and  N_11
REMARK                            x       y       z     vdW  Elec       q    Type
REMARK                         _______ _______ _______ _____ _____    ______ ____
ROOT
ATOM      1  N   UNL     1       4.363   7.608   0.003  0.00  0.00    -0.204 N 
ATOM      2  C   UNL     1       3.597   6.455   0.003  0.00  0.00    +0.256 A 
ATOM      3  N   UNL     1       2.274   6.554   0.016  0.00  0.00    -0.192 NA
ATOM      4  C   UNL     1       1.539   5.447   0.016  0.00  0.00    +0.163 A 
ATOM      5  C   UNL     1       2.203   4.203   0.004  0.00  0.00    +0.137 A 
ATOM      6  C   UNL     1       1.152   3.172   0.008  0.00  0.00    +0.029 A 
ATOM      7  C   UNL     1       1.173   1.779   0.000  0.00  0.00    +0.012 A 
ATOM      8  C   UNL     1      -0.013   1.076   0.008  0.00  0.00    +0.001 A 
ATOM      9  C   UNL     1      -1.224   1.750   0.017  0.00  0.00    +0.002 A 
ATOM     10  C   UNL     1      -1.259   3.128   0.030  0.00  0.00    +0.026 A 
ATOM     11  C   UNL     1      -0.073   3.856   0.022  0.00  0.00    +0.050 A 
ATOM     12  N   UNL     1       0.185   5.217   0.027  0.00  0.00    -0.338 N 
ATOM     13  H   UNL     1      -0.494   5.909   0.038  0.00  0.00    +0.167 HD
ATOM     14  N   UNL     1       3.528   4.172  -0.008  0.00  0.00    -0.142 NA
ATOM     15  N   UNL     1       4.200   5.271  -0.008  0.00  0.00    -0.111 NA
ATOM     16  H   UNL     1       3.933   8.477   0.011  0.00  0.00    +0.177 HD
ENDROOT
BRANCH   1  18
ATOM     17  C   UNL     1       6.481   8.600  -0.011  0.00  0.00    +0.138 C 
ATOM     18  N   UNL     1       5.762   7.519  -0.010  0.00  0.00    -0.188 NA
BRANCH  17  22
ATOM     19  C   UNL     1      10.718   8.331  -0.049  0.00  0.00    +0.008 A 
ATOM     20  C   UNL     1      10.102   9.578  -0.037  0.00  0.00    +0.015 A 
ATOM     21  C   UNL     1       8.727   9.669  -0.025  0.00  0.00    +0.010 A 
ATOM     22  C   UNL     1       7.952   8.507  -0.024  0.00  0.00    -0.005 A 
ATOM     23  C   UNL     1       8.574   7.255  -0.031  0.00  0.00    +0.010 A 
ATOM     24  C   UNL     1       9.949   7.171  -0.048  0.00  0.00    +0.015 A 
BRANCH  19  26
ATOM     25  C   UNL     1      12.803   6.435  -0.076  0.00  0.00    +0.090 C 
ATOM     26  S   UNL     1      12.476   8.219  -0.064  0.00  0.00    -0.129 S 
ENDBRANCH  19  26
ENDBRANCH  17  22
ENDBRANCH   1  18
TORSDOF 3
