REMARK  Name = ZINC19893116
REMARK  4 active torsions:
REMARK  status: ('A' for Active; 'I' for Inactive)
REMARK    1  A    between atoms: C_1  and  C_2
REMARK    2  A    between atoms: C_2  and  C_17
REMARK    3  A    between atoms: N_3  and  N_4
REMARK    4  A    between atoms: C_5  and  C_7
REMARK                            x       y       z     vdW  Elec       q    Type
REMARK                         _______ _______ _______ _____ _____    ______ ____
ROOT
ATOM      1  N   UNL     1      -4.090   1.458   4.386  0.00  0.00    -0.201 N 
ATOM      2  C   UNL     1      -3.032   1.537   3.555  0.00  0.00    +0.284 C 
ATOM      3  O   UNL     1      -1.938   1.839   3.991  0.00  0.00    -0.267 OA
ATOM      4  H   UNL     1      -5.080   1.185   3.991  0.00  0.00    +0.178 HD
ENDROOT
BRANCH   2   5
ATOM      5  C   UNL     1      -3.201   1.258   2.115  0.00  0.00    +0.152 A 
ATOM      6  C   UNL     1      -2.201   1.300   1.128  0.00  0.00    +0.005 A 
ATOM      7  C   UNL     1      -2.814   0.977  -0.037  0.00  0.00    +0.040 A 
ATOM      8  N   UNL     1      -4.109   0.753   0.243  0.00  0.00    -0.281 N 
ATOM      9  H   UNL     1      -4.805   0.471  -0.561  0.00  0.00    +0.189 HD
ATOM     10  N   UNL     1      -4.324   0.921   1.502  0.00  0.00    -0.169 NA
ATOM     11  C   UNL     1      -2.107   0.904  -1.366  0.00  0.00    +0.055 C 
ATOM     12  C   UNL     1      -0.766   1.638  -1.240  0.00  0.00    +0.006 C 
ATOM     13  C   UNL     1      -0.019   1.136  -0.001  0.00  0.00    +0.005 C 
ATOM     14  C   UNL     1      -0.739   1.623   1.264  0.00  0.00    +0.039 C 
ENDBRANCH   2   5
BRANCH   1  17
ATOM     15  C   UNL     1      -6.306   1.273   6.012  0.00  0.00    +0.068 C 
ATOM     16  C   UNL     1      -4.950   1.646   6.553  0.00  0.00    +0.064 C 
ATOM     17  N   UNL     1      -3.930   1.723   5.752  0.00  0.00    -0.184 NA
BRANCH  16  18
ATOM     18  C   UNL     1      -4.781   1.924   7.987  0.00  0.00    +0.005 A 
ATOM     19  C   UNL     1      -5.880   1.959   8.838  0.00  0.00    +0.010 A 
ATOM     20  C   UNL     1      -5.718   2.221  10.191  0.00  0.00    +0.001 A 
ATOM     21  C   UNL     1      -4.492   2.454  10.735  0.00  0.00    +0.008 A 
ATOM     22  C   UNL     1      -3.337   2.434   9.936  0.00  0.00    -0.017 A 
ATOM     23  C   UNL     1      -3.454   2.164   8.550  0.00  0.00    -0.009 A 
ATOM     24  C   UNL     1      -2.306   2.150   7.749  0.00  0.00    +0.009 A 
ATOM     25  C   UNL     1      -1.087   2.386   8.313  0.00  0.00    +0.001 A 
ATOM     26  C   UNL     1      -0.968   2.646   9.676  0.00  0.00    +0.001 A 
ATOM     27  C   UNL     1      -2.064   2.673  10.483  0.00  0.00    +0.008 A 
ENDBRANCH  16  18
ENDBRANCH   1  17
TORSDOF 3
