REMARK  Name = ZINC09590945
REMARK  4 active torsions:
REMARK  status: ('A' for Active; 'I' for Inactive)
REMARK    1  A    between atoms: C_10  and  S_13
REMARK    2  A    between atoms: S_13  and  C_14
REMARK    3  A    between atoms: C_14  and  C_15
REMARK    4  A    between atoms: C_23  and  C_26
REMARK                            x       y       z     vdW  Elec       q    Type
REMARK                         _______ _______ _______ _____ _____    ______ ____
ROOT
ATOM      1  C   UNL     1       8.036   2.376  -0.776  0.00  0.00    +0.001 A 
ATOM      2  C   UNL     1       8.537   3.285   0.139  0.00  0.00    +0.002 A 
ATOM      3  C   UNL     1       7.685   3.959   0.996  0.00  0.00    +0.024 A 
ATOM      4  C   UNL     1       6.323   3.723   0.939  0.00  0.00    +0.039 A 
ATOM      5  C   UNL     1       5.813   2.787   0.021  0.00  0.00    +0.028 A 
ATOM      6  C   UNL     1       6.679   2.123  -0.839  0.00  0.00    +0.012 A 
ATOM      7  C   UNL     1       4.357   2.533   0.002  0.00  0.00    +0.156 A 
ATOM      8  C   UNL     1       3.458   3.624  -0.011  0.00  0.00    +0.248 A 
ATOM      9  N   UNL     1       2.159   3.376  -0.023  0.00  0.00    -0.184 NA
ATOM     10  C   UNL     1       1.737   2.115  -0.015  0.00  0.00    +0.213 A 
ATOM     11  N   UNL     1       2.598   1.105  -0.007  0.00  0.00    -0.122 NA
ATOM     12  N   UNL     1       3.871   1.302   0.001  0.00  0.00    -0.141 NA
ATOM     13  O   UNL     1       3.934   4.892  -0.018  0.00  0.00    -0.449 OA
ATOM     14  C   UNL     1       4.521   5.377   1.184  0.00  0.00    +0.295 C 
ATOM     15  N   UNL     1       5.432   4.402   1.775  0.00  0.00    -0.305 N 
ATOM     16  H   UNL     1       5.419   4.228   2.729  0.00  0.00    +0.150 HD
ENDROOT
BRANCH  14  17
ATOM     17  C   UNL     1       5.284   6.641   0.882  0.00  0.00    +0.029 A 
ATOM     18  C   UNL     1       6.280   7.082   1.740  0.00  0.00    +0.012 A 
ATOM     19  C   UNL     1       6.959   8.248   1.420  0.00  0.00    +0.020 A 
ATOM     20  C   UNL     1       6.616   8.932   0.269  0.00  0.00    +0.111 A 
ATOM     21  N   UNL     1       5.660   8.486  -0.521  0.00  0.00    -0.263 NA
ATOM     22  C   UNL     1       4.996   7.379  -0.251  0.00  0.00    +0.119 A 
ENDBRANCH  14  17
BRANCH  10  23
ATOM     23  S   UNL     1       0.007   1.779  -0.023  0.00  0.00    -0.080 S 
BRANCH  23  24
ATOM     24  C   UNL     1       0.038  -0.030  -0.016  0.00  0.00    +0.112 C 
BRANCH  24  25
ATOM     25  C   UNL     1      -1.374  -0.557  -0.021  0.00  0.00    -0.037 A 
ATOM     26  C   UNL     1      -2.025  -0.799   1.173  0.00  0.00    +0.006 A 
ATOM     27  C   UNL     1      -3.322  -1.277   1.169  0.00  0.00    +0.020 A 
ATOM     28  C   UNL     1      -3.965  -1.523  -0.031  0.00  0.00    +0.041 A 
ATOM     29  C   UNL     1      -3.310  -1.285  -1.227  0.00  0.00    +0.020 A 
ATOM     30  C   UNL     1      -2.015  -0.802  -1.221  0.00  0.00    +0.006 A 
ATOM     31 CL   UNL     1      -5.591  -2.129  -0.037  0.00  0.00    -0.084 Cl
ENDBRANCH  24  25
ENDBRANCH  23  24
ENDBRANCH  10  23
TORSDOF 4
