REMARK  Name = ZINC14460889
REMARK  4 active torsions:
REMARK  status: ('A' for Active; 'I' for Inactive)
REMARK    1  A    between atoms: C_3  and  O_28
REMARK    2  A    between atoms: C_4  and  C_8
REMARK    3  A    between atoms: C_19  and  N_25
REMARK    4  A    between atoms: C_21  and  O_24
REMARK                            x       y       z     vdW  Elec       q    Type
REMARK                         _______ _______ _______ _____ _____    ______ ____
ROOT
ATOM      1  C   UNL     1      -2.516   0.983   0.010  0.00  0.00    +0.109 C 
ATOM      2  C   UNL     1      -2.955   0.728  -1.433  0.00  0.00    +0.029 C 
ATOM      3  C   UNL     1      -3.347   2.096  -2.061  0.00  0.00    +0.033 C 
ATOM      4  C   UNL     1      -4.771   2.309  -1.587  0.00  0.00    -0.030 C 
ATOM      5  C   UNL     1      -5.316   1.171  -1.240  0.00  0.00    -0.023 C 
ATOM      6  C   UNL     1      -4.334   0.036  -1.424  0.00  0.00    +0.049 C 
ATOM      7  C   UNL     1      -4.449  -0.949  -0.298  0.00  0.00    -0.014 A 
ATOM      8  C   UNL     1      -5.580  -1.758  -0.253  0.00  0.00    +0.039 A 
ATOM      9  C   UNL     1      -5.748  -2.678   0.760  0.00  0.00    +0.130 A 
ATOM     10  C   UNL     1      -4.787  -2.806   1.747  0.00  0.00    +0.080 A 
ATOM     11  C   UNL     1      -3.658  -2.010   1.711  0.00  0.00    +0.140 A 
ATOM     12  C   UNL     1      -3.486  -1.076   0.684  0.00  0.00    +0.074 A 
ATOM     13  N   UNL     1      -2.325  -0.298   0.693  0.00  0.00    -0.334 N 
ATOM     14  H   UNL     1      -1.990  -0.159   1.634  0.00  0.00    +0.147 HD
ENDROOT
BRANCH   1  18
ATOM     15  C   UNL     1       1.163   3.163   0.025  0.00  0.00    +0.019 A 
ATOM     16  C   UNL     1       1.158   1.824  -0.319  0.00  0.00    +0.047 A 
ATOM     17  C   UNL     1      -0.034   1.116  -0.328  0.00  0.00    +0.122 A 
ATOM     18  C   UNL     1      -1.220   1.752   0.013  0.00  0.00    +0.015 A 
ATOM     19  C   UNL     1      -1.211   3.091   0.350  0.00  0.00    +0.024 A 
ATOM     20  C   UNL     1      -0.021   3.796   0.359  0.00  0.00    +0.018 A 
ATOM     21 BR   UNL     1      -0.011   5.628   0.828  0.00  0.00    -0.050 Br
BRANCH  17  22
ATOM     22  O   UNL     1      -0.041  -0.201  -0.665  0.00  0.00    -0.506 OA
ATOM     23  H   UNL     1       0.159  -0.796   0.070  0.00  0.00    +0.292 HD
ENDBRANCH  17  22
ENDBRANCH   1  18
BRANCH   9  24
ATOM     24  N   UNL     1      -6.959  -3.529   0.792  0.00  0.00    +0.057 N 
ATOM     25  O   UNL     1      -7.805  -3.417  -0.077  0.00  0.00    -0.126 OA
ATOM     26  O   UNL     1      -7.108  -4.342   1.687  0.00  0.00    -0.126 OA
ENDBRANCH   9  24
BRANCH  11  27
ATOM     27  O   UNL     1      -2.710  -2.135   2.678  0.00  0.00    -0.505 OA
ATOM     28  H   UNL     1      -2.850  -1.560   3.443  0.00  0.00    +0.292 HD
ENDBRANCH  11  27
TORSDOF 4
