REMARK  Name = ZINC20367365
REMARK  10 active torsions:
REMARK  status: ('A' for Active; 'I' for Inactive)
REMARK    1  A    between atoms: C_1  and  C_2
REMARK    2  A    between atoms: C_5  and  C_8
REMARK    3  A    between atoms: C_8  and  O_9
REMARK    4  A    between atoms: O_9  and  C_10
REMARK    5  A    between atoms: C_13  and  C_16
REMARK    6  A    between atoms: C_19  and  C_30
REMARK    7  A    between atoms: C_25  and  N_29
REMARK    8  A    between atoms: C_26  and  C_27
REMARK    9  A    between atoms: C_33  and  O_36
REMARK   10  A    between atoms: O_36  and  C_37
REMARK                            x       y       z     vdW  Elec       q    Type
REMARK                         _______ _______ _______ _____ _____    ______ ____
ROOT
ATOM      1  C   UNL     1       2.223 -10.308  -0.067  0.00  0.00    +0.102 C 
ATOM      2  C   UNL     1       3.010 -10.700  -1.291  0.00  0.00    +0.054 A 
ATOM      3  C   UNL     1       2.604 -10.740  -2.628  0.00  0.00    +0.100 A 
ATOM      4  N   UNL     1       3.631 -11.142  -3.352  0.00  0.00    -0.171 NA
ATOM      5  N   UNL     1       4.717 -11.368  -2.492  0.00  0.00    -0.246 N 
ATOM      6  H   UNL     1       5.600 -11.669  -2.756  0.00  0.00    +0.192 HD
ATOM      7  C   UNL     1       4.316 -11.092  -1.234  0.00  0.00    +0.223 A 
ATOM      8  O   UNL     1       5.008 -11.163  -0.070  0.00  0.00    -0.423 OA
ATOM      9  C   UNL     1       4.307 -11.101   1.080  0.00  0.00    +0.200 C 
ATOM     10  C   UNL     1       3.012 -10.715   1.152  0.00  0.00    +0.098 C 
ENDROOT
BRANCH   1  14
ATOM     11  C   UNL     1       1.608  -6.079  -0.040  0.00  0.00    +0.121 A 
ATOM     12  C   UNL     1       0.520  -6.939  -0.044  0.00  0.00    +0.046 A 
ATOM     13  C   UNL     1       0.721  -8.306  -0.053  0.00  0.00    +0.008 A 
ATOM     14  C   UNL     1       2.006  -8.817  -0.058  0.00  0.00    -0.034 A 
ATOM     15  C   UNL     1       3.092  -7.961  -0.053  0.00  0.00    +0.008 A 
ATOM     16  C   UNL     1       2.896  -6.594  -0.050  0.00  0.00    +0.046 A 
BRANCH  11  17
ATOM     17  O   UNL     1       1.413  -4.734  -0.032  0.00  0.00    -0.487 OA
BRANCH  17  18
ATOM     18  C   UNL     1       0.059  -4.275  -0.021  0.00  0.00    +0.264 C 
BRANCH  18  23
ATOM     19  C   UNL     1      -0.018   1.503   0.010  0.00  0.00    +0.044 C 
ATOM     20  C   UNL     1       0.002  -0.004   0.002  0.00  0.00    -0.050 A 
ATOM     21  C   UNL     1       0.006  -0.689  -1.199  0.00  0.00    +0.004 A 
ATOM     22  C   UNL     1       0.025  -2.071  -1.206  0.00  0.00    +0.007 A 
ATOM     23  C   UNL     1       0.040  -2.768  -0.013  0.00  0.00    -0.010 A 
ATOM     24  C   UNL     1       0.037  -2.084   1.188  0.00  0.00    +0.007 A 
ATOM     25  C   UNL     1       0.023  -0.702   1.195  0.00  0.00    +0.004 A 
ENDBRANCH  18  23
ENDBRANCH  17  18
ENDBRANCH  11  17
ENDBRANCH   1  14
BRANCH   3  26
ATOM     26  C   UNL     1       1.256 -10.393  -3.142  0.00  0.00    +0.003 A 
ATOM     27  C   UNL     1       0.123 -10.678  -2.381  0.00  0.00    +0.013 A 
ATOM     28  C   UNL     1      -1.128 -10.354  -2.862  0.00  0.00    +0.046 A 
ATOM     29  C   UNL     1      -1.261  -9.745  -4.102  0.00  0.00    +0.120 A 
ATOM     30  C   UNL     1      -0.135  -9.460  -4.862  0.00  0.00    +0.046 A 
ATOM     31  C   UNL     1       1.120  -9.776  -4.384  0.00  0.00    +0.013 A 
BRANCH  29  32
ATOM     32  O   UNL     1      -2.495  -9.427  -4.572  0.00  0.00    -0.495 OA
ATOM     33  C   UNL     1      -2.559  -8.801  -5.856  0.00  0.00    +0.277 C 
ENDBRANCH  29  32
ENDBRANCH   3  26
BRANCH   9  34
ATOM     34  N   UNL     1       4.943 -11.449   2.246  0.00  0.00    -0.328 N 
ATOM     35  H   UNL     1       5.871 -11.730   2.226  0.00  0.00    +0.145 HD
ATOM     36  H   UNL     1       4.464 -11.414   3.089  0.00  0.00    +0.145 HD
ENDBRANCH   9  34
BRANCH  10  37
ATOM     37  C   UNL     1       2.368 -10.692   2.431  0.00  0.00    +0.101 C 
ATOM     38  N   UNL     1       1.857 -10.674   3.445  0.00  0.00    -0.191 NA
ENDBRANCH  10  37
TORSDOF 8
