REMARK  Name = ZINC44839450
REMARK  10 active torsions:
REMARK  status: ('A' for Active; 'I' for Inactive)
REMARK    1  A    between atoms: C_4  and  C_7
REMARK    2  A    between atoms: C_7  and  C_8
REMARK    3  A    between atoms: C_8  and  N_9
REMARK    4  A    between atoms: N_18  and  C_21
REMARK    5  A    between atoms: C_21  and  C_22
REMARK    6  A    between atoms: N_24  and  C_25
REMARK    7  A    between atoms: C_25  and  C_26
REMARK    8  A    between atoms: C_26  and  C_27
REMARK    9  A    between atoms: C_30  and  S_33
REMARK   10  A    between atoms: S_33  and  N_36
REMARK                            x       y       z     vdW  Elec       q    Type
REMARK                         _______ _______ _______ _____ _____    ______ ____
ROOT
ATOM      1  N   UNL     1       5.450  -1.678   1.382  0.00  0.00    -0.260 N 
ATOM      2  C   UNL     1       5.453  -3.029   1.370  0.00  0.00    +0.264 A 
ATOM      3  O   UNL     1       4.411  -3.655   1.372  0.00  0.00    -0.267 OA
ATOM      4  C   UNL     1       6.753  -3.724   1.352  0.00  0.00    +0.063 A 
ATOM      5  C   UNL     1       6.840  -5.114   1.338  0.00  0.00    +0.015 A 
ATOM      6  C   UNL     1       8.081  -5.717   1.322  0.00  0.00    +0.001 A 
ATOM      7  C   UNL     1       9.234  -4.948   1.319  0.00  0.00    +0.002 A 
ATOM      8  C   UNL     1       9.162  -3.569   1.333  0.00  0.00    +0.027 A 
ATOM      9  C   UNL     1       7.923  -2.946   1.349  0.00  0.00    +0.059 A 
ATOM     10  N   UNL     1       7.806  -1.563   1.363  0.00  0.00    -0.284 N 
ATOM     11  C   UNL     1       6.595  -0.979   1.373  0.00  0.00    +0.333 A 
ATOM     12  O   UNL     1       6.535   0.235   1.381  0.00  0.00    -0.246 OA
ENDROOT
BRANCH   1  13
ATOM     13  C   UNL     1       4.171  -0.963   1.399  0.00  0.00    +0.134 C 
BRANCH  13  14
ATOM     14  C   UNL     1       3.711  -0.707  -0.038  0.00  0.00    +0.057 C 
BRANCH  14  18
ATOM     15  C   UNL     1      -0.017   1.378   0.010  0.00  0.00    +0.000 A 
ATOM     16  C   UNL     1       1.171   2.086   0.002  0.00  0.00    +0.000 A 
ATOM     17  C   UNL     1       2.377   1.411  -0.013  0.00  0.00    +0.004 A 
ATOM     18  C   UNL     1       2.396   0.029  -0.020  0.00  0.00    -0.046 A 
ATOM     19  C   UNL     1       1.208  -0.679  -0.012  0.00  0.00    +0.004 A 
ATOM     20  C   UNL     1       0.002  -0.004   0.002  0.00  0.00    +0.000 A 
ENDBRANCH  14  18
ENDBRANCH  13  14
ENDBRANCH   1  13
BRANCH  10  21
ATOM     21  C   UNL     1       9.012  -0.733   1.361  0.00  0.00    +0.222 C 
BRANCH  21  22
ATOM     22  C   UNL     1       9.415  -0.435  -0.061  0.00  0.00    +0.233 C 
ATOM     23  O   UNL     1       8.758  -0.873  -0.981  0.00  0.00    -0.274 OA
ATOM     24  N   UNL     1      10.504   0.319  -0.309  0.00  0.00    -0.314 N 
ATOM     25  H   UNL     1      11.029   0.670   0.427  0.00  0.00    +0.149 HD
BRANCH  24  26
ATOM     26  C   UNL     1      10.895   0.609  -1.691  0.00  0.00    +0.109 C 
BRANCH  26  27
ATOM     27  C   UNL     1      12.155   1.476  -1.693  0.00  0.00    +0.054 C 
BRANCH  27  28
ATOM     28  C   UNL     1      12.557   1.774  -3.115  0.00  0.00    -0.046 A 
ATOM     29  C   UNL     1      13.416   0.922  -3.783  0.00  0.00    +0.005 A 
ATOM     30  C   UNL     1      13.785   1.195  -5.087  0.00  0.00    +0.029 A 
ATOM     31  C   UNL     1      13.295   2.320  -5.723  0.00  0.00    +0.105 A 
ATOM     32  C   UNL     1      12.435   3.172  -5.054  0.00  0.00    +0.029 A 
ATOM     33  C   UNL     1      12.063   2.897  -3.752  0.00  0.00    +0.005 A 
BRANCH  31  34
ATOM     34  S   UNL     1      13.766   2.669  -7.384  0.00  0.00    +0.056 S 
ATOM     35  O   UNL     1      13.603   4.069  -7.567  0.00  0.00    -0.153 OA
ATOM     36  O   UNL     1      15.007   2.012  -7.601  0.00  0.00    -0.153 OA
BRANCH  34  37
ATOM     37  N   UNL     1      12.661   1.931  -8.372  0.00  0.00    -0.204 NA
ATOM     38  H   UNL     1      12.454   2.312  -9.239  0.00  0.00    +0.144 HD
ATOM     39  H   UNL     1      12.220   1.116  -8.083  0.00  0.00    +0.144 HD
ENDBRANCH  34  37
ENDBRANCH  31  34
ENDBRANCH  27  28
ENDBRANCH  26  27
ENDBRANCH  24  26
ENDBRANCH  21  22
ENDBRANCH  10  21
TORSDOF 10
