REMARK  Name = ZINC38790169
REMARK  8 active torsions:
REMARK  status: ('A' for Active; 'I' for Inactive)
REMARK    1  A    between atoms: C_1  and  C_2
REMARK    2  A    between atoms: C_4  and  N_24
REMARK    3  A    between atoms: C_7  and  N_8
REMARK    4  A    between atoms: N_8  and  C_9
REMARK    5  A    between atoms: C_9  and  C_10
REMARK    6  A    between atoms: C_16  and  O_22
REMARK    7  A    between atoms: O_22  and  C_23
REMARK    8  A    between atoms: C_28  and  O_31
REMARK                            x       y       z     vdW  Elec       q    Type
REMARK                         _______ _______ _______ _____ _____    ______ ____
ROOT
ATOM      1  N   UNL     1       0.025  -0.011   2.417  0.00  0.00    -0.343 N 
ATOM      2  H   UNL     1       0.023   0.959   2.422  0.00  0.00    +0.146 HD
ENDROOT
BRANCH   1   9
ATOM      3  C   UNL     1       0.016   1.503   0.010  0.00  0.00    +0.046 C 
ATOM      4  C   UNL     1       0.018  -0.004   0.002  0.00  0.00    -0.028 A 
ATOM      5  C   UNL     1       0.022  -0.688  -1.198  0.00  0.00    +0.028 A 
ATOM      6  C   UNL     1       0.025  -2.076  -1.206  0.00  0.00    +0.030 A 
ATOM      7  C   UNL     1       0.024  -2.777  -0.007  0.00  0.00    +0.025 A 
ATOM      8  C   UNL     1       0.020  -2.094   1.193  0.00  0.00    +0.025 A 
ATOM      9  C   UNL     1       0.023  -0.705   1.200  0.00  0.00    +0.030 A 
BRANCH   6  10
ATOM     10  N   UNL     1       0.028  -2.770  -2.422  0.00  0.00    -0.327 N 
ATOM     11  C   UNL     1      -0.092  -2.047  -3.696  0.00  0.00    +0.105 C 
ATOM     12  C   UNL     1       1.073  -2.451  -4.604  0.00  0.00    +0.021 C 
ATOM     13  C   UNL     1       1.101  -3.975  -4.745  0.00  0.00    +0.034 C 
ATOM     14  C   UNL     1       1.316  -4.612  -3.371  0.00  0.00    +0.132 C 
ATOM     15  C   UNL     1       0.159  -4.233  -2.449  0.00  0.00    +0.136 C 
BRANCH  14  16
ATOM     16  O   UNL     1       1.372  -6.034  -3.508  0.00  0.00    -0.390 OA
ATOM     17  H   UNL     1       2.086  -6.345  -4.082  0.00  0.00    +0.210 HD
ENDBRANCH  14  16
ENDBRANCH   6  10
ENDBRANCH   1   9
BRANCH   1  18
ATOM     18  C   UNL     1       0.030  -0.751   3.682  0.00  0.00    +0.118 C 
BRANCH  18  19
ATOM     19  C   UNL     1       0.031   0.237   4.850  0.00  0.00    +0.115 C 
ATOM     20  C   UNL     1      -0.186  -0.552   6.126  0.00  0.00    -0.003 C 
ATOM     21  C   UNL     1       0.768  -0.454   7.091  0.00  0.00    -0.007 A 
ATOM     22  C   UNL     1       0.632  -1.186   8.353  0.00  0.00    +0.013 A 
ATOM     23  C   UNL     1       1.602  -1.064   9.291  0.00  0.00    +0.046 A 
ATOM     24  C   UNL     1       2.727  -0.255   9.076  0.00  0.00    +0.122 A 
ATOM     25  C   UNL     1       2.910   0.456   7.910  0.00  0.00    +0.069 A 
ATOM     26  C   UNL     1       1.958   0.392   6.884  0.00  0.00    +0.044 A 
ATOM     27  N   UNL     1       2.145   1.086   5.759  0.00  0.00    -0.284 N 
ATOM     28  C   UNL     1       1.290   1.069   4.752  0.00  0.00    +0.226 C 
ATOM     29  O   UNL     1       1.515   1.721   3.750  0.00  0.00    -0.275 OA
ATOM     30  H   UNL     1       2.946   1.627   5.677  0.00  0.00    +0.155 HD
BRANCH  24  31
ATOM     31  O   UNL     1       3.667  -0.169  10.048  0.00  0.00    -0.495 OA
ATOM     32  C   UNL     1       3.437  -0.923  11.240  0.00  0.00    +0.277 C 
ENDBRANCH  24  31
ENDBRANCH  18  19
ENDBRANCH   1  18
TORSDOF 6
