REMARK  Name = ZINC42958102
REMARK  6 active torsions:
REMARK  status: ('A' for Active; 'I' for Inactive)
REMARK    1  A    between atoms: C_6  and  C_7
REMARK    2  A    between atoms: C_7  and  C_9
REMARK    3  A    between atoms: C_7  and  O_11
REMARK    4  A    between atoms: C_9  and  N_10
REMARK    5  A    between atoms: O_11  and  C_12
REMARK    6  A    between atoms: C_15  and  C_18
REMARK                            x       y       z     vdW  Elec       q    Type
REMARK                         _______ _______ _______ _____ _____    ______ ____
ROOT
ATOM      1  C   UNL     1      -1.289  -0.760  -0.012  0.00  0.00    +0.186 C 
ENDROOT
BRANCH   1   7
ATOM      2  C   UNL     1      -0.133   1.454  -0.179  0.00  0.00    +0.008 A 
ATOM      3  C   UNL     1       1.010   2.219  -0.307  0.00  0.00    +0.015 A 
ATOM      4  C   UNL     1       2.246   1.606  -0.408  0.00  0.00    +0.018 A 
ATOM      5  C   UNL     1       2.336   0.226  -0.380  0.00  0.00    +0.015 A 
ATOM      6  C   UNL     1       1.192  -0.539  -0.252  0.00  0.00    +0.008 A 
ATOM      7  C   UNL     1      -0.042   0.074  -0.151  0.00  0.00    -0.009 A 
ATOM      8 BR   UNL     1       3.810   2.653  -0.584  0.00  0.00    -0.050 Br
ENDBRANCH   1   7
BRANCH   1   9
ATOM      9  C   UNL     1      -1.507  -1.110   1.462  0.00  0.00    -0.036 C 
BRANCH   9  10
ATOM     10  N   UNL     1      -2.722  -1.923   1.598  0.00  0.00    +0.381 N 
ATOM     11  H   UNL     1      -2.865  -2.154   2.570  0.00  0.00    -0.090 HD
ATOM     12  H   UNL     1      -3.515  -1.403   1.255  0.00  0.00    -0.090 HD
ATOM     13  H   UNL     1      -2.620  -2.772   1.062  0.00  0.00    -0.090 HD
ENDBRANCH   9  10
ENDBRANCH   1   9
BRANCH   1  14
ATOM     14  O   UNL     1      -1.145  -1.963  -0.770  0.00  0.00    -0.486 OA
BRANCH  14  15
ATOM     15  C   UNL     1      -2.276  -2.494  -1.305  0.00  0.00    +0.121 A 
ATOM     16  C   UNL     1      -3.485  -1.827  -1.177  0.00  0.00    +0.046 A 
ATOM     17  C   UNL     1      -4.633  -2.369  -1.722  0.00  0.00    +0.016 A 
ATOM     18  C   UNL     1      -4.577  -3.576  -2.395  0.00  0.00    +0.055 A 
ATOM     19  C   UNL     1      -3.373  -4.242  -2.525  0.00  0.00    +0.016 A 
ATOM     20  C   UNL     1      -2.221  -3.702  -1.986  0.00  0.00    +0.046 A 
BRANCH  18  21
ATOM     21  C   UNL     1      -5.831  -4.165  -2.989  0.00  0.00    +0.417 C 
ATOM     22  F   UNL     1      -5.985  -3.706  -4.301  0.00  0.00    -0.166 F 
ATOM     23  F   UNL     1      -5.734  -5.560  -2.990  0.00  0.00    -0.166 F 
ATOM     24  F   UNL     1      -6.936  -3.775  -2.225  0.00  0.00    -0.166 F 
ENDBRANCH  18  21
ENDBRANCH  14  15
ENDBRANCH   1  14
TORSDOF 6
