REMARK  Name = ZINC29824733
REMARK  7 active torsions:
REMARK  status: ('A' for Active; 'I' for Inactive)
REMARK    1  A    between atoms: C_1  and  C_2
REMARK    2  A    between atoms: C_4  and  C_33
REMARK    3  A    between atoms: C_5  and  N_7
REMARK    4  A    between atoms: C_13  and  C_15
REMARK    5  A    between atoms: C_15  and  N_16
REMARK    6  A    between atoms: C_20  and  C_22
REMARK    7  A    between atoms: N_24  and  C_25
REMARK                            x       y       z     vdW  Elec       q    Type
REMARK                         _______ _______ _______ _____ _____    ______ ____
ROOT
ATOM      1  N   UNL     1       2.177   0.789   0.577  0.00  0.00    +0.393 N 
ATOM      2  C   UNL     1       1.476  -0.389   0.005  0.00  0.00    -0.077 C 
ATOM      3  C   UNL     1      -0.018  -0.002   0.027  0.00  0.00    -0.020 C 
ATOM      4  C   UNL     1      -0.033   1.540   0.029  0.00  0.00    -0.008 C 
ATOM      5  C   UNL     1       1.454   1.956   0.007  0.00  0.00    +0.020 C 
ATOM      6  H   UNL     1       2.183   0.788   1.677  0.00  0.00    -0.080 HD
ENDROOT
BRANCH   5   7
ATOM      7  C   UNL     1       1.671   3.177   0.862  0.00  0.00    +0.204 C 
ATOM      8  O   UNL     1       2.409   3.122   1.823  0.00  0.00    -0.277 OA
ATOM      9  N   UNL     1       1.045   4.332   0.559  0.00  0.00    -0.286 N 
ATOM     10  H   UNL     1       0.449   4.409  -0.362  0.00  0.00    +0.155 HD
BRANCH   9  11
ATOM     11  C   UNL     1       1.154   5.433   1.416  0.00  0.00    +0.053 A 
ATOM     12  C   UNL     1       1.433   5.241   2.763  0.00  0.00    +0.044 A 
ATOM     13  C   UNL     1       1.546   6.331   3.606  0.00  0.00    +0.043 A 
ATOM     14  C   UNL     1       1.369   7.612   3.111  0.00  0.00    +0.021 A 
ATOM     15  C   UNL     1       1.085   7.805   1.772  0.00  0.00    +0.023 A 
ATOM     16  C   UNL     1       0.977   6.720   0.923  0.00  0.00    +0.062 A 
ATOM     17 CL   UNL     1       0.621   6.964  -0.759  0.00  0.00    -0.082 Cl
ATOM     18 CL   UNL     1       1.902   6.093   5.288  0.00  0.00    -0.083 Cl
ENDBRANCH   9  11
ENDBRANCH   5   7
BRANCH   1  19
ATOM     19  C   UNL     1       3.592   0.803   0.182  0.00  0.00    +0.020 C 
BRANCH  19  26
ATOM     20  N   UNL     1       8.391  -0.244   1.020  0.00  0.00    -0.296 N 
ATOM     21  C   UNL     1       7.611  -0.994   2.013  0.00  0.00    +0.127 C 
ATOM     22  C   UNL     1       6.367  -1.585   1.341  0.00  0.00    +0.126 C 
ATOM     23  N   UNL     1       5.638  -0.498   0.669  0.00  0.00    -0.300 N 
ATOM     24  C   UNL     1       6.385   0.380  -0.244  0.00  0.00    +0.126 C 
ATOM     25  C   UNL     1       7.629   0.897   0.495  0.00  0.00    +0.127 C 
ATOM     26  C   UNL     1       4.319  -0.316   0.881  0.00  0.00    +0.199 C 
ATOM     27  O   UNL     1       3.718  -1.053   1.633  0.00  0.00    -0.278 OA
BRANCH  20  32
ATOM     28  C   UNL     1      12.116   0.478   4.152  0.00  0.00    +0.109 C 
ATOM     29  C   UNL     1      11.264   0.504   2.909  0.00  0.00    +0.196 A 
ATOM     30  N   UNL     1      11.592   1.074   1.791  0.00  0.00    -0.201 NA
ATOM     31  C   UNL     1      10.580   0.894   0.896  0.00  0.00    +0.201 A 
ATOM     32  C   UNL     1       9.597   0.167   1.546  0.00  0.00    +0.227 A 
ATOM     33  O   UNL     1      10.048  -0.054   2.795  0.00  0.00    -0.425 OA
BRANCH  31  34
ATOM     34  C   UNL     1      10.541   1.364  -0.456  0.00  0.00    +0.124 C 
ATOM     35  N   UNL     1      10.510   1.738  -1.528  0.00  0.00    -0.189 NA
ENDBRANCH  31  34
ENDBRANCH  20  32
ENDBRANCH  19  26
ENDBRANCH   1  19
TORSDOF 6
