REMARK  Name = ZINC00909856
REMARK  10 active torsions:
REMARK  status: ('A' for Active; 'I' for Inactive)
REMARK    1  A    between atoms: C_1  and  C_2
REMARK    2  A    between atoms: C_2  and  C_3
REMARK    3  A    between atoms: C_3  and  C_4
REMARK    4  A    between atoms: C_3  and  C_5
REMARK    5  A    between atoms: C_3  and  N_6
REMARK    6  A    between atoms: C_7  and  C_11
REMARK    7  A    between atoms: C_11  and  C_13
REMARK    8  A    between atoms: C_11  and  N_65
REMARK    9  A    between atoms: C_17  and  C_26
REMARK   10  A    between atoms: C_19  and  C_25
REMARK                            x       y       z     vdW  Elec       q    Type
REMARK                         _______ _______ _______ _____ _____    ______ ____
ROOT
ATOM      1  C   UNL     1      -2.222   1.088   0.178  0.00  0.00    +0.039 C 
ENDROOT
BRANCH   1   2
ATOM      2  C   UNL     1      -0.939   1.858   0.360  0.00  0.00    +0.011 A 
ATOM      3  C   UNL     1       0.238   1.193   0.470  0.00  0.00    +0.017 A 
ATOM      4  C   UNL     1       1.466   1.971   0.640  0.00  0.00    -0.001 A 
ATOM      5  C   UNL     1       2.711   1.342   0.754  0.00  0.00    +0.013 A 
ATOM      6  C   UNL     1       3.839   2.096   0.911  0.00  0.00    -0.050 A 
ATOM      7  C   UNL     1       3.761   3.482   0.959  0.00  0.00    +0.008 A 
ATOM      8  C   UNL     1       2.546   4.122   0.848  0.00  0.00    -0.026 A 
ATOM      9  C   UNL     1       1.384   3.375   0.688  0.00  0.00    +0.052 A 
ATOM     10  N   UNL     1       0.155   3.990   0.575  0.00  0.00    -0.322 N 
ATOM     11  H   UNL     1       0.099   4.988   0.610  0.00  0.00    +0.169 HD
ATOM     12  C   UNL     1      -0.968   3.268   0.420  0.00  0.00    +0.251 A 
ATOM     13  O   UNL     1      -2.037   3.845   0.325  0.00  0.00    -0.268 OA
ATOM     14  C   UNL     1       2.477   5.627   0.901  0.00  0.00    +0.046 C 
ATOM     15  C   UNL     1       5.179   1.419   1.033  0.00  0.00    +0.044 C 
ENDBRANCH   1   2
BRANCH   1  22
ATOM     16  C   UNL     1      -4.271   0.983  -1.125  0.00  0.00    -0.077 C 
ATOM     17  C   UNL     1      -4.912   1.222  -2.465  0.00  0.00    -0.019 C 
ATOM     18  C   UNL     1      -4.627   0.004  -3.369  0.00  0.00    -0.002 C 
ATOM     19  C   UNL     1      -3.277   0.033  -3.921  0.00  0.00    -0.002 C 
ATOM     20  C   UNL     1      -2.196  -0.001  -2.819  0.00  0.00    -0.019 C 
ATOM     21  C   UNL     1      -2.073   1.378  -2.230  0.00  0.00    -0.077 C 
ATOM     22  N   UNL     1      -2.913   1.618  -1.008  0.00  0.00    +0.389 N 
ATOM     23  H   UNL     1      -3.038   2.630  -0.894  0.00  0.00    -0.080 HD
ENDBRANCH   1  22
BRANCH   1  25
ATOM     24  N   UNL     1      -3.427   0.375   2.310  0.00  0.00    -0.225 N 
ATOM     25  C   UNL     1      -3.107   1.294   1.381  0.00  0.00    +0.143 A 
ATOM     26  N   UNL     1      -3.718   2.403   1.721  0.00  0.00    -0.115 NA
ATOM     27  N   UNL     1      -4.375   2.177   2.806  0.00  0.00    -0.023 NA
ATOM     28  N   UNL     1      -4.199   0.954   3.167  0.00  0.00    -0.043 NA
BRANCH  24  29
ATOM     29  C   UNL     1      -2.980  -1.020   2.345  0.00  0.00    +0.061 C 
ATOM     30  C   UNL     1      -3.496  -1.751   1.104  0.00  0.00    +0.036 C 
ATOM     31  C   UNL     1      -1.451  -1.065   2.364  0.00  0.00    +0.036 C 
BRANCH  29  33
ATOM     32  C   UNL     1      -3.060  -3.156   3.638  0.00  0.00    +0.006 C 
ATOM     33  C   UNL     1      -3.527  -1.699   3.602  0.00  0.00    +0.026 C 
ENDBRANCH  29  33
ENDBRANCH  24  29
ENDBRANCH   1  25
TORSDOF 5
