REMARK  Name = ZINC36494109
REMARK  17 active torsions:
REMARK  status: ('A' for Active; 'I' for Inactive)
REMARK    1  A    between atoms: C_1  and  C_2
REMARK    2  A    between atoms: C_2  and  C_3
REMARK    3  A    between atoms: C_2  and  C_4
REMARK    4  A    between atoms: C_2  and  C_5
REMARK    5  A    between atoms: C_5  and  C_6
REMARK    6  A    between atoms: C_6  and  C_7
REMARK    7  A    between atoms: C_6  and  C_8
REMARK    8  A    between atoms: C_6  and  N_9
REMARK    9  A    between atoms: C_10  and  C_12
REMARK   10  A    between atoms: C_12  and  C_14
REMARK   11  A    between atoms: C_12  and  N_21
REMARK   12  A    between atoms: C_18  and  O_20
REMARK   13  A    between atoms: N_21  and  C_22
REMARK   14  A    between atoms: C_22  and  C_23
REMARK   15  A    between atoms: C_28  and  C_30
REMARK   16  A    between atoms: C_35  and  O_36
REMARK   17  A    between atoms: O_36  and  C_37
REMARK                            x       y       z     vdW  Elec       q    Type
REMARK                         _______ _______ _______ _____ _____    ______ ____
ROOT
ATOM      1  C   UNL     1       5.677  -1.211  -3.441  0.00  0.00    +0.193 C 
ENDROOT
BRANCH   1   2
ATOM      2  C   UNL     1       4.779  -0.695  -4.535  0.00  0.00    -0.015 A 
ATOM      3  C   UNL     1       4.590   0.666  -4.689  0.00  0.00    +0.006 A 
ATOM      4  C   UNL     1       3.767   1.143  -5.692  0.00  0.00    +0.004 A 
ATOM      5  C   UNL     1       3.130   0.261  -6.542  0.00  0.00    +0.045 A 
ATOM      6  C   UNL     1       3.317  -1.105  -6.390  0.00  0.00    +0.117 A 
ATOM      7  C   UNL     1       4.149  -1.581  -5.386  0.00  0.00    +0.051 A 
BRANCH   6   8
ATOM      8  O   UNL     1       2.691  -1.976  -7.225  0.00  0.00    -0.507 OA
ATOM      9  H   UNL     1       3.200  -2.195  -8.018  0.00  0.00    +0.292 HD
ENDBRANCH   6   8
ENDBRANCH   1   2
BRANCH   1  11
ATOM     10  N   UNL     1       3.830  -2.247  -2.162  0.00  0.00    -0.308 N 
ATOM     11  C   UNL     1       4.876  -1.397  -2.178  0.00  0.00    +0.239 C 
ATOM     12  O   UNL     1       5.171  -0.781  -1.176  0.00  0.00    -0.273 OA
ATOM     13  H   UNL     1       3.593  -2.739  -2.964  0.00  0.00    +0.149 HD
BRANCH  10  14
ATOM     14  C   UNL     1       3.051  -2.427  -0.935  0.00  0.00    +0.030 C 
ATOM     15  C   UNL     1       2.611  -1.061  -0.405  0.00  0.00    +0.031 C 
ATOM     16  C   UNL     1       3.911  -3.130   0.117  0.00  0.00    +0.031 C 
BRANCH  14  17
ATOM     17  C   UNL     1       1.816  -3.279  -1.235  0.00  0.00    +0.031 C 
BRANCH  17  19
ATOM     18  C   UNL     1       1.798  -3.011  -3.719  0.00  0.00    +0.010 C 
ATOM     19  C   UNL     1       1.058  -2.679  -2.421  0.00  0.00    -0.036 C 
ATOM     20  C   UNL     1       0.974  -1.160  -2.257  0.00  0.00    +0.010 C 
ATOM     21  C   UNL     1      -0.354  -3.265  -2.474  0.00  0.00    +0.010 C 
ENDBRANCH  17  19
ENDBRANCH  14  17
ENDBRANCH  10  14
ENDBRANCH   1  11
BRANCH   1  22
ATOM     22  N   UNL     1       6.755  -0.248  -3.198  0.00  0.00    -0.275 N 
ATOM     23  C   UNL     1       7.702  -0.047  -4.136  0.00  0.00    +0.251 C 
ATOM     24  O   UNL     1       8.607   0.737  -3.926  0.00  0.00    -0.270 OA
BRANCH  23  25
ATOM     25  C   UNL     1       7.639  -0.776  -5.417  0.00  0.00    +0.078 A 
ATOM     26  C   UNL     1       6.600  -1.678  -5.661  0.00  0.00    +0.017 A 
ATOM     27  C   UNL     1       6.547  -2.356  -6.860  0.00  0.00    +0.001 A 
ATOM     28  C   UNL     1       7.520  -2.147  -7.824  0.00  0.00    +0.004 A 
ATOM     29  C   UNL     1       8.552  -1.259  -7.596  0.00  0.00    +0.046 A 
ATOM     30  C   UNL     1       8.618  -0.564  -6.397  0.00  0.00    +0.132 A 
BRANCH  30  31
ATOM     31  O   UNL     1       9.628   0.312  -6.173  0.00  0.00    -0.494 OA
ATOM     32  C   UNL     1      10.589   0.476  -7.218  0.00  0.00    +0.277 C 
ENDBRANCH  30  31
ENDBRANCH  23  25
BRANCH  22  33
ATOM     33  C   UNL     1       6.803   0.495  -1.937  0.00  0.00    +0.183 C 
BRANCH  33  34
ATOM     34  C   UNL     1       7.392  -0.380  -0.860  0.00  0.00    +0.122 A 
ATOM     35  C   UNL     1       8.683  -0.401  -0.483  0.00  0.00    +0.046 A 
ATOM     36  C   UNL     1       8.793  -1.360   0.550  0.00  0.00    +0.041 A 
ATOM     37  C   UNL     1       7.562  -1.868   0.742  0.00  0.00    +0.195 A 
ATOM     38  O   UNL     1       6.717  -1.267  -0.111  0.00  0.00    -0.466 OA
ENDBRANCH  33  34
ENDBRANCH  22  33
ENDBRANCH   1  22
TORSDOF 11
