REMARK  Name = ZINC20720626
REMARK  6 active torsions:
REMARK  status: ('A' for Active; 'I' for Inactive)
REMARK    1  A    between atoms: C_4  and  C_7
REMARK    2  A    between atoms: C_7  and  C_8
REMARK    3  A    between atoms: C_8  and  C_9
REMARK    4  A    between atoms: C_9  and  O_10
REMARK    5  A    between atoms: O_10  and  C_11
REMARK    6  A    between atoms: C_18  and  C_27
REMARK                            x       y       z     vdW  Elec       q    Type
REMARK                         _______ _______ _______ _____ _____    ______ ____
ROOT
ATOM      1  C   UNL     1       5.971   3.263  -1.562  0.00  0.00    +0.142 A 
ATOM      2  C   UNL     1       7.337   3.478  -1.598  0.00  0.00    +0.047 A 
ATOM      3  C   UNL     1       8.156   2.845  -0.682  0.00  0.00    +0.004 A 
ATOM      4  C   UNL     1       7.611   2.002   0.265  0.00  0.00    +0.006 A 
ATOM      5  C   UNL     1       6.240   1.778   0.312  0.00  0.00    -0.016 A 
ATOM      6  C   UNL     1       5.418   2.409  -0.603  0.00  0.00    +0.074 A 
ATOM      7  N   UNL     1       4.032   2.229  -0.608  0.00  0.00    -0.334 N 
ATOM      8  C   UNL     1       3.640   0.944  -0.028  0.00  0.00    +0.107 C 
ATOM      9  C   UNL     1       4.172   0.848   1.404  0.00  0.00    +0.029 C 
ATOM     10  C   UNL     1       5.715   0.848   1.365  0.00  0.00    +0.049 C 
ATOM     11  C   UNL     1       6.075  -0.584   1.041  0.00  0.00    -0.023 C 
ATOM     12  C   UNL     1       5.082  -1.385   1.338  0.00  0.00    -0.030 C 
ATOM     13  C   UNL     1       3.919  -0.600   1.911  0.00  0.00    +0.033 C 
ATOM     14  H   UNL     1       3.263   2.920  -0.983  0.00  0.00    +0.147 HD
ENDROOT
BRANCH   8  15
ATOM     15  C   UNL     1       2.137   0.836  -0.014  0.00  0.00    -0.002 A 
ATOM     16  C   UNL     1       1.409  -0.226  -0.393  0.00  0.00    +0.089 A 
ATOM     17  N   UNL     1       0.076   0.044  -0.241  0.00  0.00    -0.360 N 
ATOM     18  H   UNL     1      -0.672  -0.718  -0.505  0.00  0.00    +0.165 HD
ATOM     19  C   UNL     1      -0.090   1.318   0.252  0.00  0.00    +0.047 A 
ATOM     20  C   UNL     1       1.193   1.871   0.416  0.00  0.00    +0.005 A 
ATOM     21  C   UNL     1       1.335   3.170   0.907  0.00  0.00    +0.010 A 
ATOM     22  C   UNL     1       0.224   3.900   1.226  0.00  0.00    +0.001 A 
ATOM     23  C   UNL     1      -1.044   3.359   1.065  0.00  0.00    +0.002 A 
ATOM     24  C   UNL     1      -1.207   2.079   0.583  0.00  0.00    +0.026 A 
ENDBRANCH   8  15
BRANCH   1  25
ATOM     25  O   UNL     1       5.163   3.885  -2.462  0.00  0.00    -0.490 OA
BRANCH  25  26
ATOM     26  C   UNL     1       5.793   4.744  -3.414  0.00  0.00    +0.229 C 
BRANCH  26  27
ATOM     27  C   UNL     1       4.732   5.349  -4.336  0.00  0.00    +0.046 C 
BRANCH  27  28
ATOM     28  C   UNL     1       5.406   6.269  -5.356  0.00  0.00    +0.038 C 
BRANCH  28  32
ATOM     29  C   UNL     1       2.444   7.958  -7.928  0.00  0.00    +0.000 A 
ATOM     30  C   UNL     1       2.798   8.608  -6.761  0.00  0.00    +0.000 A 
ATOM     31  C   UNL     1       3.757   8.062  -5.929  0.00  0.00    +0.003 A 
ATOM     32  C   UNL     1       4.361   6.864  -6.263  0.00  0.00    -0.047 A 
ATOM     33  C   UNL     1       4.011   6.216  -7.433  0.00  0.00    +0.003 A 
ATOM     34  C   UNL     1       3.048   6.760  -8.263  0.00  0.00    +0.000 A 
ENDBRANCH  28  32
ENDBRANCH  27  28
ENDBRANCH  26  27
ENDBRANCH  25  26
ENDBRANCH   1  25
TORSDOF 6
