REMARK  Name = ZINC59960247
REMARK  10 active torsions:
REMARK  status: ('A' for Active; 'I' for Inactive)
REMARK    1  A    between atoms: C_1  and  O_2
REMARK    2  A    between atoms: O_2  and  C_3
REMARK    3  A    between atoms: C_8  and  N_9
REMARK    4  A    between atoms: C_10  and  C_12
REMARK    5  A    between atoms: N_14  and  N_15
REMARK    6  A    between atoms: C_16  and  C_17
REMARK    7  A    between atoms: C_20  and  O_23
REMARK    8  A    between atoms: O_23  and  C_24
REMARK    9  A    between atoms: C_24  and  C_25
REMARK   10  A    between atoms: N_27  and  C_28
REMARK                            x       y       z     vdW  Elec       q    Type
REMARK                         _______ _______ _______ _____ _____    ______ ____
ROOT
ATOM      1  C   UNL     1      -0.974  -9.114  -3.255  0.00  0.00    -0.005 A 
ATOM      2  C   UNL     1      -1.619  -8.484  -4.324  0.00  0.00    +0.013 A 
ATOM      3  C   UNL     1      -2.113  -9.236  -5.367  0.00  0.00    +0.046 A 
ATOM      4  C   UNL     1      -1.972 -10.618  -5.358  0.00  0.00    +0.121 A 
ATOM      5  C   UNL     1      -1.332 -11.249  -4.298  0.00  0.00    +0.046 A 
ATOM      6  C   UNL     1      -0.829 -10.505  -3.253  0.00  0.00    +0.013 A 
ENDROOT
BRANCH   1   8
ATOM      7  N   UNL     1      -0.578  -7.022  -2.142  0.00  0.00    -0.187 NA
ATOM      8  C   UNL     1      -0.442  -8.314  -2.138  0.00  0.00    +0.138 C 
BRANCH   7  11
ATOM      9  C   UNL     1      -0.213  -4.921  -1.083  0.00  0.00    +0.318 C 
ATOM     10  O   UNL     1      -0.777  -4.373  -2.008  0.00  0.00    -0.263 OA
ATOM     11  N   UNL     1      -0.072  -6.262  -1.079  0.00  0.00    -0.199 N 
ATOM     12  H   UNL     1       0.379  -6.700  -0.341  0.00  0.00    +0.178 HD
BRANCH   9  14
ATOM     13  N   UNL     1       0.185  -2.772   0.043  0.00  0.00    -0.275 N 
ATOM     14  C   UNL     1       0.325  -4.112   0.048  0.00  0.00    +0.305 C 
ATOM     15  O   UNL     1       0.889  -4.661   0.972  0.00  0.00    -0.265 OA
ATOM     16  H   UNL     1      -0.326  -2.340  -0.659  0.00  0.00    +0.155 HD
BRANCH  13  22
ATOM     17  C   UNL     1       1.287  -0.741   0.761  0.00  0.00    +0.141 A 
ATOM     18  C   UNL     1       1.865   0.018   1.766  0.00  0.00    +0.047 A 
ATOM     19  C   UNL     1       1.938  -0.481   3.053  0.00  0.00    +0.004 A 
ATOM     20  C   UNL     1       1.436  -1.736   3.343  0.00  0.00    +0.002 A 
ATOM     21  C   UNL     1       0.857  -2.499   2.346  0.00  0.00    +0.027 A 
ATOM     22  C   UNL     1       0.775  -2.004   1.053  0.00  0.00    +0.076 A 
BRANCH  17  24
ATOM     23  C   UNL     1       1.758   1.050  -0.731  0.00  0.00    +0.277 C 
ATOM     24  O   UNL     1       1.213  -0.252  -0.506  0.00  0.00    -0.493 OA
ENDBRANCH  17  24
ENDBRANCH  13  22
ENDBRANCH   9  14
ENDBRANCH   7  11
ENDBRANCH   1   8
BRANCH   4  25
ATOM     25  O   UNL     1      -2.462 -11.355  -6.388  0.00  0.00    -0.483 OA
BRANCH  25  26
ATOM     26  C   UNL     1      -2.283 -12.771  -6.316  0.00  0.00    +0.324 C 
BRANCH  26  27
ATOM     27  C   UNL     1      -2.886 -13.417  -7.536  0.00  0.00    +0.255 C 
ATOM     28  O   UNL     1      -3.417 -12.732  -8.385  0.00  0.00    -0.272 OA
ATOM     29  N   UNL     1      -2.835 -14.756  -7.685  0.00  0.00    -0.281 N 
ATOM     30  H   UNL     1      -2.483 -15.310  -6.971  0.00  0.00    +0.155 HD
BRANCH  29  31
ATOM     31  C   UNL     1      -3.289 -15.346  -8.870  0.00  0.00    +0.052 A 
ATOM     32  C   UNL     1      -3.304 -14.615 -10.050  0.00  0.00    +0.025 A 
ATOM     33  C   UNL     1      -3.753 -15.200 -11.218  0.00  0.00    +0.002 A 
ATOM     34  C   UNL     1      -4.187 -16.513 -11.214  0.00  0.00    +0.002 A 
ATOM     35  C   UNL     1      -4.173 -17.245 -10.041  0.00  0.00    +0.022 A 
ATOM     36  C   UNL     1      -3.720 -16.667  -8.869  0.00  0.00    +0.062 A 
ATOM     37 CL   UNL     1      -3.697 -17.588  -7.398  0.00  0.00    -0.082 Cl
ENDBRANCH  29  31
ENDBRANCH  26  27
ENDBRANCH  25  26
ENDBRANCH   4  25
TORSDOF 9
