REMARK  Name = ZINC09316449
REMARK  5 active torsions:
REMARK  status: ('A' for Active; 'I' for Inactive)
REMARK    1  A    between atoms: C_6  and  C_7
REMARK    2  A    between atoms: C_15  and  O_30
REMARK    3  A    between atoms: C_18  and  C_19
REMARK    4  A    between atoms: C_18  and  N_58
REMARK    5  A    between atoms: N_21  and  C_22
REMARK                            x       y       z     vdW  Elec       q    Type
REMARK                         _______ _______ _______ _____ _____    ______ ____
ROOT
ATOM      1  C   UNL     1       1.621  -1.891  -0.015  0.00  0.00    -0.031 C 
ATOM      2  C   UNL     1       3.088  -2.257  -0.244  0.00  0.00    +0.011 C 
ATOM      3  C   UNL     1       3.270  -3.769  -0.113  0.00  0.00    +0.005 C 
ATOM      4  C   UNL     1       2.863  -4.216   1.293  0.00  0.00    +0.000 C 
ATOM      5  C   UNL     1       3.740  -3.505   2.325  0.00  0.00    +0.003 C 
ATOM      6  C   UNL     1       3.551  -1.992   2.198  0.00  0.00    +0.035 C 
ATOM      7  C   UNL     1       3.956  -1.540   0.793  0.00  0.00    +0.066 C 
ATOM      8  C   UNL     1       3.733  -0.029   0.668  0.00  0.00    +0.016 C 
ATOM      9  C   UNL     1       2.247   0.277   0.871  0.00  0.00    -0.075 C 
ATOM     10  N   UNL     1       1.464  -0.428  -0.166  0.00  0.00    +0.390 N 
ATOM     11  H   UNL     1       1.810  -0.150  -1.091  0.00  0.00    -0.080 HD
ENDROOT
BRANCH   1  17
ATOM     12  C   UNL     1       0.656  -2.058  -2.318  0.00  0.00    +0.006 A 
ATOM     13  C   UNL     1      -0.124  -2.692  -3.266  0.00  0.00    +0.050 A 
ATOM     14  C   UNL     1      -0.809  -3.851  -2.939  0.00  0.00    +0.166 A 
ATOM     15  C   UNL     1      -0.705  -4.377  -1.653  0.00  0.00    +0.166 A 
ATOM     16  C   UNL     1       0.083  -3.739  -0.709  0.00  0.00    +0.051 A 
ATOM     17  C   UNL     1       0.764  -2.583  -1.044  0.00  0.00    -0.057 A 
ATOM     18  O   UNL     1      -1.465  -5.508  -1.582  0.00  0.00    -0.453 OA
ATOM     19  C   UNL     1      -1.709  -5.894  -2.948  0.00  0.00    +0.466 C 
ATOM     20  O   UNL     1      -1.635  -4.652  -3.672  0.00  0.00    -0.453 OA
ENDBRANCH   1  17
BRANCH   7  21
ATOM     21  O   UNL     1       5.332  -1.853   0.567  0.00  0.00    -0.388 OA
ATOM     22  H   UNL     1       5.939  -1.431   1.190  0.00  0.00    +0.210 HD
ENDBRANCH   7  21
BRANCH  10  23
ATOM     23  C   UNL     1       0.037  -0.060  -0.057  0.00  0.00    +0.020 C 
BRANCH  23  24
ATOM     24  C   UNL     1      -0.494  -0.393   1.313  0.00  0.00    +0.201 C 
ATOM     25  O   UNL     1       0.207  -0.982   2.109  0.00  0.00    -0.278 OA
ATOM     26  N   UNL     1      -1.746  -0.032   1.657  0.00  0.00    -0.286 N 
ATOM     27  H   UNL     1      -2.326   0.388   1.003  0.00  0.00    +0.155 HD
BRANCH  26  28
ATOM     28  C   UNL     1      -2.209  -0.262   2.958  0.00  0.00    +0.052 A 
ATOM     29  C   UNL     1      -1.772  -1.374   3.665  0.00  0.00    +0.026 A 
ATOM     30  C   UNL     1      -2.229  -1.599   4.949  0.00  0.00    +0.022 A 
ATOM     31  C   UNL     1      -3.123  -0.717   5.531  0.00  0.00    +0.042 A 
ATOM     32  C   UNL     1      -3.560   0.393   4.830  0.00  0.00    +0.041 A 
ATOM     33  C   UNL     1      -3.102   0.625   3.547  0.00  0.00    +0.064 A 
ATOM     34 CL   UNL     1      -3.646   2.021   2.669  0.00  0.00    -0.082 Cl
ATOM     35 CL   UNL     1      -3.696  -1.003   7.145  0.00  0.00    -0.083 Cl
ENDBRANCH  26  28
ENDBRANCH  23  24
ENDBRANCH  10  23
TORSDOF 5
