REMARK  Name = ZINC16661207
REMARK  4 active torsions:
REMARK  status: ('A' for Active; 'I' for Inactive)
REMARK    1  A    between atoms: C_1  and  C_2
REMARK    2  A    between atoms: C_2  and  C_10
REMARK    3  A    between atoms: C_3  and  C_4
REMARK    4  A    between atoms: N_16  and  C_17
REMARK                            x       y       z     vdW  Elec       q    Type
REMARK                         _______ _______ _______ _____ _____    ______ ____
ROOT
ATOM      1  C   UNL     1      -0.058  -0.755  -1.216  0.00  0.00    +0.023 C 
ATOM      2  C   UNL     1      -0.307  -0.158  -2.417  0.00  0.00    +0.078 C 
ATOM      3  C   UNL     1      -0.397   1.276  -2.748  0.00  0.00    +0.256 C 
ATOM      4  O   UNL     1      -0.241   2.135  -1.899  0.00  0.00    -0.269 OA
ATOM      5  N   UNL     1      -0.653   1.587  -4.007  0.00  0.00    -0.260 N 
ATOM      6  C   UNL     1      -0.826   0.600  -4.953  0.00  0.00    +0.166 C 
ATOM      7  N   UNL     1      -1.084   0.732  -6.234  0.00  0.00    -0.226 NA
ATOM      8  S   UNL     1      -0.606  -0.903  -4.013  0.00  0.00    -0.049 S 
ATOM      9  H   UNL     1      -0.720   2.519  -4.268  0.00  0.00    +0.157 HD
ENDROOT
BRANCH   7  10
ATOM     10  C   UNL     1      -1.224  -0.378  -7.022  0.00  0.00    +0.067 A 
ATOM     11  C   UNL     1      -0.317  -1.435  -6.912  0.00  0.00    +0.028 A 
ATOM     12  C   UNL     1      -0.464  -2.551  -7.709  0.00  0.00    +0.002 A 
ATOM     13  C   UNL     1      -1.506  -2.624  -8.617  0.00  0.00    +0.000 A 
ATOM     14  C   UNL     1      -2.408  -1.581  -8.732  0.00  0.00    +0.002 A 
ATOM     15  C   UNL     1      -2.276  -0.461  -7.937  0.00  0.00    +0.028 A 
ENDBRANCH   7  10
BRANCH   1  17
ATOM     16  C   UNL     1       1.253  -0.011   0.811  0.00  0.00    +0.044 C 
ATOM     17  C   UNL     1       0.011   0.023  -0.043  0.00  0.00    -0.049 C 
ATOM     18  C   UNL     1      -1.037   0.801   0.316  0.00  0.00    +0.011 C 
BRANCH  18  19
ATOM     19  C   UNL     1      -1.031   1.488   1.616  0.00  0.00    -0.025 A 
ATOM     20  C   UNL     1      -1.520   2.794   1.724  0.00  0.00    +0.008 A 
ATOM     21  C   UNL     1      -1.511   3.431   2.946  0.00  0.00    +0.001 A 
ATOM     22  C   UNL     1      -1.020   2.782   4.066  0.00  0.00    +0.000 A 
ATOM     23  C   UNL     1      -0.534   1.489   3.968  0.00  0.00    +0.001 A 
ATOM     24  C   UNL     1      -0.542   0.836   2.754  0.00  0.00    +0.008 A 
ENDBRANCH  18  19
ENDBRANCH   1  17
TORSDOF 3
