REMARK  Name = ZINC40829501
REMARK  7 active torsions:
REMARK  status: ('A' for Active; 'I' for Inactive)
REMARK    1  A    between atoms: C_1  and  C_2
REMARK    2  A    between atoms: C_5  and  N_11
REMARK    3  A    between atoms: C_6  and  C_10
REMARK    4  A    between atoms: C_7  and  O_8
REMARK    5  A    between atoms: O_8  and  C_9
REMARK    6  A    between atoms: N_11  and  S_12
REMARK    7  A    between atoms: S_12  and  C_15
REMARK                            x       y       z     vdW  Elec       q    Type
REMARK                         _______ _______ _______ _____ _____    ______ ____
ROOT
ATOM      1  N   UNL     1       0.059  -4.171  -0.026  0.00  0.00    -0.216 N 
ATOM      2  H   UNL     1      -0.460  -4.660   0.632  0.00  0.00    +0.174 HD
ENDROOT
BRANCH   1   7
ATOM      3  C   UNL     1       0.622   1.459   0.408  0.00  0.00    +0.047 C 
ATOM      4  C   UNL     1       0.472  -0.036   0.294  0.00  0.00    -0.008 A 
ATOM      5  C   UNL     1       0.375  -0.627  -0.951  0.00  0.00    +0.009 A 
ATOM      6  C   UNL     1       0.238  -1.997  -1.060  0.00  0.00    +0.025 A 
ATOM      7  C   UNL     1       0.198  -2.785   0.084  0.00  0.00    +0.054 A 
ATOM      8  C   UNL     1       0.295  -2.194   1.336  0.00  0.00    +0.014 A 
ATOM      9  C   UNL     1       0.438  -0.819   1.440  0.00  0.00    +0.128 A 
ATOM     10  C   UNL     1       0.252  -3.045   2.579  0.00  0.00    +0.049 C 
BRANCH   9  11
ATOM     11  O   UNL     1       0.539  -0.237   2.664  0.00  0.00    -0.495 OA
ATOM     12  C   UNL     1      -0.680   0.164   3.294  0.00  0.00    +0.277 C 
ENDBRANCH   9  11
ENDBRANCH   1   7
BRANCH   1  13
ATOM     13  S   UNL     1       0.781  -4.979  -1.278  0.00  0.00    +0.074 S 
ATOM     14  O   UNL     1       0.558  -6.363  -1.051  0.00  0.00    -0.150 OA
ATOM     15  O   UNL     1       0.371  -4.327  -2.472  0.00  0.00    -0.150 OA
BRANCH  13  16
ATOM     16  C   UNL     1       2.518  -4.718  -1.134  0.00  0.00    +0.125 A 
ATOM     17  C   UNL     1       3.060  -3.450  -1.383  0.00  0.00    +0.035 A 
ATOM     18  C   UNL     1       4.407  -3.265  -1.267  0.00  0.00    +0.072 A 
ATOM     19  C   UNL     1       5.220  -4.351  -0.901  0.00  0.00    +0.249 A 
ATOM     20  O   UNL     1       6.427  -4.200  -0.793  0.00  0.00    -0.268 OA
ATOM     21  N   UNL     1       4.670  -5.558  -0.668  0.00  0.00    -0.327 N 
ATOM     22  H   UNL     1       5.237  -6.303  -0.415  0.00  0.00    +0.168 HD
ATOM     23  C   UNL     1       3.329  -5.742  -0.778  0.00  0.00    +0.114 A 
ENDBRANCH  13  16
ENDBRANCH   1  13
TORSDOF 4
