REMARK  Name = ZINC39584468
REMARK  7 active torsions:
REMARK  status: ('A' for Active; 'I' for Inactive)
REMARK    1  A    between atoms: C_1  and  C_2
REMARK    2  A    between atoms: C_5  and  C_9
REMARK    3  A    between atoms: C_7  and  C_8
REMARK    4  A    between atoms: C_11  and  C_15
REMARK    5  A    between atoms: N_17  and  N_18
REMARK    6  A    between atoms: C_19  and  C_20
REMARK    7  A    between atoms: C_29  and  O_30
REMARK                            x       y       z     vdW  Elec       q    Type
REMARK                         _______ _______ _______ _____ _____    ______ ____
ROOT
ATOM      1  C   UNL     1      -1.138  -7.191  -1.041  0.00  0.00    +0.263 C 
ATOM      2  O   UNL     1      -2.073  -7.329  -0.281  0.00  0.00    -0.271 OA
ATOM      3  N   UNL     1      -1.197  -7.711  -2.283  0.00  0.00    -0.205 N 
ATOM      4  H   UNL     1      -0.450  -7.601  -2.892  0.00  0.00    +0.177 HD
ENDROOT
BRANCH   1   7
ATOM      5  C   UNL     1       0.061  -4.256  -0.021  0.00  0.00    +0.092 C 
ATOM      6  C   UNL     1       0.071  -5.018  -1.132  0.00  0.00    +0.041 C 
ATOM      7  C   UNL     1       0.090  -6.439  -0.597  0.00  0.00    +0.240 C 
ATOM      8  N   UNL     1       0.088  -6.249   0.863  0.00  0.00    -0.170 NA
ATOM      9  N   UNL     1       0.077  -5.037   1.090  0.00  0.00    -0.153 NA
BRANCH   5  14
ATOM     10  C   UNL     1      -0.018   1.503   0.010  0.00  0.00    +0.044 C 
ATOM     11  C   UNL     1       0.002  -0.004   0.002  0.00  0.00    -0.047 A 
ATOM     12  C   UNL     1       0.006  -0.687  -1.201  0.00  0.00    +0.004 A 
ATOM     13  C   UNL     1       0.025  -2.066  -1.215  0.00  0.00    +0.010 A 
ATOM     14  C   UNL     1       0.041  -2.772  -0.013  0.00  0.00    +0.002 A 
ATOM     15  C   UNL     1       0.037  -2.080   1.196  0.00  0.00    +0.013 A 
ATOM     16  C   UNL     1       0.023  -0.699   1.197  0.00  0.00    -0.047 A 
ATOM     17  C   UNL     1       0.025   0.051   2.504  0.00  0.00    +0.044 C 
ENDBRANCH   5  14
ENDBRANCH   1   7
BRANCH   3  18
ATOM     18  N   UNL     1      -2.339  -8.411  -2.696  0.00  0.00    -0.188 NA
ATOM     19  C   UNL     1      -2.397  -8.912  -3.894  0.00  0.00    +0.142 C 
BRANCH  19  20
ATOM     20  C   UNL     1      -3.594  -9.645  -4.327  0.00  0.00    +0.044 A 
ATOM     21  C   UNL     1      -3.673 -10.221  -5.668  0.00  0.00    -0.006 A 
ATOM     22  C   UNL     1      -2.619 -10.094  -6.581  0.00  0.00    +0.009 A 
ATOM     23  C   UNL     1      -2.732 -10.646  -7.822  0.00  0.00    +0.001 A 
ATOM     24  C   UNL     1      -3.884 -11.335  -8.196  0.00  0.00    +0.001 A 
ATOM     25  C   UNL     1      -4.928 -11.476  -7.334  0.00  0.00    +0.008 A 
ATOM     26  C   UNL     1      -4.845 -10.920  -6.045  0.00  0.00    -0.017 A 
ATOM     27  C   UNL     1      -5.902 -11.047  -5.127  0.00  0.00    +0.012 A 
ATOM     28  C   UNL     1      -5.812 -10.507  -3.883  0.00  0.00    +0.046 A 
ATOM     29  C   UNL     1      -4.678  -9.813  -3.465  0.00  0.00    +0.126 A 
BRANCH  29  30
ATOM     30  O   UNL     1      -4.629  -9.294  -2.211  0.00  0.00    -0.506 OA
ATOM     31  H   UNL     1      -4.968  -8.390  -2.146  0.00  0.00    +0.292 HD
ENDBRANCH  29  30
ENDBRANCH  19  20
ENDBRANCH   3  18
TORSDOF 5
