REMARK  Name = ZINC07885033
REMARK  5 active torsions:
REMARK  status: ('A' for Active; 'I' for Inactive)
REMARK    1  A    between atoms: C_1  and  O_2
REMARK    2  A    between atoms: O_2  and  C_3
REMARK    3  A    between atoms: C_7  and  C_10
REMARK    4  A    between atoms: C_8  and  O_9
REMARK    5  A    between atoms: N_21  and  C_22
REMARK                            x       y       z     vdW  Elec       q    Type
REMARK                         _______ _______ _______ _____ _____    ______ ____
ROOT
ATOM      1  C   UNL     1       2.448   1.379  -0.021  0.00  0.00    +0.201 C 
ATOM      2  N   UNL     1       2.298   0.139  -0.790  0.00  0.00    -0.321 N 
ATOM      3  C   UNL     1       2.336   0.204  -2.179  0.00  0.00    +0.041 A 
ATOM      4  C   UNL     1       1.657  -0.707  -2.970  0.00  0.00    +0.024 A 
ATOM      5  C   UNL     1       1.734  -0.609  -4.346  0.00  0.00    +0.002 A 
ATOM      6  C   UNL     1       2.485   0.394  -4.940  0.00  0.00    +0.001 A 
ATOM      7  C   UNL     1       3.163   1.312  -4.166  0.00  0.00    +0.015 A 
ATOM      8  C   UNL     1       3.091   1.228  -2.777  0.00  0.00    +0.058 A 
ATOM      9  C   UNL     1       3.777   2.199  -1.908  0.00  0.00    +0.254 C 
ATOM     10  O   UNL     1       4.568   2.994  -2.380  0.00  0.00    -0.270 OA
ATOM     11  N   UNL     1       3.521   2.200  -0.584  0.00  0.00    -0.244 N 
ATOM     12  H   UNL     1       2.174  -0.711  -0.339  0.00  0.00    +0.148 HD
ENDROOT
BRANCH  11  13
ATOM     13  C   UNL     1       4.294   2.999   0.266  0.00  0.00    +0.042 A 
ATOM     14  C   UNL     1       4.367   4.370   0.054  0.00  0.00    +0.027 A 
ATOM     15  C   UNL     1       5.126   5.161   0.895  0.00  0.00    +0.051 A 
ATOM     16  C   UNL     1       5.825   4.588   1.946  0.00  0.00    +0.166 A 
ATOM     17  C   UNL     1       5.758   3.213   2.157  0.00  0.00    +0.168 A 
ATOM     18  C   UNL     1       4.993   2.421   1.317  0.00  0.00    +0.073 A 
ATOM     19  O   UNL     1       6.526   2.900   3.242  0.00  0.00    -0.453 OA
ATOM     20  C   UNL     1       6.735   4.144   3.937  0.00  0.00    +0.466 C 
ATOM     21  O   UNL     1       6.636   5.137   2.898  0.00  0.00    -0.453 OA
ENDBRANCH  11  13
BRANCH   1  26
ATOM     22  C   UNL     1      -1.248   2.193  -0.113  0.00  0.00    +0.162 A 
ATOM     23  C   UNL     1      -1.219   3.579  -0.137  0.00  0.00    +0.049 A 
ATOM     24  C   UNL     1      -0.009   4.246  -0.129  0.00  0.00    +0.004 A 
ATOM     25  C   UNL     1       1.176   3.534  -0.092  0.00  0.00    +0.011 A 
ATOM     26  C   UNL     1       1.155   2.152  -0.062  0.00  0.00    +0.036 A 
ATOM     27  C   UNL     1      -0.055   1.477  -0.069  0.00  0.00    +0.165 A 
BRANCH  22  29
ATOM     28  C   UNL     1      -3.621   2.336  -0.171  0.00  0.00    +0.277 C 
ATOM     29  O   UNL     1      -2.438   1.536  -0.126  0.00  0.00    -0.491 OA
ENDBRANCH  22  29
BRANCH  27  30
ATOM     30  O   UNL     1      -0.078   0.118  -0.040  0.00  0.00    -0.503 OA
ATOM     31  H   UNL     1      -0.101  -0.256   0.852  0.00  0.00    +0.292 HD
ENDBRANCH  27  30
ENDBRANCH   1  26
TORSDOF 4
