REMARK  Name = ZINC38550048
REMARK  9 active torsions:
REMARK  status: ('A' for Active; 'I' for Inactive)
REMARK    1  A    between atoms: C_1  and  C_2
REMARK    2  A    between atoms: C_2  and  O_3
REMARK    3  A    between atoms: O_3  and  C_4
REMARK    4  A    between atoms: C_4  and  C_6
REMARK    5  A    between atoms: C_8  and  N_18
REMARK    6  A    between atoms: C_11  and  O_16
REMARK    7  A    between atoms: O_16  and  C_17
REMARK    8  A    between atoms: C_19  and  C_21
REMARK    9  A    between atoms: C_21  and  N_22
REMARK                            x       y       z     vdW  Elec       q    Type
REMARK                         _______ _______ _______ _____ _____    ______ ____
ROOT
ATOM      1  N   UNL     1      -3.659  -1.356   2.227  0.00  0.00    -0.288 N 
ATOM      2  C   UNL     1      -4.253  -1.519   3.426  0.00  0.00    +0.200 C 
ATOM      3  O   UNL     1      -4.505  -2.634   3.830  0.00  0.00    -0.278 OA
ATOM      4  H   UNL     1      -3.433  -0.465   1.915  0.00  0.00    +0.155 HD
ENDROOT
BRANCH   1   6
ATOM      5  C   UNL     1      -3.349  -2.504  -0.059  0.00  0.00    +0.234 C 
ATOM      6  C   UNL     1      -3.376  -2.442   1.452  0.00  0.00    +0.053 C 
ATOM      7  C   UNL     1      -3.051  -3.715   1.886  0.00  0.00    +0.021 A 
ATOM      8  C   UNL     1      -2.915  -4.277   3.180  0.00  0.00    +0.057 A 
ATOM      9  C   UNL     1      -2.578  -5.587   3.312  0.00  0.00    +0.121 A 
ATOM     10  C   UNL     1      -2.361  -6.404   2.194  0.00  0.00    +0.047 A 
ATOM     11  C   UNL     1      -2.474  -5.931   0.930  0.00  0.00    +0.029 A 
ATOM     12  C   UNL     1      -2.823  -4.573   0.711  0.00  0.00    +0.045 A 
ATOM     13  N   UNL     1      -2.993  -3.884  -0.402  0.00  0.00    -0.367 N 
ATOM     14  H   UNL     1      -2.898  -4.234  -1.302  0.00  0.00    +0.161 HD
BRANCH   5  15
ATOM     15  C   UNL     1      -2.315  -1.551  -0.600  0.00  0.00    +0.336 C 
ATOM     16  O   UNL     1      -1.227  -1.963  -0.926  0.00  0.00    -0.248 OA
BRANCH  15  17
ATOM     17  O   UNL     1      -2.602  -0.245  -0.718  0.00  0.00    -0.463 OA
BRANCH  17  19
ATOM     18  C   UNL     1      -2.082   2.042  -1.299  0.00  0.00    +0.048 C 
ATOM     19  C   UNL     1      -1.574   0.600  -1.238  0.00  0.00    +0.229 C 
ENDBRANCH  17  19
ENDBRANCH  15  17
ENDBRANCH   5  15
BRANCH   9  20
ATOM     20  O   UNL     1      -2.450  -6.117   4.558  0.00  0.00    -0.495 OA
ATOM     21  C   UNL     1      -2.095  -7.499   4.641  0.00  0.00    +0.277 C 
ENDBRANCH   9  20
ENDBRANCH   1   6
BRANCH   2  22
ATOM     22  C   UNL     1      -4.604  -0.316   4.263  0.00  0.00    +0.019 C 
BRANCH  22  23
ATOM     23  N   UNL     1      -5.236  -0.758   5.513  0.00  0.00    +0.386 N 
ATOM     24  C   UNL     1      -5.692   0.413   6.268  0.00  0.00    -0.073 C 
ATOM     25  C   UNL     1      -6.352   0.001   7.575  0.00  0.00    -0.007 C 
ATOM     26  C   UNL     1      -5.401  -0.855   8.417  0.00  0.00    +0.011 C 
ATOM     27  C   UNL     1      -4.983  -2.055   7.559  0.00  0.00    +0.020 C 
ATOM     28  C   UNL     1      -4.263  -1.518   6.311  0.00  0.00    -0.069 C 
ATOM     29  C   UNL     1      -6.223  -2.791   7.101  0.00  0.00    +0.023 A 
ATOM     30  C   UNL     1      -6.112  -4.125   6.869  0.00  0.00    +0.022 A 
ATOM     31  C   UNL     1      -7.202  -4.855   6.382  0.00  0.00    +0.007 A 
ATOM     32  C   UNL     1      -8.369  -4.200   6.120  0.00  0.00    +0.070 A 
ATOM     33  C   UNL     1      -8.449  -2.822   6.367  0.00  0.00    +0.251 A 
ATOM     34  O   UNL     1      -9.468  -2.215   6.079  0.00  0.00    -0.268 OA
ATOM     35  N   UNL     1      -7.406  -2.158   6.923  0.00  0.00    -0.312 N 
ATOM     36  C   UNL     1      -7.636  -0.777   7.338  0.00  0.00    +0.126 C 
ATOM     37  H   UNL     1      -6.027  -1.347   5.300  0.00  0.00    -0.081 HD
ENDBRANCH  22  23
ENDBRANCH   2  22
TORSDOF 7
