REMARK  Name = ZINC66939865
REMARK  6 active torsions:
REMARK  status: ('A' for Active; 'I' for Inactive)
REMARK    1  A    between atoms: C_5  and  C_7
REMARK    2  A    between atoms: C_7  and  N_8
REMARK    3  A    between atoms: C_11  and  N_14
REMARK    4  A    between atoms: N_14  and  C_15
REMARK    5  A    between atoms: C_15  and  C_17
REMARK    6  A    between atoms: C_15  and  C_24
REMARK                            x       y       z     vdW  Elec       q    Type
REMARK                         _______ _______ _______ _____ _____    ______ ____
ROOT
ATOM      1  N   UNL     1       1.488  -2.680   1.337  0.00  0.00    +0.383 N 
ATOM      2  C   UNL     1       0.374  -2.304   2.215  0.00  0.00    -0.077 C 
ATOM      3  C   UNL     1       0.677  -2.745   3.648  0.00  0.00    -0.000 C 
ATOM      4  C   UNL     1       0.863  -4.265   3.680  0.00  0.00    +0.051 C 
ATOM      5  C   UNL     1       1.978  -4.654   2.705  0.00  0.00    -0.000 C 
ATOM      6  C   UNL     1       1.627  -4.141   1.306  0.00  0.00    -0.077 C 
ATOM      7  H   UNL     1       2.342  -2.270   1.685  0.00  0.00    -0.081 HD
ENDROOT
BRANCH   4   8
ATOM      8  N   UNL     1       1.229  -4.687   5.038  0.00  0.00    -0.299 NA
ATOM      9  H   UNL     1       2.214  -4.545   5.208  0.00  0.00    +0.123 HD
BRANCH   8  10
ATOM     10  C   UNL     1       0.850  -6.086   5.276  0.00  0.00    +0.171 C 
BRANCH  10  11
ATOM     11  C   UNL     1       1.729  -6.669   6.352  0.00  0.00    -0.021 A 
ATOM     12  C   UNL     1       2.063  -5.910   7.458  0.00  0.00    +0.008 A 
ATOM     13  C   UNL     1       2.868  -6.444   8.446  0.00  0.00    +0.038 A 
ATOM     14  C   UNL     1       3.340  -7.740   8.328  0.00  0.00    +0.123 A 
ATOM     15  C   UNL     1       3.005  -8.499   7.220  0.00  0.00    +0.038 A 
ATOM     16  C   UNL     1       2.195  -7.965   6.236  0.00  0.00    +0.008 A 
ATOM     17  F   UNL     1       4.128  -8.263   9.293  0.00  0.00    -0.205 F 
ENDBRANCH  10  11
BRANCH  10  18
ATOM     18  C   UNL     1      -0.591  -6.148   5.714  0.00  0.00    +0.232 C 
ATOM     19  O   UNL     1      -1.237  -5.127   5.819  0.00  0.00    -0.274 OA
ATOM     20  N   UNL     1      -1.160  -7.338   5.990  0.00  0.00    -0.328 N 
ATOM     21  H   UNL     1      -0.643  -8.154   5.907  0.00  0.00    +0.145 HD
ATOM     22  H   UNL     1      -2.087  -7.378   6.273  0.00  0.00    +0.145 HD
ENDBRANCH  10  18
ENDBRANCH   8  10
ENDBRANCH   4   8
BRANCH   1  23
ATOM     23  C   UNL     1       1.228  -2.186  -0.022  0.00  0.00    -0.040 C 
BRANCH  23  28
ATOM     24  C   UNL     1      -0.017   1.378   0.010  0.00  0.00    +0.000 A 
ATOM     25  C   UNL     1       1.171   2.087   0.002  0.00  0.00    +0.003 A 
ATOM     26  C   UNL     1       2.377   1.414  -0.013  0.00  0.00    +0.038 A 
ATOM     27  C   UNL     1       2.397   0.029  -0.021  0.00  0.00    +0.125 A 
ATOM     28  C   UNL     1       1.208  -0.679  -0.013  0.00  0.00    -0.029 A 
ATOM     29  C   UNL     1       0.002  -0.004   0.002  0.00  0.00    +0.004 A 
ATOM     30  F   UNL     1       3.577  -0.630  -0.036  0.00  0.00    -0.205 F 
ENDBRANCH  23  28
ENDBRANCH   1  23
TORSDOF 6
