REMARK  Name = ZINC34747149
REMARK  6 active torsions:
REMARK  status: ('A' for Active; 'I' for Inactive)
REMARK    1  A    between atoms: C_1  and  C_2
REMARK    2  A    between atoms: C_2  and  C_3
REMARK    3  A    between atoms: C_3  and  N_4
REMARK    4  A    between atoms: N_23  and  C_24
REMARK    5  A    between atoms: C_24  and  C_25
REMARK    6  A    between atoms: N_27  and  C_28
REMARK                            x       y       z     vdW  Elec       q    Type
REMARK                         _______ _______ _______ _____ _____    ______ ____
ROOT
ATOM      1  N   UNL     1       0.015  -2.766   0.231  0.00  0.00    +0.382 N 
ATOM      2  C   UNL     1      -0.247  -4.208   0.136  0.00  0.00    -0.060 C 
ATOM      3  C   UNL     1       0.435  -4.928   1.303  0.00  0.00    +0.089 C 
ATOM      4  N   UNL     1       1.862  -4.569   1.303  0.00  0.00    -0.304 N 
ATOM      5  C   UNL     1       2.218  -3.144   1.234  0.00  0.00    +0.089 C 
ATOM      6  C   UNL     1       1.452  -2.507   0.070  0.00  0.00    -0.060 C 
ATOM      7  C   UNL     1       2.833  -5.537   1.366  0.00  0.00    +0.202 A 
ATOM      8  N   UNL     1       3.299  -6.063   0.252  0.00  0.00    -0.208 NA
ATOM      9  C   UNL     1       4.239  -7.001   0.284  0.00  0.00    +0.117 A 
ATOM     10  C   UNL     1       4.780  -7.476   1.490  0.00  0.00    +0.076 A 
ATOM     11  C   UNL     1       5.808  -8.511   1.366  0.00  0.00    -0.023 A 
ATOM     12  C   UNL     1       6.133  -8.904   0.118  0.00  0.00    -0.004 A 
ATOM     13  S   UNL     1       5.106  -7.934  -0.953  0.00  0.00    -0.073 S 
ATOM     14  C   UNL     1       7.145  -9.938  -0.274  0.00  0.00    +0.043 C 
ATOM     15  C   UNL     1       8.033 -10.232   0.944  0.00  0.00    +0.005 C 
ATOM     16  C   UNL     1       7.135 -10.454   2.165  0.00  0.00    +0.005 C 
ATOM     17  C   UNL     1       6.491  -9.131   2.582  0.00  0.00    +0.037 C 
ATOM     18  C   UNL     1       4.255  -6.886   2.683  0.00  0.00    +0.264 A 
ATOM     19  O   UNL     1       4.664  -7.236   3.777  0.00  0.00    -0.267 OA
ATOM     20  N   UNL     1       3.306  -5.937   2.581  0.00  0.00    -0.271 N 
ATOM     21  H   UNL     1      -0.286  -2.431   1.133  0.00  0.00    -0.082 HD
ENDROOT
BRANCH   1  22
ATOM     22  C   UNL     1      -0.728  -2.064  -0.824  0.00  0.00    -0.079 C 
BRANCH  22  24
ATOM     23  C   UNL     1      -3.005  -1.499  -1.684  0.00  0.00    +0.002 C 
ATOM     24  C   UNL     1      -2.231  -2.230  -0.585  0.00  0.00    -0.022 C 
ENDBRANCH  22  24
ENDBRANCH   1  22
BRANCH  20  25
ATOM     25  C   UNL     1       2.768  -5.325   3.798  0.00  0.00    +0.223 C 
BRANCH  25  26
ATOM     26  C   UNL     1       1.637  -6.169   4.327  0.00  0.00    +0.233 C 
ATOM     27  O   UNL     1       1.312  -7.182   3.744  0.00  0.00    -0.274 OA
ATOM     28  N   UNL     1       0.986  -5.798   5.447  0.00  0.00    -0.311 N 
ATOM     29  H   UNL     1       1.245  -4.988   5.913  0.00  0.00    +0.149 HD
BRANCH  28  30
ATOM     30  C   UNL     1      -0.114  -6.619   5.960  0.00  0.00    +0.073 C 
ATOM     31  C   UNL     1      -1.414  -6.231   5.252  0.00  0.00    +0.022 C 
ATOM     32  C   UNL     1      -2.562  -7.088   5.788  0.00  0.00    +0.002 C 
ATOM     33  C   UNL     1      -2.712  -6.855   7.293  0.00  0.00    +0.000 C 
ATOM     34  C   UNL     1      -1.413  -7.243   8.001  0.00  0.00    +0.002 C 
ATOM     35  C   UNL     1      -0.264  -6.386   7.465  0.00  0.00    +0.022 C 
ENDBRANCH  28  30
ENDBRANCH  25  26
ENDBRANCH  20  25
TORSDOF 5
