REMARK  Name = ZINC38741777
REMARK  4 active torsions:
REMARK  status: ('A' for Active; 'I' for Inactive)
REMARK    1  A    between atoms: C_1  and  C_2
REMARK    2  A    between atoms: C_6  and  N_8
REMARK    3  A    between atoms: N_8  and  C_9
REMARK    4  A    between atoms: C_16  and  C_21
REMARK                            x       y       z     vdW  Elec       q    Type
REMARK                         _______ _______ _______ _____ _____    ______ ____
ROOT
ATOM      1  C   UNL     1      -0.040  -4.259   2.382  0.00  0.00    +0.168 C 
ATOM      2  C   UNL     1       0.841  -4.869   3.480  0.00  0.00    +0.113 C 
ATOM      3  C   UNL     1       0.092  -6.229   3.627  0.00  0.00    +0.107 C 
ATOM      4  C   UNL     1       0.662  -6.940   4.825  0.00  0.00    +0.028 C 
ATOM      5  C   UNL     1       2.106  -7.344   4.479  0.00  0.00    -0.005 C 
ATOM      6  C   UNL     1       2.963  -6.135   4.111  0.00  0.00    +0.078 C 
ATOM      7  C   UNL     1       2.245  -5.231   3.094  0.00  0.00    +0.142 C 
ATOM      8  O   UNL     1       2.758  -4.840   2.074  0.00  0.00    -0.297 OA
ATOM      9  C   UNL     1       2.730  -8.045   5.687  0.00  0.00    +0.008 C 
ATOM     10  N   UNL     1      -1.297  -5.832   3.596  0.00  0.00    -0.231 N 
ATOM     11  N   UNL     1      -1.402  -4.710   2.792  0.00  0.00    -0.217 NA
ATOM     12  C   UNL     1      -2.335  -6.460   4.251  0.00  0.00    +0.211 A 
ATOM     13  N   UNL     1      -2.214  -7.522   5.008  0.00  0.00    -0.213 NA
ATOM     14  C   UNL     1      -3.432  -7.877   5.496  0.00  0.00    +0.091 A 
ATOM     15  C   UNL     1      -3.868  -8.906   6.333  0.00  0.00    +0.030 A 
ATOM     16  C   UNL     1      -5.203  -9.005   6.657  0.00  0.00    +0.002 A 
ATOM     17  C   UNL     1      -6.118  -8.092   6.156  0.00  0.00    +0.002 A 
ATOM     18  C   UNL     1      -5.703  -7.069   5.327  0.00  0.00    +0.028 A 
ATOM     19  C   UNL     1      -4.363  -6.954   4.992  0.00  0.00    +0.067 A 
ATOM     20  N   UNL     1      -3.641  -6.065   4.212  0.00  0.00    -0.325 N 
ATOM     21  H   UNL     1      -1.901  -3.972   3.265  0.00  0.00    +0.147 HD
ATOM     22  H   UNL     1      -3.998  -5.304   3.727  0.00  0.00    +0.169 HD
ENDROOT
BRANCH   1  23
ATOM     23  N   UNL     1       0.051  -2.796   2.390  0.00  0.00    -0.327 N 
ATOM     24  H   UNL     1       0.135  -2.320   3.231  0.00  0.00    +0.148 HD
BRANCH  23  30
ATOM     25  C   UNL     1      -0.068  -2.808  -2.523  0.00  0.00    +0.044 C 
ATOM     26  C   UNL     1      -0.041  -2.068  -1.210  0.00  0.00    -0.049 A 
ATOM     27  C   UNL     1      -0.051  -0.685  -1.197  0.00  0.00    +0.003 A 
ATOM     28  C   UNL     1      -0.026  -0.002   0.005  0.00  0.00    +0.002 A 
ATOM     29  C   UNL     1       0.008  -0.699   1.197  0.00  0.00    +0.023 A 
ATOM     30  C   UNL     1       0.017  -2.088   1.187  0.00  0.00    +0.029 A 
ATOM     31  C   UNL     1      -0.013  -2.771  -0.022  0.00  0.00    +0.026 A 
ENDBRANCH  23  30
ENDBRANCH   1  23
TORSDOF 2
