REMARK  Name = ZINC13095184
REMARK  12 active torsions:
REMARK  status: ('A' for Active; 'I' for Inactive)
REMARK    1  A    between atoms: C_1  and  C_2
REMARK    2  A    between atoms: C_2  and  C_3
REMARK    3  A    between atoms: C_3  and  C_4
REMARK    4  A    between atoms: C_4  and  N_5
REMARK    5  A    between atoms: C_6  and  N_37
REMARK    6  A    between atoms: C_7  and  N_14
REMARK    7  A    between atoms: N_14  and  C_15
REMARK    8  A    between atoms: C_15  and  C_16
REMARK    9  A    between atoms: C_21  and  O_22
REMARK   10  A    between atoms: O_22  and  C_23
REMARK   11  A    between atoms: C_24  and  C_26
REMARK   12  A    between atoms: C_26  and  C_30
REMARK                            x       y       z     vdW  Elec       q    Type
REMARK                         _______ _______ _______ _____ _____    ______ ____
ROOT
ATOM      1  N   UNL     1      -6.001   2.139  -1.742  0.00  0.00    -0.259 N 
ATOM      2  C   UNL     1      -5.576   0.859  -1.705  0.00  0.00    +0.231 C 
ATOM      3  O   UNL     1      -5.668   0.160  -2.692  0.00  0.00    -0.274 OA
ENDROOT
BRANCH   1   6
ATOM      4  N   UNL     1      -6.003   4.357   1.188  0.00  0.00    -0.280 N 
ATOM      5  C   UNL     1      -5.587   3.740   0.031  0.00  0.00    +0.127 A 
ATOM      6  C   UNL     1      -6.397   2.786  -0.552  0.00  0.00    +0.140 A 
ATOM      7  C   UNL     1      -7.622   2.467   0.063  0.00  0.00    +0.277 A 
ATOM      8  O   UNL     1      -8.354   1.625  -0.429  0.00  0.00    -0.266 OA
ATOM      9  N   UNL     1      -7.980   3.097   1.198  0.00  0.00    -0.273 N 
ATOM     10  H   UNL     1      -8.850   2.871   1.636  0.00  0.00    +0.173 HD
ATOM     11  C   UNL     1      -7.180   4.027   1.750  0.00  0.00    +0.331 A 
ATOM     12  O   UNL     1      -7.528   4.581   2.775  0.00  0.00    -0.246 OA
BRANCH   5  13
ATOM     13  N   UNL     1      -4.382   4.072  -0.540  0.00  0.00    -0.343 N 
ATOM     14  H   UNL     1      -4.113   3.663  -1.377  0.00  0.00    +0.144 HD
ATOM     15  H   UNL     1      -3.800   4.715  -0.105  0.00  0.00    +0.144 HD
ENDBRANCH   5  13
BRANCH   4  16
ATOM     16  C   UNL     1      -5.156   5.375   1.815  0.00  0.00    +0.128 C 
BRANCH  16  17
ATOM     17  C   UNL     1      -5.180   6.649   0.970  0.00  0.00    +0.021 C 
BRANCH  17  19
ATOM     18  C   UNL     1      -6.653   8.309  -0.179  0.00  0.00    +0.004 C 
ATOM     19  C   UNL     1      -6.630   7.034   0.667  0.00  0.00    -0.002 C 
ENDBRANCH  17  19
ENDBRANCH  16  17
ENDBRANCH   4  16
ENDBRANCH   1   6
BRANCH   2  20
ATOM     20  C   UNL     1      -4.988   0.297  -0.436  0.00  0.00    +0.072 C 
ATOM     21  C   UNL     1      -5.953  -0.614   0.340  0.00  0.00    +0.021 C 
ATOM     22  C   UNL     1      -5.397  -1.781  -0.496  0.00  0.00    +0.003 C 
ATOM     23  C   UNL     1      -4.114  -0.948  -0.661  0.00  0.00    +0.021 C 
BRANCH  20  24
ATOM     24  C   UNL     1      -4.331   1.349   0.420  0.00  0.00    -0.032 A 
ATOM     25  C   UNL     1      -5.096   2.337   1.010  0.00  0.00    +0.006 A 
ATOM     26  C   UNL     1      -4.494   3.302   1.795  0.00  0.00    +0.020 A 
ATOM     27  C   UNL     1      -3.125   3.278   1.992  0.00  0.00    +0.041 A 
ATOM     28  C   UNL     1      -2.359   2.288   1.401  0.00  0.00    +0.020 A 
ATOM     29  C   UNL     1      -2.962   1.324   0.616  0.00  0.00    +0.006 A 
ATOM     30 CL   UNL     1      -2.368   4.489   2.978  0.00  0.00    -0.084 Cl
ENDBRANCH  20  24
ENDBRANCH   2  20
BRANCH   1  31
ATOM     31  C   UNL     1      -6.051   2.858  -3.018  0.00  0.00    +0.152 C 
BRANCH  31  32
ATOM     32  C   UNL     1      -7.327   2.511  -3.740  0.00  0.00    +0.012 A 
ATOM     33  C   UNL     1      -7.304   1.621  -4.797  0.00  0.00    +0.009 A 
ATOM     34  C   UNL     1      -8.476   1.299  -5.456  0.00  0.00    +0.001 A 
ATOM     35  C   UNL     1      -9.672   1.875  -5.068  0.00  0.00    +0.004 A 
ATOM     36  C   UNL     1      -9.699   2.769  -4.015  0.00  0.00    +0.046 A 
ATOM     37  C   UNL     1      -8.525   3.090  -3.348  0.00  0.00    +0.125 A 
BRANCH  37  38
ATOM     38  O   UNL     1      -8.550   3.970  -2.313  0.00  0.00    -0.495 OA
ATOM     39  C   UNL     1      -9.831   4.442  -1.893  0.00  0.00    +0.277 C 
ENDBRANCH  37  38
ENDBRANCH  31  32
ENDBRANCH   1  31
TORSDOF 10
