REMARK  Name = ZINC39344729
REMARK  17 active torsions:
REMARK  status: ('A' for Active; 'I' for Inactive)
REMARK    1  A    between atoms: C_1  and  C_2
REMARK    2  A    between atoms: C_2  and  C_4
REMARK    3  A    between atoms: C_2  and  N_10
REMARK    4  A    between atoms: C_4  and  C_5
REMARK    5  A    between atoms: C_5  and  C_6
REMARK    6  A    between atoms: C_5  and  C_7
REMARK    7  A    between atoms: C_5  and  O_8
REMARK    8  A    between atoms: O_8  and  C_9
REMARK    9  A    between atoms: N_10  and  C_11
REMARK   10  A    between atoms: N_17  and  C_30
REMARK   11  A    between atoms: C_18  and  C_26
REMARK   12  A    between atoms: C_20  and  N_22
REMARK   13  A    between atoms: C_23  and  C_25
REMARK   14  A    between atoms: C_26  and  O_28
REMARK   15  A    between atoms: O_28  and  C_29
REMARK   16  A    between atoms: C_30  and  C_31
REMARK   17  A    between atoms: C_31  and  C_32
REMARK                            x       y       z     vdW  Elec       q    Type
REMARK                         _______ _______ _______ _____ _____    ______ ____
ROOT
ATOM      1  C   UNL     1      -0.173  -0.503   2.354  0.00  0.00    +0.044 A 
ATOM      2  C   UNL     1       0.465  -0.831   3.549  0.00  0.00    +0.033 A 
ATOM      3  C   UNL     1      -0.303  -0.965   4.690  0.00  0.00    +0.015 A 
ATOM      4  C   UNL     1      -1.676  -0.774   4.631  0.00  0.00    +0.105 A 
ATOM      5  N   UNL     1      -2.246  -0.461   3.467  0.00  0.00    -0.348 N 
ATOM      6  C   UNL     1      -1.547  -0.319   2.360  0.00  0.00    +0.107 A 
ATOM      7  N   UNL     1      -2.271  -0.952   5.878  0.00  0.00    -0.301 N 
ATOM      8  C   UNL     1      -1.256  -1.289   6.879  0.00  0.00    +0.208 C 
ATOM      9  C   UNL     1       0.077  -1.306   6.112  0.00  0.00    +0.138 C 
ATOM     10  H   UNL     1      -3.206  -0.329   3.436  0.00  0.00    +0.167 HD
ENDROOT
BRANCH   9  11
ATOM     11  N   UNL     1       0.991  -0.297   6.654  0.00  0.00    -0.306 N 
ATOM     12  C   UNL     1       2.319  -0.412   6.450  0.00  0.00    +0.210 C 
ATOM     13  O   UNL     1       2.756  -1.351   5.819  0.00  0.00    -0.276 OA
ATOM     14  C   UNL     1       3.259   0.625   7.007  0.00  0.00    +0.109 C 
ATOM     15  H   UNL     1       0.642   0.453   7.159  0.00  0.00    +0.149 HD
ENDBRANCH   9  11
BRANCH   1  16
ATOM     16  N   UNL     1       0.561  -0.356   1.170  0.00  0.00    -0.340 N 
ATOM     17  H   UNL     1       1.522  -0.487   1.176  0.00  0.00    +0.146 HD
BRANCH  16  19
ATOM     18  C   UNL     1      -0.283   1.514  -0.161  0.00  0.00    +0.028 C 
ATOM     19  C   UNL     1      -0.123  -0.005  -0.077  0.00  0.00    +0.070 C 
BRANCH  19  20
ATOM     20  C   UNL     1       0.703  -0.498  -1.267  0.00  0.00    +0.056 C 
BRANCH  20  21
ATOM     21  C   UNL     1       0.739  -2.027  -1.265  0.00  0.00    +0.065 C 
ATOM     22  C   UNL     1      -0.687  -2.571  -1.370  0.00  0.00    +0.041 C 
ATOM     23  C   UNL     1       1.562  -2.520  -2.457  0.00  0.00    +0.041 C 
BRANCH  21  24
ATOM     24  O   UNL     1       1.336  -2.488  -0.051  0.00  0.00    -0.377 OA
ATOM     25  C   UNL     1       1.419  -3.911   0.052  0.00  0.00    +0.194 C 
ENDBRANCH  21  24
ENDBRANCH  20  21
ENDBRANCH  19  20
ENDBRANCH  16  19
ENDBRANCH   1  16
BRANCH   8  26
ATOM     26  C   UNL     1      -1.224  -0.244   7.964  0.00  0.00    +0.330 C 
ATOM     27  O   UNL     1      -1.709   0.845   7.768  0.00  0.00    -0.249 OA
BRANCH  26  28
ATOM     28  O   UNL     1      -0.657  -0.523   9.148  0.00  0.00    -0.467 OA
ATOM     29  C   UNL     1      -0.662   0.515  10.131  0.00  0.00    +0.280 C 
ENDBRANCH  26  28
ENDBRANCH   8  26
BRANCH   7  30
ATOM     30  C   UNL     1      -3.704  -0.820   6.149  0.00  0.00    +0.112 C 
BRANCH  30  31
ATOM     31  C   UNL     1      -4.387  -2.175   5.957  0.00  0.00    +0.056 C 
BRANCH  31  32
ATOM     32  C   UNL     1      -5.862  -2.039   6.236  0.00  0.00    -0.021 A 
ATOM     33  C   UNL     1      -6.891  -1.605   5.289  0.00  0.00    +0.003 A 
ATOM     34  C   UNL     1      -6.874  -1.210   3.950  0.00  0.00    +0.010 A 
ATOM     35  C   UNL     1      -8.040  -0.854   3.332  0.00  0.00    +0.001 A 
ATOM     36  C   UNL     1      -9.242  -0.881   4.026  0.00  0.00    +0.002 A 
ATOM     37  C   UNL     1      -9.282  -1.268   5.348  0.00  0.00    +0.026 A 
ATOM     38  C   UNL     1      -8.107  -1.635   5.996  0.00  0.00    +0.047 A 
ATOM     39  N   UNL     1      -7.823  -2.057   7.275  0.00  0.00    -0.360 N 
ATOM     40  C   UNL     1      -6.481  -2.299   7.398  0.00  0.00    +0.087 A 
ATOM     41  H   UNL     1      -8.476  -2.171   7.983  0.00  0.00    +0.165 HD
ENDBRANCH  31  32
ENDBRANCH  30  31
ENDBRANCH   7  30
TORSDOF 11
