REMARK  Name = ZINC59147685
REMARK  4 active torsions:
REMARK  status: ('A' for Active; 'I' for Inactive)
REMARK    1  A    between atoms: C_6  and  N_7
REMARK    2  A    between atoms: N_7  and  N_8
REMARK    3  A    between atoms: C_9  and  C_10
REMARK    4  A    between atoms: C_12  and  N_17
REMARK                            x       y       z     vdW  Elec       q    Type
REMARK                         _______ _______ _______ _____ _____    ______ ____
ROOT
ATOM      1  N   UNL     1      -1.175  -2.121   0.002  0.00  0.00    -0.190 NA
ATOM      2  C   UNL     1      -2.290  -2.786   0.010  0.00  0.00    +0.139 C 
ENDROOT
BRANCH   2   3
ATOM      3  C   UNL     1      -2.268  -4.261   0.002  0.00  0.00    +0.015 A 
ATOM      4  C   UNL     1      -3.465  -4.981   0.004  0.00  0.00    +0.043 A 
ATOM      5  C   UNL     1      -3.437  -6.359  -0.004  0.00  0.00    +0.127 A 
ATOM      6  C   UNL     1      -2.227  -7.031  -0.013  0.00  0.00    +0.034 A 
ATOM      7  C   UNL     1      -1.037  -6.326  -0.015  0.00  0.00    +0.023 A 
ATOM      8  C   UNL     1      -1.049  -4.945  -0.014  0.00  0.00    +0.050 A 
ATOM      9 CL   UNL     1       0.446  -4.061  -0.024  0.00  0.00    -0.083 Cl
BRANCH   5  10
ATOM     10  N   UNL     1      -4.705  -7.123  -0.001  0.00  0.00    +0.056 N 
ATOM     11  O   UNL     1      -5.763  -6.538   0.007  0.00  0.00    -0.126 OA
ATOM     12  O   UNL     1      -4.682  -8.332  -0.008  0.00  0.00    -0.126 OA
ENDBRANCH   5  10
ENDBRANCH   2   3
BRANCH   1  13
ATOM     13  N   UNL     1      -1.196  -0.720   0.010  0.00  0.00    -0.238 N 
ATOM     14  H   UNL     1      -2.043  -0.247   0.021  0.00  0.00    +0.174 HD
BRANCH  13  20
ATOM     15  C   UNL     1      -0.017   1.386   0.010  0.00  0.00    +0.026 A 
ATOM     16  C   UNL     1       1.170   2.091   0.002  0.00  0.00    +0.016 A 
ATOM     17  C   UNL     1       2.378   1.415  -0.013  0.00  0.00    +0.013 A 
ATOM     18  C   UNL     1       2.400   0.032  -0.021  0.00  0.00    +0.016 A 
ATOM     19  C   UNL     1       1.217  -0.679  -0.014  0.00  0.00    +0.026 A 
ATOM     20  C   UNL     1       0.002  -0.004   0.002  0.00  0.00    +0.048 A 
ATOM     21  I   UNL     1       4.176   2.490  -0.025  0.00  0.00    -0.044 I 
ENDBRANCH  13  20
ENDBRANCH   1  13
TORSDOF 4
