REMARK  Name = ZINC35573827
REMARK  15 active torsions:
REMARK  status: ('A' for Active; 'I' for Inactive)
REMARK    1  A    between atoms: C_1  and  C_2
REMARK    2  A    between atoms: C_2  and  C_3
REMARK    3  A    between atoms: C_2  and  C_4
REMARK    4  A    between atoms: C_4  and  O_5
REMARK    5  A    between atoms: O_5  and  C_6
REMARK    6  A    between atoms: C_6  and  C_7
REMARK    7  A    between atoms: C_7  and  C_9
REMARK    8  A    between atoms: C_7  and  O_37
REMARK    9  A    between atoms: C_9  and  N_10
REMARK   10  A    between atoms: N_10  and  C_11
REMARK   11  A    between atoms: N_10  and  C_12
REMARK   12  A    between atoms: C_12  and  C_13
REMARK   13  A    between atoms: N_16  and  C_18
REMARK   14  A    between atoms: N_27  and  C_29
REMARK   15  A    between atoms: C_29  and  C_30
REMARK                            x       y       z     vdW  Elec       q    Type
REMARK                         _______ _______ _______ _____ _____    ______ ____
ROOT
ATOM      1  C   UNL     1      -4.906  -8.298  -0.285  0.00  0.00    +0.052 A 
ATOM      2  C   UNL     1      -5.029  -9.021  -1.468  0.00  0.00    +0.009 A 
ATOM      3  C   UNL     1      -4.939 -10.343  -1.163  0.00  0.00    +0.051 A 
ATOM      4  N   UNL     1      -4.763 -10.449   0.164  0.00  0.00    -0.236 N 
ATOM      5  N   UNL     1      -4.741  -9.151   0.698  0.00  0.00    -0.173 NA
ATOM      6  C   UNL     1      -5.034 -11.437  -2.198  0.00  0.00    +0.071 C 
ATOM      7  C   UNL     1      -5.625 -10.825  -3.476  0.00  0.00    +0.091 C 
ATOM      8  N   UNL     1      -4.903  -9.590  -3.812  0.00  0.00    -0.294 NA
ATOM      9  C   UNL     1      -5.225  -8.503  -2.871  0.00  0.00    +0.123 C 
ENDROOT
BRANCH   4  10
ATOM     10  C   UNL     1      -4.622 -11.643   0.886  0.00  0.00    +0.066 A 
ATOM     11  C   UNL     1      -3.833 -12.669   0.385  0.00  0.00    +0.029 A 
ATOM     12  C   UNL     1      -3.696 -13.844   1.098  0.00  0.00    +0.022 A 
ATOM     13  C   UNL     1      -4.343 -13.998   2.311  0.00  0.00    +0.041 A 
ATOM     14  C   UNL     1      -5.130 -12.976   2.813  0.00  0.00    +0.022 A 
ATOM     15  C   UNL     1      -5.266 -11.797   2.107  0.00  0.00    +0.029 A 
ATOM     16 CL   UNL     1      -4.169 -15.477   3.204  0.00  0.00    -0.084 Cl
ENDBRANCH   4  10
BRANCH   1  17
ATOM     17  C   UNL     1      -4.949  -6.797  -0.156  0.00  0.00    -0.021 C 
BRANCH  17  18
ATOM     18  N   UNL     1      -3.591  -6.255  -0.296  0.00  0.00    +0.383 N 
ATOM     19  C   UNL     1      -2.761  -6.717   0.824  0.00  0.00    -0.096 C 
ATOM     20  H   UNL     1      -3.190  -6.573  -1.166  0.00  0.00    -0.082 HD
BRANCH  18  21
ATOM     21  C   UNL     1      -3.647  -4.787  -0.291  0.00  0.00    -0.045 C 
BRANCH  21  22
ATOM     22  C   UNL     1      -2.252  -4.222  -0.561  0.00  0.00    +0.124 C 
BRANCH  22  23
ATOM     23  O   UNL     1      -1.841  -4.580  -1.883  0.00  0.00    -0.391 OA
ATOM     24  H   UNL     1      -2.423  -4.247  -2.579  0.00  0.00    +0.210 HD
ENDBRANCH  22  23
BRANCH  22  25
ATOM     25  C   UNL     1      -2.284  -2.698  -0.433  0.00  0.00    +0.189 C 
BRANCH  25  26
ATOM     26  O   UNL     1      -0.960  -2.180  -0.570  0.00  0.00    -0.377 OA
BRANCH  26  27
ATOM     27  C   UNL     1      -0.878  -0.757  -0.465  0.00  0.00    +0.163 C 
BRANCH  27  29
ATOM     28  C   UNL     1       0.649   1.212  -0.638  0.00  0.00    +0.009 C 
ATOM     29  C   UNL     1       0.578  -0.316  -0.626  0.00  0.00    +0.009 C 
ATOM     30  C   UNL     1       1.407  -0.856   0.541  0.00  0.00    +0.009 C 
ENDBRANCH  27  29
ENDBRANCH  26  27
ENDBRANCH  25  26
ENDBRANCH  22  25
ENDBRANCH  21  22
ENDBRANCH  18  21
ENDBRANCH  17  18
ENDBRANCH   1  17
BRANCH   8  31
ATOM     31  C   UNL     1      -5.173  -9.183  -5.198  0.00  0.00    +0.120 C 
BRANCH  31  32
ATOM     32  C   UNL     1      -4.595 -10.205  -6.143  0.00  0.00    -0.032 A 
ATOM     33  C   UNL     1      -3.296 -10.071  -6.595  0.00  0.00    +0.005 A 
ATOM     34  C   UNL     1      -2.765 -11.007  -7.462  0.00  0.00    +0.002 A 
ATOM     35  C   UNL     1      -3.534 -12.079  -7.878  0.00  0.00    +0.020 A 
ATOM     36  C   UNL     1      -4.834 -12.213  -7.426  0.00  0.00    +0.041 A 
ATOM     37  C   UNL     1      -5.363 -11.278  -6.553  0.00  0.00    +0.025 A 
ATOM     38 CL   UNL     1      -5.800 -13.558  -7.947  0.00  0.00    -0.084 Cl
ENDBRANCH  31  32
ENDBRANCH   8  31
TORSDOF 12
