REMARK  Name = ZINC32854222
REMARK  8 active torsions:
REMARK  status: ('A' for Active; 'I' for Inactive)
REMARK    1  A    between atoms: C_3  and  N_30
REMARK    2  A    between atoms: C_5  and  O_7
REMARK    3  A    between atoms: O_7  and  C_8
REMARK    4  A    between atoms: C_8  and  C_9
REMARK    5  A    between atoms: C_9  and  C_11
REMARK    6  A    between atoms: C_9  and  O_29
REMARK    7  A    between atoms: C_11  and  N_12
REMARK    8  A    between atoms: C_19  and  C_22
REMARK                            x       y       z     vdW  Elec       q    Type
REMARK                         _______ _______ _______ _____ _____    ______ ____
ROOT
ATOM      1  N   UNL     1       2.110   9.543  -0.095  0.00  0.00    -0.296 N 
ATOM      2  C   UNL     1       2.127  10.211   1.087  0.00  0.00    +0.203 A 
ATOM      3  N   UNL     1       1.943  11.503   1.136  0.00  0.00    -0.230 NA
ATOM      4  C   UNL     1       1.732  12.207   0.027  0.00  0.00    +0.116 A 
ATOM      5  C   UNL     1       1.697  11.604  -1.240  0.00  0.00    +0.080 A 
ATOM      6  C   UNL     1       1.908  10.188  -1.259  0.00  0.00    +0.263 A 
ATOM      7  O   UNL     1       1.900   9.575  -2.312  0.00  0.00    -0.267 OA
ATOM      8  C   UNL     1       1.455  12.515  -2.352  0.00  0.00    +0.004 A 
ATOM      9  C   UNL     1       1.288  13.834  -2.089  0.00  0.00    +0.056 A 
ATOM     10  S   UNL     1       1.447  13.924  -0.316  0.00  0.00    -0.076 S 
ENDROOT
BRANCH   8  11
ATOM     11  C   UNL     1       1.394  12.009  -3.744  0.00  0.00    -0.016 A 
ATOM     12  C   UNL     1       2.409  11.189  -4.235  0.00  0.00    +0.010 A 
ATOM     13  C   UNL     1       2.345  10.717  -5.530  0.00  0.00    +0.020 A 
ATOM     14  C   UNL     1       1.281  11.065  -6.345  0.00  0.00    +0.041 A 
ATOM     15  C   UNL     1       0.273  11.883  -5.864  0.00  0.00    +0.020 A 
ATOM     16  C   UNL     1       0.325  12.356  -4.569  0.00  0.00    +0.010 A 
ATOM     17 CL   UNL     1       1.210  10.472  -7.975  0.00  0.00    -0.084 Cl
ENDBRANCH   8  11
BRANCH   1  18
ATOM     18  C   UNL     1       2.322   8.094  -0.104  0.00  0.00    +0.161 C 
BRANCH  18  19
ATOM     19  C   UNL     1       0.975   7.381   0.031  0.00  0.00    +0.172 C 
BRANCH  19  20
ATOM     20  O   UNL     1       0.354   7.764   1.260  0.00  0.00    -0.387 OA
ATOM     21  H   UNL     1       0.116   8.820   1.450  0.00  0.00    +0.210 HD
ENDBRANCH  19  20
BRANCH  19  22
ATOM     22  C   UNL     1       1.196   5.867   0.021  0.00  0.00    +0.262 C 
BRANCH  22  23
ATOM     23  O   UNL     1      -0.069   5.201   0.030  0.00  0.00    -0.489 OA
BRANCH  23  28
ATOM     24  C   UNL     1       1.176   1.782   0.000  0.00  0.00    +0.006 A 
ATOM     25  C   UNL     1      -0.013   1.076   0.008  0.00  0.00    +0.033 A 
ATOM     26  C   UNL     1      -1.220   1.750   0.017  0.00  0.00    +0.130 A 
ATOM     27  C   UNL     1      -1.241   3.131   0.031  0.00  0.00    +0.078 A 
ATOM     28  C   UNL     1      -0.050   3.842   0.023  0.00  0.00    +0.123 A 
ATOM     29  C   UNL     1       1.160   3.163   0.008  0.00  0.00    +0.046 A 
BRANCH  26  30
ATOM     30  N   UNL     1      -2.490   0.990   0.019  0.00  0.00    +0.057 N 
ATOM     31  O   UNL     1      -2.472  -0.228   0.012  0.00  0.00    -0.126 OA
ATOM     32  O   UNL     1      -3.554   1.583   0.027  0.00  0.00    -0.126 OA
ENDBRANCH  26  30
ENDBRANCH  23  28
ENDBRANCH  22  23
ENDBRANCH  19  22
ENDBRANCH  18  19
ENDBRANCH   1  18
TORSDOF 8
