REMARK  Name = ZINC09566902
REMARK  11 active torsions:
REMARK  status: ('A' for Active; 'I' for Inactive)
REMARK    1  A    between atoms: C_1  and  C_2
REMARK    2  A    between atoms: C_2  and  C_3
REMARK    3  A    between atoms: C_2  and  C_4
REMARK    4  A    between atoms: C_4  and  N_5
REMARK    5  A    between atoms: C_6  and  C_22
REMARK    6  A    between atoms: C_9  and  S_10
REMARK    7  A    between atoms: S_10  and  C_11
REMARK    8  A    between atoms: C_11  and  C_13
REMARK    9  A    between atoms: C_11  and  C_16
REMARK   10  A    between atoms: C_13  and  C_14
REMARK   11  A    between atoms: C_13  and  C_15
REMARK                            x       y       z     vdW  Elec       q    Type
REMARK                         _______ _______ _______ _____ _____    ______ ____
ROOT
ATOM      1  N   UNL     1      -0.020   1.094   2.454  0.00  0.00    -0.299 N 
ATOM      2  C   UNL     1      -0.243  -0.084   3.133  0.00  0.00    +0.200 A 
ATOM      3  N   UNL     1       0.614  -0.121   4.130  0.00  0.00    -0.125 NA
ATOM      4  N   UNL     1       1.339   0.940   4.124  0.00  0.00    -0.122 NA
ATOM      5  C   UNL     1       0.996   1.718   3.122  0.00  0.00    +0.193 A 
ENDROOT
BRANCH   2   6
ATOM      6  C   UNL     1      -1.247  -1.108   2.804  0.00  0.00    +0.172 A 
ATOM      7  C   UNL     1      -1.276  -2.383   3.282  0.00  0.00    +0.053 A 
ATOM      8  C   UNL     1      -2.402  -3.005   2.710  0.00  0.00    +0.042 A 
ATOM      9  C   UNL     1      -2.995  -2.094   1.913  0.00  0.00    +0.196 A 
ATOM     10  O   UNL     1      -2.295  -0.949   1.971  0.00  0.00    -0.460 OA
ENDBRANCH   2   6
BRANCH   1  11
ATOM     11  C   UNL     1      -0.729   1.579   1.267  0.00  0.00    +0.129 C 
BRANCH  11  13
ATOM     12  C   UNL     1       1.423   1.615  -0.003  0.00  0.00    +0.009 C 
ATOM     13  C   UNL     1      -0.013   1.086   0.008  0.00  0.00    +0.003 C 
ATOM     14  C   UNL     1      -0.753   1.593  -1.232  0.00  0.00    +0.009 C 
ENDBRANCH  11  13
ENDBRANCH   1  11
BRANCH   5  15
ATOM     15  S   UNL     1       1.712   3.276   2.716  0.00  0.00    -0.073 S 
BRANCH  15  16
ATOM     16  C   UNL     1       2.951   3.404   4.029  0.00  0.00    +0.143 C 
BRANCH  16  17
ATOM     17  C   UNL     1       3.625   4.750   3.953  0.00  0.00    +0.234 C 
ATOM     18  O   UNL     1       3.584   5.391   2.925  0.00  0.00    -0.274 OA
ATOM     19  N   UNL     1       4.274   5.239   5.028  0.00  0.00    -0.239 N 
ATOM     20  C   UNL     1       4.877   6.443   4.960  0.00  0.00    +0.303 C 
ATOM     21  O   UNL     1       4.836   7.086   3.930  0.00  0.00    -0.253 OA
ATOM     22  N   UNL     1       5.526   6.933   6.035  0.00  0.00    -0.313 N 
ATOM     23  H   UNL     1       4.312   4.657   5.960  0.00  0.00    +0.159 HD
ATOM     24  H   UNL     1       6.019   7.915   5.980  0.00  0.00    +0.146 HD
ATOM     25  H   UNL     1       5.564   6.350   6.968  0.00  0.00    +0.146 HD
ENDBRANCH  16  17
BRANCH  16  26
ATOM     26  C   UNL     1       3.995   2.300   3.854  0.00  0.00    +0.005 C 
ATOM     27  C   UNL     1       4.762   2.525   2.549  0.00  0.00    +0.009 C 
ATOM     28  C   UNL     1       4.972   2.330   5.031  0.00  0.00    +0.009 C 
ENDBRANCH  16  26
ENDBRANCH  15  16
ENDBRANCH   5  15
TORSDOF 7
