REMARK  Name = ZINC63373042
REMARK  5 active torsions:
REMARK  status: ('A' for Active; 'I' for Inactive)
REMARK    1  A    between atoms: C_1  and  C_2
REMARK    2  A    between atoms: C_2  and  O_3
REMARK    3  A    between atoms: O_3  and  C_4
REMARK    4  A    between atoms: C_7  and  N_10
REMARK    5  A    between atoms: C_13  and  C_20
REMARK                            x       y       z     vdW  Elec       q    Type
REMARK                         _______ _______ _______ _____ _____    ______ ____
ROOT
ATOM      1  N   UNL     1      -1.998  -5.997  -0.153  0.00  0.00    -0.229 N 
ATOM      2  C   UNL     1      -3.234  -6.524  -0.056  0.00  0.00    +0.270 A 
ATOM      3  O   UNL     1      -4.214  -5.801  -0.086  0.00  0.00    -0.267 OA
ATOM      4  C   UNL     1      -3.385  -7.916   0.080  0.00  0.00    +0.101 A 
ATOM      5  C   UNL     1      -2.273  -8.703   0.110  0.00  0.00    +0.263 A 
ATOM      6  N   UNL     1      -1.033  -8.125   0.008  0.00  0.00    -0.274 N 
ATOM      7  H   UNL     1      -0.238  -8.681   0.029  0.00  0.00    +0.173 HD
ATOM      8  C   UNL     1      -0.912  -6.791  -0.127  0.00  0.00    +0.337 A 
ATOM      9  O   UNL     1       0.195  -6.296  -0.220  0.00  0.00    -0.246 OA
ATOM     10  O   UNL     1      -2.390 -10.042   0.239  0.00  0.00    -0.267 OA
ENDROOT
BRANCH   4  11
ATOM     11  C   UNL     1      -4.758  -8.528   0.190  0.00  0.00    +0.121 C 
ATOM     12  C   UNL     1      -4.940  -9.586  -0.900  0.00  0.00    +0.128 C 
ATOM     13  C   UNL     1      -3.961 -10.708  -0.574  0.00  0.00    -0.035 C 
ATOM     14  C   UNL     1      -3.232 -10.898  -1.664  0.00  0.00    -0.001 A 
ATOM     15  C   UNL     1      -2.192 -11.888  -1.990  0.00  0.00    +0.010 A 
ATOM     16  C   UNL     1      -1.629 -11.784  -3.223  0.00  0.00    +0.001 A 
ATOM     17  C   UNL     1      -1.992 -10.805  -4.153  0.00  0.00    +0.002 A 
ATOM     18  C   UNL     1      -2.941  -9.858  -3.941  0.00  0.00    +0.026 A 
ATOM     19  C   UNL     1      -3.609  -9.870  -2.682  0.00  0.00    +0.043 A 
ATOM     20  N   UNL     1      -4.575  -9.095  -2.228  0.00  0.00    -0.376 N 
ATOM     21  C   UNL     1      -3.885 -11.316   0.806  0.00  0.00    +0.048 C 
ATOM     22  C   UNL     1      -3.831 -10.136   1.794  0.00  0.00    +0.086 C 
ATOM     23  N   UNL     1      -4.905  -9.182   1.500  0.00  0.00    -0.307 NA
ATOM     24  H   UNL     1      -4.994  -8.499   2.238  0.00  0.00    +0.123 HD
ATOM     25  H   UNL     1      -4.972  -8.335  -2.681  0.00  0.00    +0.160 HD
ENDBRANCH   4  11
BRANCH   1  29
ATOM     26  C   UNL     1      -1.536  -1.871  -0.557  0.00  0.00    +0.121 A 
ATOM     27  C   UNL     1      -1.661  -2.668  -1.686  0.00  0.00    +0.047 A 
ATOM     28  C   UNL     1      -1.814  -4.034  -1.552  0.00  0.00    +0.030 A 
ATOM     29  C   UNL     1      -1.842  -4.609  -0.289  0.00  0.00    +0.055 A 
ATOM     30  C   UNL     1      -1.716  -3.811   0.840  0.00  0.00    +0.030 A 
ATOM     31  C   UNL     1      -1.558  -2.446   0.705  0.00  0.00    +0.047 A 
BRANCH  26  32
ATOM     32  O   UNL     1      -1.385  -0.526  -0.689  0.00  0.00    -0.492 OA
BRANCH  32  34
ATOM     33  C   UNL     1      -1.195   1.517  -1.966  0.00  0.00    +0.048 C 
ATOM     34  C   UNL     1      -1.372  -0.002  -2.018  0.00  0.00    +0.225 C 
ENDBRANCH  32  34
ENDBRANCH  26  32
ENDBRANCH   1  29
TORSDOF 4
