REMARK  Name = ZINC66924944
REMARK  8 active torsions:
REMARK  status: ('A' for Active; 'I' for Inactive)
REMARK    1  A    between atoms: C_1  and  C_2
REMARK    2  A    between atoms: N_7  and  C_9
REMARK    3  A    between atoms: C_9  and  C_10
REMARK    4  A    between atoms: C_10  and  C_11
REMARK    5  A    between atoms: C_11  and  N_12
REMARK    6  A    between atoms: C_18  and  N_21
REMARK    7  A    between atoms: C_22  and  C_24
REMARK    8  A    between atoms: C_24  and  C_25
REMARK                            x       y       z     vdW  Elec       q    Type
REMARK                         _______ _______ _______ _____ _____    ______ ____
ROOT
ATOM      1  N   UNL     1       1.901  -5.954   3.854  0.00  0.00    -0.299 N 
ATOM      2  C   UNL     1       2.430  -6.622   4.899  0.00  0.00    +0.302 C 
ATOM      3  O   UNL     1       3.060  -6.022   5.748  0.00  0.00    -0.253 OA
ATOM      4  N   UNL     1       2.260  -7.955   5.002  0.00  0.00    -0.286 N 
ATOM      5  C   UNL     1       1.603  -8.711   3.927  0.00  0.00    +0.111 C 
ATOM      6  C   UNL     1       0.449  -9.521   4.527  0.00  0.00    +0.041 C 
ATOM      7  C   UNL     1       0.981 -10.388   5.671  0.00  0.00    +0.076 C 
ATOM      8  C   UNL     1       1.563  -9.490   6.766  0.00  0.00    +0.041 C 
ATOM      9  C   UNL     1       2.734  -8.681   6.188  0.00  0.00    +0.111 C 
ATOM     10  H   UNL     1       1.462  -6.440   3.139  0.00  0.00    +0.150 HD
ENDROOT
BRANCH   7  11
ATOM     11  N   UNL     1      -0.113 -11.188   6.226  0.00  0.00    -0.312 N 
ATOM     12  C   UNL     1       0.154 -12.349   6.857  0.00  0.00    +0.214 C 
ATOM     13  O   UNL     1       1.300 -12.730   6.966  0.00  0.00    -0.276 OA
ATOM     14  H   UNL     1      -1.030 -10.883   6.139  0.00  0.00    +0.149 HD
BRANCH  12  15
ATOM     15  C   UNL     1      -0.972 -13.172   7.428  0.00  0.00    +0.099 C 
BRANCH  15  16
ATOM     16  C   UNL     1      -0.400 -14.430   8.086  0.00  0.00    -0.002 C 
ATOM     17  C   UNL     1       0.193 -15.365   7.012  0.00  0.00    +0.004 C 
ATOM     18  C   UNL     1      -0.156 -16.788   7.513  0.00  0.00    +0.000 C 
ATOM     19  C   UNL     1      -1.574 -16.604   8.107  0.00  0.00    +0.000 C 
ATOM     20  C   UNL     1      -1.524 -15.217   8.782  0.00  0.00    +0.004 C 
ENDBRANCH  15  16
ENDBRANCH  12  15
ENDBRANCH   7  11
BRANCH   1  21
ATOM     21  C   UNL     1       1.990  -4.492   3.800  0.00  0.00    +0.104 C 
BRANCH  21  22
ATOM     22  C   UNL     1       1.317  -3.989   2.521  0.00  0.00    +0.000 C 
BRANCH  22  23
ATOM     23  C   UNL     1       1.409  -2.463   2.463  0.00  0.00    -0.077 C 
BRANCH  23  29
ATOM     24  C   UNL     1      -0.027   1.526   0.016  0.00  0.00    +0.005 C 
ATOM     25  C   UNL     1      -0.005  -0.003   0.006  0.00  0.00    -0.031 C 
ATOM     26  C   UNL     1       0.714  -0.497  -1.253  0.00  0.00    -0.001 C 
ATOM     27  C   UNL     1       0.800  -2.025  -1.214  0.00  0.00    -0.018 C 
ATOM     28  C   UNL     1       1.513  -2.458   0.069  0.00  0.00    -0.079 C 
ATOM     29  N   UNL     1       0.763  -1.979   1.236  0.00  0.00    +0.380 N 
ATOM     30  C   UNL     1       0.738  -0.511   1.244  0.00  0.00    -0.076 C 
ATOM     31  H   UNL     1      -0.181  -2.330   1.195  0.00  0.00    -0.082 HD
ENDBRANCH  23  29
ENDBRANCH  22  23
ENDBRANCH  21  22
ENDBRANCH   1  21
TORSDOF 7
