REMARK  Name = ZINC05264235
REMARK  8 active torsions:
REMARK  status: ('A' for Active; 'I' for Inactive)
REMARK    1  A    between atoms: C_1  and  C_2
REMARK    2  A    between atoms: C_3  and  C_26
REMARK    3  A    between atoms: C_4  and  C_21
REMARK    4  A    between atoms: C_6  and  C_19
REMARK    5  A    between atoms: C_7  and  S_9
REMARK    6  A    between atoms: S_9  and  C_10
REMARK    7  A    between atoms: C_10  and  C_11
REMARK    8  A    between atoms: C_14  and  C_17
REMARK                            x       y       z     vdW  Elec       q    Type
REMARK                         _______ _______ _______ _____ _____    ______ ____
ROOT
ATOM      1  C   UNL     1      -0.281  -4.039   2.483  0.00  0.00    +0.061 C 
ATOM      2  C   UNL     1       0.177  -3.393   1.200  0.00  0.00    +0.015 C 
ATOM      3  C   UNL     1       1.224  -2.554   1.221  0.00  0.00    +0.046 C 
ATOM      4  C   UNL     1       1.717  -1.875  -0.025  0.00  0.00    +0.134 C 
ATOM      5  C   UNL     1       1.172  -2.549  -1.252  0.00  0.00    +0.072 C 
ATOM      6  C   UNL     1       0.115  -3.401  -1.178  0.00  0.00    +0.080 C 
ATOM      7  N   UNL     1      -0.481  -3.672   0.034  0.00  0.00    -0.312 N 
ATOM      8  H   UNL     1      -1.487  -4.115   0.062  0.00  0.00    +0.152 HD
ENDROOT
BRANCH   4   9
ATOM      9  C   UNL     1       1.274  -0.435  -0.012  0.00  0.00    +0.118 A 
ATOM     10  C   UNL     1       2.086   0.638  -0.014  0.00  0.00    +0.045 A 
ATOM     11  C   UNL     1       1.254   1.781  -0.000  0.00  0.00    +0.041 A 
ATOM     12  C   UNL     1      -0.016   1.339   0.009  0.00  0.00    +0.195 A 
ATOM     13  O   UNL     1       0.002  -0.004   0.002  0.00  0.00    -0.467 OA
ENDBRANCH   4   9
BRANCH   3  14
ATOM     14  C   UNL     1       1.882  -2.301   2.449  0.00  0.00    +0.240 C 
ATOM     15  O   UNL     1       1.496  -2.844   3.469  0.00  0.00    -0.271 OA
ATOM     16  N   UNL     1       2.935  -1.461   2.490  0.00  0.00    -0.326 N 
ATOM     17  H   UNL     1       3.445  -1.265   3.444  0.00  0.00    +0.145 HD
ATOM     18  H   UNL     1       3.284  -0.972   1.569  0.00  0.00    +0.145 HD
ENDBRANCH   3  14
BRANCH   5  19
ATOM     19  C   UNL     1       1.778  -2.290  -2.523  0.00  0.00    +0.098 C 
ATOM     20  N   UNL     1       2.259  -2.084  -3.532  0.00  0.00    -0.191 NA
ENDBRANCH   5  19
BRANCH   6  21
ATOM     21  S   UNL     1      -0.499  -4.162  -2.644  0.00  0.00    -0.104 S 
BRANCH  21  22
ATOM     22  C   UNL     1      -1.851  -5.144  -1.946  0.00  0.00    +0.110 C 
BRANCH  22  23
ATOM     23  C   UNL     1      -2.541  -5.903  -3.050  0.00  0.00    -0.037 A 
ATOM     24  C   UNL     1      -3.613  -5.332  -3.713  0.00  0.00    +0.006 A 
ATOM     25  C   UNL     1      -4.247  -6.021  -4.727  0.00  0.00    +0.019 A 
ATOM     26  C   UNL     1      -3.810  -7.300  -5.076  0.00  0.00    +0.052 A 
ATOM     27  C   UNL     1      -2.731  -7.872  -4.399  0.00  0.00    +0.019 A 
ATOM     28  C   UNL     1      -2.104  -7.171  -3.391  0.00  0.00    +0.006 A 
BRANCH  26  29
ATOM     29  C   UNL     1      -4.467  -8.022  -6.124  0.00  0.00    +0.099 C 
ATOM     30  N   UNL     1      -4.987  -8.595  -6.956  0.00  0.00    -0.191 NA
ENDBRANCH  26  29
ENDBRANCH  22  23
ENDBRANCH  21  22
ENDBRANCH   6  21
TORSDOF 7
