REMARK  Name = ZINC44173180
REMARK  9 active torsions:
REMARK  status: ('A' for Active; 'I' for Inactive)
REMARK    1  A    between atoms: C_4  and  C_7
REMARK    2  A    between atoms: C_7  and  N_8
REMARK    3  A    between atoms: N_8  and  C_9
REMARK    4  A    between atoms: C_9  and  C_10
REMARK    5  A    between atoms: C_10  and  N_11
REMARK    6  A    between atoms: C_16  and  C_28
REMARK    7  A    between atoms: CA_19  and  C_25
REMARK    8  A    between atoms: C_31  and  C_34
REMARK    9  A    between atoms: C_35  and  C_36
REMARK                            x       y       z     vdW  Elec       q    Type
REMARK                         _______ _______ _______ _____ _____    ______ ____
ROOT
ATOM      1  N   UNL     1       7.174  -2.642   2.744  0.00  0.00    -0.244 N 
ATOM      2  C   UNL     1       7.279  -4.010   2.731  0.00  0.00    +0.224 C 
ATOM      3  O   UNL     1       6.402  -4.819   2.513  0.00  0.00    -0.275 OA
ATOM      4  C   UNL     1       8.666  -4.272   3.034  0.00  0.00    +0.077 C 
ATOM      5  C   UNL     1       9.662  -5.348   2.922  0.00  0.00    -0.027 C 
ATOM      6  N   UNL     1      10.982  -4.646   3.047  0.00  0.00    +0.394 N 
ATOM      7  CA  UNL     1      10.706  -3.173   3.102  0.00  0.00    +0.057 C 
ATOM      8  C   UNL     1       9.385  -3.063   2.312  0.00  0.00    +0.083 C 
ATOM      9  C   UNL     1       8.389  -2.018   2.734  0.00  0.00    +0.224 C 
ATOM     10  O   UNL     1       8.619  -0.860   3.011  0.00  0.00    -0.275 OA
ATOM     11  H1  UNL     1      11.447  -4.939   3.893  0.00  0.00    -0.084 HD
ATOM     12  H2  UNL     1      11.559  -4.856   2.247  0.00  0.00    -0.084 HD
ENDROOT
BRANCH   5  13
ATOM     13  C   UNL     1       9.550  -6.032   1.584  0.00  0.00    -0.061 A 
ATOM     14  C   UNL     1      10.124  -5.454   0.465  0.00  0.00    +0.002 A 
ATOM     15  C   UNL     1      10.027  -6.074  -0.763  0.00  0.00    +0.008 A 
ATOM     16  C   UNL     1       9.346  -7.289  -0.875  0.00  0.00    -0.025 A 
ATOM     17  C   UNL     1       8.769  -7.867   0.259  0.00  0.00    +0.008 A 
ATOM     18  C   UNL     1       8.879  -7.238   1.481  0.00  0.00    +0.002 A 
BRANCH  16  19
ATOM     19  C   UNL     1       9.237  -7.958  -2.184  0.00  0.00    +0.008 C 
ATOM     20  C   UNL     1       8.583  -9.126  -2.289  0.00  0.00    +0.008 C 
BRANCH  20  21
ATOM     21  C   UNL     1       8.474  -9.795  -3.598  0.00  0.00    -0.025 A 
ATOM     22  C   UNL     1       9.056  -9.220  -4.731  0.00  0.00    +0.008 A 
ATOM     23  C   UNL     1       8.950  -9.851  -5.952  0.00  0.00    +0.001 A 
ATOM     24  C   UNL     1       8.270 -11.052  -6.057  0.00  0.00    +0.000 A 
ATOM     25  C   UNL     1       7.691 -11.627  -4.940  0.00  0.00    +0.001 A 
ATOM     26  C   UNL     1       7.793 -11.010  -3.711  0.00  0.00    +0.008 A 
ENDBRANCH  20  21
ENDBRANCH  16  19
ENDBRANCH   5  13
BRANCH   7  27
ATOM     27  C   UNL     1      10.548  -2.713   4.529  0.00  0.00    +0.343 C 
ATOM     28  O   UNL     1      10.676  -3.508   5.444  0.00  0.00    -0.248 OA
ATOM     29  OXT UNL     1      10.292  -1.545   4.767  0.00  0.00    -0.248 OA
ENDBRANCH   7  27
BRANCH   1  30
ATOM     30  C   UNL     1       5.895  -1.926   2.761  0.00  0.00    +0.097 C 
BRANCH  30  31
ATOM     31  C   UNL     1       5.435  -1.670   1.325  0.00  0.00    -0.062 C 
BRANCH  31  32
ATOM     32  N   UNL     1       4.153  -0.953   1.342  0.00  0.00    +0.383 N 
ATOM     33  H   UNL     1       4.267  -0.072   1.821  0.00  0.00    -0.085 HD
ATOM     34  H   UNL     1       3.462  -1.510   1.822  0.00  0.00    -0.085 HD
BRANCH  32  35
ATOM     35  C   UNL     1       3.711  -0.707  -0.038  0.00  0.00    -0.047 C 
BRANCH  35  39
ATOM     36  C   UNL     1      -0.017   1.378   0.010  0.00  0.00    +0.000 A 
ATOM     37  C   UNL     1       1.171   2.086   0.002  0.00  0.00    +0.000 A 
ATOM     38  C   UNL     1       2.377   1.411  -0.013  0.00  0.00    +0.002 A 
ATOM     39  C   UNL     1       2.396   0.029  -0.020  0.00  0.00    -0.064 A 
ATOM     40  C   UNL     1       1.208  -0.679  -0.012  0.00  0.00    +0.002 A 
ATOM     41  C   UNL     1       0.002  -0.004   0.002  0.00  0.00    +0.000 A 
ENDBRANCH  35  39
ENDBRANCH  32  35
ENDBRANCH  31  32
ENDBRANCH  30  31
ENDBRANCH   1  30
TORSDOF 9
