REMARK  Name = ZINC12601242
REMARK  11 active torsions:
REMARK  status: ('A' for Active; 'I' for Inactive)
REMARK    1  A    between atoms: C_1  and  C_2
REMARK    2  A    between atoms: C_2  and  N_3
REMARK    3  A    between atoms: N_3  and  C_4
REMARK    4  A    between atoms: N_3  and  S_6
REMARK    5  A    between atoms: C_4  and  C_5
REMARK    6  A    between atoms: S_6  and  C_9
REMARK    7  A    between atoms: C_12  and  N_18
REMARK    8  A    between atoms: C_13  and  N_15
REMARK    9  A    between atoms: N_18  and  N_19
REMARK   10  A    between atoms: C_20  and  C_21
REMARK   11  A    between atoms: C_26  and  O_27
REMARK                            x       y       z     vdW  Elec       q    Type
REMARK                         _______ _______ _______ _____ _____    ______ ____
ROOT
ATOM      1  C   UNL     1      -2.908   0.437   2.317  0.00  0.00    +0.108 A 
ATOM      2  C   UNL     1      -2.213   1.468   2.923  0.00  0.00    +0.030 A 
ATOM      3  C   UNL     1      -2.830   2.682   3.145  0.00  0.00    +0.029 A 
ATOM      4  C   UNL     1      -4.152   2.870   2.758  0.00  0.00    +0.079 A 
ATOM      5  C   UNL     1      -4.847   1.832   2.149  0.00  0.00    +0.150 A 
ATOM      6  C   UNL     1      -4.222   0.622   1.925  0.00  0.00    +0.063 A 
ENDROOT
BRANCH   1   7
ATOM      7  S   UNL     1      -2.117  -1.112   2.036  0.00  0.00    +0.061 S 
ATOM      8  O   UNL     1      -3.149  -2.084   1.942  0.00  0.00    -0.153 OA
ATOM      9  O   UNL     1      -1.063  -1.207   2.985  0.00  0.00    -0.153 OA
BRANCH   7  10
ATOM     10  N   UNL     1      -1.404  -1.034   0.543  0.00  0.00    -0.177 NA
BRANCH  10  12
ATOM     11  C   UNL     1      -0.037   0.941   0.083  0.00  0.00    +0.022 C 
ATOM     12  C   UNL     1      -0.026  -0.552   0.414  0.00  0.00    +0.106 C 
ENDBRANCH  10  12
BRANCH  10  13
ATOM     13  C   UNL     1      -2.151  -1.446  -0.648  0.00  0.00    +0.106 C 
ATOM     14  C   UNL     1      -1.827  -2.905  -0.973  0.00  0.00    +0.022 C 
ENDBRANCH  10  13
ENDBRANCH   7  10
ENDBRANCH   1   7
BRANCH   5  15
ATOM     15  N   UNL     1      -6.255   2.027   1.734  0.00  0.00    +0.058 N 
ATOM     16  O   UNL     1      -7.002   2.685   2.421  0.00  0.00    -0.126 OA
ATOM     17  O   UNL     1      -6.659   1.527   0.710  0.00  0.00    -0.126 OA
ENDBRANCH   5  15
BRANCH   4  18
ATOM     18  N   UNL     1      -4.779   4.096   2.981  0.00  0.00    -0.236 N 
ATOM     19  H   UNL     1      -5.673   4.252   2.640  0.00  0.00    +0.174 HD
BRANCH  18  20
ATOM     20  N   UNL     1      -4.116   5.101   3.697  0.00  0.00    -0.190 NA
ATOM     21  C   UNL     1      -4.700   6.242   3.905  0.00  0.00    +0.141 C 
BRANCH  21  22
ATOM     22  C   UNL     1      -4.003   7.300   4.659  0.00  0.00    +0.037 A 
ATOM     23  C   UNL     1      -4.629   8.527   4.889  0.00  0.00    +0.028 A 
ATOM     24  C   UNL     1      -3.971   9.513   5.596  0.00  0.00    +0.019 A 
ATOM     25  C   UNL     1      -2.692   9.291   6.077  0.00  0.00    +0.019 A 
ATOM     26  C   UNL     1      -2.062   8.081   5.854  0.00  0.00    +0.047 A 
ATOM     27  C   UNL     1      -2.710   7.078   5.153  0.00  0.00    +0.126 A 
ATOM     28 BR   UNL     1      -4.819  11.174   5.907  0.00  0.00    -0.050 Br
BRANCH  27  29
ATOM     29  O   UNL     1      -2.094   5.886   4.939  0.00  0.00    -0.506 OA
ATOM     30  H   UNL     1      -1.575   5.853   4.125  0.00  0.00    +0.292 HD
ENDBRANCH  27  29
ENDBRANCH  21  22
ENDBRANCH  18  20
ENDBRANCH   4  18
TORSDOF 9
