REMARK  Name = ZINC00823440
REMARK  9 active torsions:
REMARK  status: ('A' for Active; 'I' for Inactive)
REMARK    1  A    between atoms: C_1  and  C_2
REMARK    2  A    between atoms: C_3  and  C_23
REMARK    3  A    between atoms: C_4  and  C_16
REMARK    4  A    between atoms: C_10  and  C_14
REMARK    5  A    between atoms: C_10  and  C_15
REMARK    6  A    between atoms: C_23  and  O_25
REMARK    7  A    between atoms: O_25  and  C_26
REMARK    8  A    between atoms: C_26  and  C_27
REMARK    9  A    between atoms: C_26  and  C_28
REMARK                            x       y       z     vdW  Elec       q    Type
REMARK                         _______ _______ _______ _____ _____    ______ ____
ROOT
ATOM      1  C   UNL     1      -1.611  -3.678  -2.301  0.00  0.00    +0.061 C 
ATOM      2  C   UNL     1      -0.825  -3.181  -1.116  0.00  0.00    +0.016 C 
ATOM      3  C   UNL     1       0.433  -2.739  -1.286  0.00  0.00    +0.065 C 
ATOM      4  C   UNL     1       1.243  -2.230  -0.130  0.00  0.00    +0.093 C 
ATOM      5  C   UNL     1       0.654  -2.680   1.184  0.00  0.00    +0.024 C 
ATOM      6  C   UNL     1      -0.617  -3.129   1.252  0.00  0.00    +0.016 C 
ATOM      7  N   UNL     1      -1.396  -3.183   0.127  0.00  0.00    -0.321 N 
ATOM      8  C   UNL     1      -1.212  -3.586   2.561  0.00  0.00    +0.058 C 
ATOM      9  C   UNL     1      -0.576  -2.807   3.714  0.00  0.00    -0.023 C 
ATOM     10  C   UNL     1       0.939  -3.035   3.678  0.00  0.00    +0.086 C 
ATOM     11  C   UNL     1       1.464  -2.619   2.331  0.00  0.00    +0.162 C 
ATOM     12  O   UNL     1       2.609  -2.224   2.233  0.00  0.00    -0.292 OA
ATOM     13  C   UNL     1      -0.875  -1.315   3.553  0.00  0.00    +0.011 C 
ATOM     14  C   UNL     1      -1.144  -3.304   5.045  0.00  0.00    +0.011 C 
ATOM     15  H   UNL     1      -2.490  -3.227   0.229  0.00  0.00    +0.152 HD
ENDROOT
BRANCH   4  16
ATOM     16  C   UNL     1       1.269  -0.724  -0.170  0.00  0.00    -0.021 A 
ATOM     17  C   UNL     1       0.088  -0.010  -0.097  0.00  0.00    +0.005 A 
ATOM     18  C   UNL     1       0.112   1.372  -0.134  0.00  0.00    +0.000 A 
ATOM     19  C   UNL     1       1.317   2.040  -0.244  0.00  0.00    +0.001 A 
ATOM     20  C   UNL     1       2.498   1.327  -0.317  0.00  0.00    +0.015 A 
ATOM     21  C   UNL     1       2.475  -0.056  -0.280  0.00  0.00    +0.022 A 
ATOM     22 BR   UNL     1       4.091  -1.032  -0.380  0.00  0.00    -0.050 Br
ENDBRANCH   4  16
BRANCH   3  23
ATOM     23  C   UNL     1       1.005  -2.755  -2.579  0.00  0.00    +0.338 C 
ATOM     24  O   UNL     1       0.400  -3.261  -3.506  0.00  0.00    -0.245 OA
BRANCH  23  25
ATOM     25  O   UNL     1       2.221  -2.209  -2.786  0.00  0.00    -0.459 OA
BRANCH  25  26
ATOM     26  C   UNL     1       2.738  -2.260  -4.118  0.00  0.00    +0.171 C 
ATOM     27  C   UNL     1       2.302  -1.008  -4.882  0.00  0.00    +0.052 C 
ATOM     28  C   UNL     1       4.266  -2.323  -4.070  0.00  0.00    +0.052 C 
ENDBRANCH  25  26
ENDBRANCH  23  25
ENDBRANCH   3  23
TORSDOF 4
