REMARK  Name = ZINC40012528
REMARK  6 active torsions:
REMARK  status: ('A' for Active; 'I' for Inactive)
REMARK    1  A    between atoms: C_1  and  C_2
REMARK    2  A    between atoms: C_2  and  C_3
REMARK    3  A    between atoms: C_3  and  C_23
REMARK    4  A    between atoms: N_6  and  N_10
REMARK    5  A    between atoms: C_11  and  C_12
REMARK    6  A    between atoms: C_20  and  C_22
REMARK                            x       y       z     vdW  Elec       q    Type
REMARK                         _______ _______ _______ _____ _____    ______ ____
ROOT
ATOM      1  N   UNL     1      -0.454  -3.426  -3.095  0.00  0.00    -0.177 NA
ATOM      2  C   UNL     1      -1.175  -3.502  -4.183  0.00  0.00    +0.137 C 
ENDROOT
BRANCH   2   3
ATOM      3  C   UNL     1      -1.618  -4.752  -4.647  0.00  0.00    +0.003 C 
ATOM      4  C   UNL     1      -1.384  -5.994  -4.068  0.00  0.00    +0.005 A 
ATOM      5  C   UNL     1      -0.679  -6.391  -2.909  0.00  0.00    +0.010 A 
ATOM      6  C   UNL     1      -0.614  -7.704  -2.578  0.00  0.00    +0.001 A 
ATOM      7  C   UNL     1      -1.230  -8.689  -3.357  0.00  0.00    +0.002 A 
ATOM      8  C   UNL     1      -1.923  -8.383  -4.480  0.00  0.00    +0.026 A 
ATOM      9  C   UNL     1      -2.036  -7.028  -4.893  0.00  0.00    +0.043 A 
ATOM     10  N   UNL     1      -2.642  -6.480  -5.923  0.00  0.00    -0.377 N 
ATOM     11  C   UNL     1      -2.454  -5.026  -5.877  0.00  0.00    +0.109 C 
ATOM     12  C   UNL     1      -3.807  -4.321  -5.763  0.00  0.00    +0.035 C 
ATOM     13  H   UNL     1      -3.138  -6.961  -6.604  0.00  0.00    +0.160 HD
ENDBRANCH   2   3
BRANCH   1  17
ATOM     14  C   UNL     1       0.190   0.069  -2.260  0.00  0.00    +0.111 C 
ATOM     15  C   UNL     1      -0.369  -1.000  -3.178  0.00  0.00    +0.266 C 
ATOM     16  O   UNL     1      -0.936  -0.834  -4.236  0.00  0.00    -0.271 OA
ATOM     17  N   UNL     1      -0.101  -2.175  -2.573  0.00  0.00    -0.109 N 
ATOM     18  C   UNL     1       0.541  -1.998  -1.413  0.00  0.00    +0.330 C 
ATOM     19  O   UNL     1       0.888  -2.908  -0.688  0.00  0.00    -0.250 OA
ATOM     20  N   UNL     1       0.760  -0.699  -1.140  0.00  0.00    -0.284 N 
ATOM     21  C   UNL     1      -0.924   0.995  -1.766  0.00  0.00    +0.041 C 
ATOM     22  H   UNL     1       1.206  -0.338  -0.358  0.00  0.00    +0.151 HD
BRANCH  14  24
ATOM     23  C   UNL     1       1.984   1.782  -1.962  0.00  0.00    +0.006 C 
ATOM     24  C   UNL     1       1.280   0.874  -2.972  0.00  0.00    +0.032 C 
ENDBRANCH  14  24
ENDBRANCH   1  17
TORSDOF 3
