REMARK  Name = ZINC20881672
REMARK  10 active torsions:
REMARK  status: ('A' for Active; 'I' for Inactive)
REMARK    1  A    between atoms: C_1  and  O_2
REMARK    2  A    between atoms: O_2  and  C_3
REMARK    3  A    between atoms: C_6  and  C_11
REMARK    4  A    between atoms: C_8  and  O_9
REMARK    5  A    between atoms: O_9  and  C_10
REMARK    6  A    between atoms: C_16  and  C_26
REMARK    7  A    between atoms: C_29  and  O_34
REMARK    8  A    between atoms: C_30  and  O_32
REMARK    9  A    between atoms: O_32  and  C_33
REMARK   10  A    between atoms: O_34  and  C_35
REMARK                            x       y       z     vdW  Elec       q    Type
REMARK                         _______ _______ _______ _____ _____    ______ ____
ROOT
ATOM      1  C   UNL     1      -2.957   0.585  -4.238  0.00  0.00    +0.032 C 
ATOM      2  C   UNL     1      -3.299  -0.681  -3.454  0.00  0.00    +0.059 C 
ATOM      3  C   UNL     1      -2.873  -0.524  -2.004  0.00  0.00    +0.017 C 
ATOM      4  C   UNL     1      -2.896   0.683  -1.412  0.00  0.00    +0.036 C 
ATOM      5  C   UNL     1      -2.513   0.975   0.019  0.00  0.00    +0.136 C 
ATOM      6  N   UNL     1      -2.342  -0.201   0.846  0.00  0.00    -0.331 N 
ATOM      7  C   UNL     1      -1.327  -1.118   0.591  0.00  0.00    +0.049 A 
ATOM      8  C   UNL     1      -0.259  -1.278   1.459  0.00  0.00    +0.025 A 
ATOM      9  C   UNL     1       0.784  -2.117   1.106  0.00  0.00    +0.002 A 
ATOM     10  C   UNL     1       0.762  -2.791  -0.101  0.00  0.00    +0.002 A 
ATOM     11  C   UNL     1      -0.315  -2.651  -0.960  0.00  0.00    +0.025 A 
ATOM     12  C   UNL     1      -1.367  -1.827  -0.600  0.00  0.00    +0.052 A 
ATOM     13  N   UNL     1      -2.499  -1.677  -1.392  0.00  0.00    -0.316 N 
ATOM     14  C   UNL     1      -3.305   1.825  -2.140  0.00  0.00    +0.163 C 
ATOM     15  O   UNL     1      -3.335   2.901  -1.575  0.00  0.00    -0.292 OA
ATOM     16  C   UNL     1      -3.703   1.754  -3.584  0.00  0.00    +0.088 C 
ATOM     17  H   UNL     1      -3.020  -0.380   1.693  0.00  0.00    +0.147 HD
ATOM     18  H   UNL     1      -3.112  -2.583  -1.506  0.00  0.00    +0.152 HD
ENDROOT
BRANCH   1  22
ATOM     19  C   UNL     1      -4.222   0.154  -8.301  0.00  0.00    +0.161 A 
ATOM     20  C   UNL     1      -5.147   0.076  -7.272  0.00  0.00    +0.049 A 
ATOM     21  C   UNL     1      -4.735   0.216  -5.960  0.00  0.00    +0.008 A 
ATOM     22  C   UNL     1      -3.401   0.433  -5.670  0.00  0.00    -0.040 A 
ATOM     23  C   UNL     1      -2.473   0.518  -6.692  0.00  0.00    +0.053 A 
ATOM     24  C   UNL     1      -2.879   0.374  -8.009  0.00  0.00    +0.162 A 
BRANCH  19  26
ATOM     25  C   UNL     1      -6.019  -0.205  -9.816  0.00  0.00    +0.277 C 
ATOM     26  O   UNL     1      -4.626   0.018  -9.592  0.00  0.00    -0.491 OA
ENDBRANCH  19  26
BRANCH  24  27
ATOM     27  O   UNL     1      -1.967   0.451  -9.016  0.00  0.00    -0.491 OA
ATOM     28  C   UNL     1      -0.607   0.678  -8.642  0.00  0.00    +0.277 C 
ENDBRANCH  24  27
ENDBRANCH   1  22
BRANCH   5  29
ATOM     29  C   UNL     1      -1.220   1.749   0.017  0.00  0.00    -0.019 A 
ATOM     30  C   UNL     1      -0.069   1.169  -0.483  0.00  0.00    +0.009 A 
ATOM     31  C   UNL     1       1.118   1.878  -0.493  0.00  0.00    +0.050 A 
ATOM     32  C   UNL     1       1.157   3.170   0.006  0.00  0.00    +0.162 A 
ATOM     33  C   UNL     1       0.000   3.752   0.515  0.00  0.00    +0.162 A 
ATOM     34  C   UNL     1      -1.186   3.036   0.522  0.00  0.00    +0.055 A 
BRANCH  33  35
ATOM     35  O   UNL     1       0.034   5.020   1.006  0.00  0.00    -0.491 OA
ATOM     36  C   UNL     1      -1.192   5.552   1.512  0.00  0.00    +0.277 C 
ENDBRANCH  33  35
BRANCH  32  37
ATOM     37  O   UNL     1       2.324   3.869  -0.003  0.00  0.00    -0.491 OA
ATOM     38  C   UNL     1       3.471   3.208  -0.541  0.00  0.00    +0.277 C 
ENDBRANCH  32  37
ENDBRANCH   5  29
TORSDOF 6
