REMARK  Name = ZINC40605366
REMARK  8 active torsions:
REMARK  status: ('A' for Active; 'I' for Inactive)
REMARK    1  A    between atoms: C_1  and  C_2
REMARK    2  A    between atoms: C_2  and  C_3
REMARK    3  A    between atoms: C_2  and  C_4
REMARK    4  A    between atoms: C_2  and  C_5
REMARK    5  A    between atoms: C_5  and  N_6
REMARK    6  A    between atoms: N_9  and  C_10
REMARK    7  A    between atoms: C_13  and  C_16
REMARK    8  A    between atoms: C_17  and  C_18
REMARK                            x       y       z     vdW  Elec       q    Type
REMARK                         _______ _______ _______ _____ _____    ______ ____
ROOT
ATOM      1  N   UNL     1       2.091   0.014  -1.270  0.00  0.00    -0.299 N 
ATOM      2  C   UNL     1       2.918  -0.302  -2.286  0.00  0.00    +0.304 C 
ATOM      3  O   UNL     1       2.524  -1.010  -3.192  0.00  0.00    -0.253 OA
ATOM      4  N   UNL     1       4.182   0.167  -2.297  0.00  0.00    -0.269 N 
ATOM      5  H   UNL     1       2.405   0.579  -0.546  0.00  0.00    +0.150 HD
ATOM      6  H   UNL     1       4.476   0.785  -1.610  0.00  0.00    +0.156 HD
ENDROOT
BRANCH   4   7
ATOM      7  C   UNL     1       5.066  -0.236  -3.297  0.00  0.00    +0.035 A 
ATOM      8  C   UNL     1       6.414  -0.416  -2.999  0.00  0.00    +0.024 A 
ATOM      9  C   UNL     1       7.287  -0.812  -3.979  0.00  0.00    +0.010 A 
ATOM     10  C   UNL     1       6.821  -1.036  -5.281  0.00  0.00    -0.025 A 
ATOM     11  C   UNL     1       5.463  -0.854  -5.575  0.00  0.00    +0.010 A 
ATOM     12  C   UNL     1       4.597  -0.463  -4.588  0.00  0.00    +0.024 A 
BRANCH  10  13
ATOM     13  C   UNL     1       7.752  -1.460  -6.334  0.00  0.00    +0.015 C 
ATOM     14  C   UNL     1       7.299  -1.676  -7.591  0.00  0.00    +0.096 C 
BRANCH  14  15
ATOM     15  C   UNL     1       8.196  -2.084  -8.605  0.00  0.00    +0.380 C 
ATOM     16  O   UNL     1       9.383  -2.243  -8.345  0.00  0.00    -0.241 OA
ATOM     17  O   UNL     1       7.786  -2.279  -9.743  0.00  0.00    -0.241 OA
ENDBRANCH  14  15
ENDBRANCH  10  13
ENDBRANCH   4   7
BRANCH   1  18
ATOM     18  C   UNL     1       0.718  -0.496  -1.257  0.00  0.00    +0.111 C 
BRANCH  18  20
ATOM     19  C   UNL     1      -0.026   1.537  -0.009  0.00  0.00    +0.012 C 
ATOM     20  C   UNL     1      -0.002   0.007  -0.004  0.00  0.00    -0.022 C 
ATOM     21  C   UNL     1       0.737  -0.487   1.241  0.00  0.00    +0.012 C 
ATOM     22  C   UNL     1      -1.436  -0.525   0.009  0.00  0.00    +0.012 C 
ENDBRANCH  18  20
ENDBRANCH   1  18
TORSDOF 5
