REMARK  Name = ZINC44577185
REMARK  9 active torsions:
REMARK  status: ('A' for Active; 'I' for Inactive)
REMARK    1  A    between atoms: C_1  and  C_2
REMARK    2  A    between atoms: C_2  and  C_3
REMARK    3  A    between atoms: C_2  and  C_4
REMARK    4  A    between atoms: C_4  and  C_5
REMARK    5  A    between atoms: C_5  and  C_7
REMARK    6  A    between atoms: C_5  and  N_11
REMARK    7  A    between atoms: C_7  and  O_9
REMARK    8  A    between atoms: O_9  and  C_10
REMARK    9  A    between atoms: C_23  and  C_25
REMARK                            x       y       z     vdW  Elec       q    Type
REMARK                         _______ _______ _______ _____ _____    ______ ____
ROOT
ATOM      1  N   UNL     1       4.594   1.213   0.070  0.00  0.00    -0.286 N 
ATOM      2  C   UNL     1       4.043   0.027   0.396  0.00  0.00    +0.304 C 
ATOM      3  O   UNL     1       3.013  -0.332  -0.142  0.00  0.00    -0.253 OA
ATOM      4  N   UNL     1       4.633  -0.761   1.317  0.00  0.00    -0.273 N 
ATOM      5  C   UNL     1       4.112  -2.107   1.601  0.00  0.00    +0.116 C 
ATOM      6  C   UNL     1       3.610  -2.155   3.049  0.00  0.00    +0.074 C 
ATOM      7  C   UNL     1       4.630  -1.495   3.939  0.00  0.00    +0.040 A 
ATOM      8  C   UNL     1       5.607  -0.667   3.511  0.00  0.00    +0.062 A 
ATOM      9  N   UNL     1       6.313  -0.274   4.574  0.00  0.00    -0.348 N 
ATOM     10  C   UNL     1       5.815  -0.829   5.648  0.00  0.00    +0.171 A 
ATOM     11  N   UNL     1       4.763  -1.600   5.291  0.00  0.00    -0.349 N 
ATOM     12  H   UNL     1       4.207  -2.128   5.886  0.00  0.00    +0.166 HD
ATOM     13  C   UNL     1       5.819  -0.297   2.058  0.00  0.00    +0.159 C 
ATOM     14  H   UNL     1       5.375   1.532   0.549  0.00  0.00    +0.151 HD
ATOM     15  H   UNL     1       7.074   0.328   4.552  0.00  0.00    +0.167 HD
ENDROOT
BRANCH  13  16
ATOM     16  C   UNL     1       7.054  -0.975   1.526  0.00  0.00    +0.015 A 
ATOM     17  C   UNL     1       8.007  -1.462   2.402  0.00  0.00    +0.028 A 
ATOM     18  C   UNL     1       9.141  -2.086   1.914  0.00  0.00    +0.041 A 
ATOM     19  C   UNL     1       9.323  -2.222   0.549  0.00  0.00    +0.023 A 
ATOM     20  C   UNL     1       8.372  -1.735  -0.327  0.00  0.00    +0.040 A 
ATOM     21  C   UNL     1       7.234  -1.116   0.161  0.00  0.00    +0.129 A 
ATOM     22  F   UNL     1       6.301  -0.645  -0.695  0.00  0.00    -0.205 F 
ATOM     23 CL   UNL     1      10.337  -2.697   3.014  0.00  0.00    -0.084 Cl
ENDBRANCH  13  16
BRANCH   1  24
ATOM     24  C   UNL     1       4.015   2.019  -1.007  0.00  0.00    +0.183 C 
BRANCH  24  25
ATOM     25  C   UNL     1       2.889   2.857  -0.457  0.00  0.00    +0.327 C 
ATOM     26  O   UNL     1       2.601   2.788   0.714  0.00  0.00    -0.249 OA
BRANCH  25  27
ATOM     27  O   UNL     1       2.207   3.681  -1.268  0.00  0.00    -0.467 OA
ATOM     28  C   UNL     1       1.153   4.445  -0.680  0.00  0.00    +0.280 C 
ENDBRANCH  25  27
ENDBRANCH  24  25
BRANCH  24  29
ATOM     29  C   UNL     1       5.091   2.934  -1.595  0.00  0.00    +0.036 C 
BRANCH  29  31
ATOM     30  C   UNL     1       5.573   1.343  -3.460  0.00  0.00    +0.007 C 
ATOM     31  C   UNL     1       6.173   2.083  -2.263  0.00  0.00    -0.015 C 
ATOM     32  C   UNL     1       7.310   2.989  -2.741  0.00  0.00    +0.007 C 
ENDBRANCH  29  31
ENDBRANCH  24  29
ENDBRANCH   1  24
TORSDOF 6
