REMARK  Name = ZINC34681163
REMARK  5 active torsions:
REMARK  status: ('A' for Active; 'I' for Inactive)
REMARK    1  A    between atoms: C_1  and  C_2
REMARK    2  A    between atoms: C_2  and  C_3
REMARK    3  A    between atoms: C_2  and  N_4
REMARK    4  A    between atoms: N_7  and  C_8
REMARK    5  A    between atoms: C_21  and  C_23
REMARK                            x       y       z     vdW  Elec       q    Type
REMARK                         _______ _______ _______ _____ _____    ______ ____
ROOT
ATOM      1  C   UNL     1      -0.169   1.522   4.192  0.00  0.00    +0.051 A 
ATOM      2  C   UNL     1      -1.499   1.212   4.470  0.00  0.00    +0.028 A 
ATOM      3  C   UNL     1      -1.811   0.711   5.721  0.00  0.00    +0.043 A 
ATOM      4  C   UNL     1      -0.794   0.535   6.654  0.00  0.00    +0.099 A 
ATOM      5  N   UNL     1       0.458   0.841   6.355  0.00  0.00    -0.348 N 
ATOM      6  C   UNL     1       0.792   1.316   5.169  0.00  0.00    +0.107 A 
ATOM      7  N   UNL     1      -1.097   0.032   7.916  0.00  0.00    -0.315 N 
ATOM      8  C   UNL     1      -0.031  -0.004   8.928  0.00  0.00    +0.108 C 
ATOM      9  C   UNL     1      -0.513   0.455  10.307  0.00  0.00    +0.038 C 
ATOM     10  C   UNL     1      -1.428   1.656  10.173  0.00  0.00    +0.109 C 
ATOM     11  N   UNL     1      -2.788   1.166   9.948  0.00  0.00    -0.296 N 
ATOM     12  C   UNL     1      -3.300   0.763   8.685  0.00  0.00    +0.127 C 
ATOM     13  C   UNL     1      -2.452  -0.425   8.169  0.00  0.00    +0.125 C 
ATOM     14  C   UNL     1      -3.611   1.092  11.012  0.00  0.00    +0.247 C 
ATOM     15  O   UNL     1      -4.774   0.772  10.859  0.00  0.00    -0.270 OA
ATOM     16  H   UNL     1       1.149   0.710   7.023  0.00  0.00    +0.167 HD
ENDROOT
BRANCH  14  17
ATOM     17  C   UNL     1      -3.101   1.399  12.365  0.00  0.00    +0.037 A 
ATOM     18  C   UNL     1      -3.769   2.321  13.173  0.00  0.00    +0.014 A 
ATOM     19  C   UNL     1      -3.288   2.604  14.434  0.00  0.00    +0.016 A 
ATOM     20  C   UNL     1      -2.145   1.975  14.899  0.00  0.00    +0.018 A 
ATOM     21  C   UNL     1      -1.478   1.060  14.102  0.00  0.00    +0.016 A 
ATOM     22  C   UNL     1      -1.953   0.764  12.841  0.00  0.00    +0.014 A 
ATOM     23 BR   UNL     1      -1.492   2.369  16.630  0.00  0.00    -0.050 Br
ENDBRANCH  14  17
BRANCH   1  27
ATOM     24  N   UNL     1      -0.257   3.423   1.117  0.00  0.00    -0.297 N 
ATOM     25  C   UNL     1      -0.644   2.856   2.277  0.00  0.00    +0.304 C 
ATOM     26  O   UNL     1      -1.749   3.088   2.728  0.00  0.00    -0.253 OA
ATOM     27  N   UNL     1       0.194   2.032   2.937  0.00  0.00    -0.268 N 
ATOM     28  H   UNL     1       0.625   3.238   0.758  0.00  0.00    +0.151 HD
ATOM     29  H   UNL     1       1.047   1.791   2.544  0.00  0.00    +0.156 HD
BRANCH  24  31
ATOM     30  C   UNL     1      -1.040   5.735   0.965  0.00  0.00    +0.027 C 
ATOM     31  C   UNL     1      -1.167   4.319   0.400  0.00  0.00    +0.068 C 
ATOM     32  C   UNL     1      -0.806   4.329  -1.087  0.00  0.00    +0.027 C 
ENDBRANCH  24  31
ENDBRANCH   1  27
TORSDOF 3
