REMARK  Name = ZINC15145087
REMARK  7 active torsions:
REMARK  status: ('A' for Active; 'I' for Inactive)
REMARK    1  A    between atoms: C_1  and  C_2
REMARK    2  A    between atoms: C_2  and  C_18
REMARK    3  A    between atoms: N_3  and  N_4
REMARK    4  A    between atoms: C_5  and  C_7
REMARK    5  A    between atoms: C_16  and  O_17
REMARK    6  A    between atoms: C_18  and  C_19
REMARK    7  A    between atoms: N_24  and  C_25
REMARK                            x       y       z     vdW  Elec       q    Type
REMARK                         _______ _______ _______ _____ _____    ______ ____
ROOT
ATOM      1  N   UNL     1       0.023   0.044   2.324  0.00  0.00    -0.203 N 
ATOM      2  C   UNL     1       0.044  -0.636   3.488  0.00  0.00    +0.267 C 
ATOM      3  O   UNL     1       0.060  -1.852   3.481  0.00  0.00    -0.268 OA
ATOM      4  H   UNL     1       0.010   1.014   2.329  0.00  0.00    +0.178 HD
ENDROOT
BRANCH   2   5
ATOM      5  C   UNL     1       0.046   0.095   4.769  0.00  0.00    +0.080 A 
ATOM      6  C   UNL     1       0.027   1.480   4.772  0.00  0.00    +0.025 A 
ATOM      7  C   UNL     1       0.029   2.169   5.993  0.00  0.00    -0.017 A 
ATOM      8  C   UNL     1       0.009   3.575   6.033  0.00  0.00    +0.008 A 
ATOM      9  C   UNL     1       0.011   4.215   7.234  0.00  0.00    +0.001 A 
ATOM     10  C   UNL     1       0.032   3.498   8.429  0.00  0.00    +0.001 A 
ATOM     11  C   UNL     1       0.051   2.137   8.430  0.00  0.00    +0.008 A 
ATOM     12  C   UNL     1       0.050   1.439   7.210  0.00  0.00    -0.014 A 
ATOM     13  C   UNL     1       0.069   0.035   7.180  0.00  0.00    +0.054 A 
ATOM     14  C   UNL     1       0.061  -0.622   5.985  0.00  0.00    +0.130 A 
BRANCH  14  15
ATOM     15  O   UNL     1       0.074  -1.979   5.964  0.00  0.00    -0.506 OA
ATOM     16  H   UNL     1       0.962  -2.364   5.952  0.00  0.00    +0.292 HD
ENDBRANCH  14  15
ENDBRANCH   2   5
BRANCH   1  19
ATOM     17  C   UNL     1      -0.018   1.503   0.010  0.00  0.00    +0.063 C 
ATOM     18  C   UNL     1       0.002  -0.004   0.002  0.00  0.00    +0.041 C 
ATOM     19  N   UNL     1       0.021  -0.650   1.107  0.00  0.00    -0.189 NA
BRANCH  18  20
ATOM     20  C   UNL     1      -0.000  -0.750  -1.307  0.00  0.00    +0.129 C 
BRANCH  20  21
ATOM     21  C   UNL     1      -1.298  -0.495  -2.029  0.00  0.00    +0.146 A 
ATOM     22  N   UNL     1      -1.403   0.517  -2.858  0.00  0.00    -0.208 NA
ATOM     23  C   UNL     1      -2.558   0.714  -3.478  0.00  0.00    +0.178 A 
ATOM     24  S   UNL     1      -3.515  -0.590  -2.849  0.00  0.00    +0.049 S 
ATOM     25  N   UNL     1      -2.326  -1.287  -1.834  0.00  0.00    -0.192 NA
ATOM     26  N   UNL     1      -2.908   1.698  -4.385  0.00  0.00    -0.325 N 
ATOM     27  C   UNL     1      -4.259   1.726  -4.951  0.00  0.00    +0.127 C 
ATOM     28  H   UNL     1      -2.259   2.370  -4.646  0.00  0.00    +0.148 HD
ENDBRANCH  20  21
ENDBRANCH  18  20
ENDBRANCH   1  19
TORSDOF 5
