REMARK  Name = ZINC21234083
REMARK  12 active torsions:
REMARK  status: ('A' for Active; 'I' for Inactive)
REMARK    1  A    between atoms: C_1  and  C_2
REMARK    2  A    between atoms: C_2  and  O_3
REMARK    3  A    between atoms: O_3  and  C_4
REMARK    4  A    between atoms: C_6  and  C_14
REMARK    5  A    between atoms: C_9  and  O_10
REMARK    6  A    between atoms: O_10  and  C_11
REMARK    7  A    between atoms: C_11  and  C_13
REMARK    8  A    between atoms: C_19  and  C_24
REMARK    9  A    between atoms: C_27  and  O_32
REMARK   10  A    between atoms: C_28  and  O_30
REMARK   11  A    between atoms: O_30  and  C_31
REMARK   12  A    between atoms: O_32  and  C_33
REMARK                            x       y       z     vdW  Elec       q    Type
REMARK                         _______ _______ _______ _____ _____    ______ ____
ROOT
ATOM      1  C   UNL     1       0.538  -0.742   1.121  0.00  0.00    +0.136 C 
ATOM      2  C   UNL     1       2.010  -0.477   1.337  0.00  0.00    +0.036 C 
ATOM      3  C   UNL     1       2.734   0.482   0.740  0.00  0.00    +0.017 C 
ATOM      4  C   UNL     1       4.206   0.657   1.078  0.00  0.00    +0.059 C 
ATOM      5  C   UNL     1       4.829  -0.698   1.406  0.00  0.00    +0.032 C 
ATOM      6  C   UNL     1       4.075  -1.281   2.607  0.00  0.00    +0.088 C 
ATOM      7  C   UNL     1       2.617  -1.358   2.264  0.00  0.00    +0.163 C 
ATOM      8  O   UNL     1       1.933  -2.207   2.800  0.00  0.00    -0.292 OA
ATOM      9  N   UNL     1       2.262   1.358  -0.184  0.00  0.00    -0.316 N 
ATOM     10  C   UNL     1       1.079   2.079  -0.061  0.00  0.00    +0.052 A 
ATOM     11  C   UNL     1       1.057   3.461  -0.009  0.00  0.00    +0.025 A 
ATOM     12  C   UNL     1      -0.161   4.119   0.036  0.00  0.00    +0.002 A 
ATOM     13  C   UNL     1      -1.342   3.398   0.030  0.00  0.00    +0.002 A 
ATOM     14  C   UNL     1      -1.320   2.015   0.001  0.00  0.00    +0.025 A 
ATOM     15  C   UNL     1      -0.102   1.352  -0.026  0.00  0.00    +0.049 A 
ATOM     16  N   UNL     1      -0.034  -0.038  -0.007  0.00  0.00    -0.331 N 
ATOM     17  H   UNL     1       2.827   1.538  -1.111  0.00  0.00    +0.152 HD
ATOM     18  H   UNL     1      -0.423  -0.602  -0.867  0.00  0.00    +0.147 HD
ENDROOT
BRANCH   1  21
ATOM     19  C   UNL     1      -1.540  -0.921   4.272  0.00  0.00    +0.163 A 
ATOM     20  C   UNL     1      -0.854  -1.293   3.126  0.00  0.00    +0.055 A 
ATOM     21  C   UNL     1      -0.207  -0.336   2.367  0.00  0.00    -0.019 A 
ATOM     22  C   UNL     1      -0.236   0.992   2.751  0.00  0.00    +0.009 A 
ATOM     23  C   UNL     1      -0.922   1.371   3.889  0.00  0.00    +0.050 A 
ATOM     24  C   UNL     1      -1.574   0.417   4.655  0.00  0.00    +0.173 A 
BRANCH  19  25
ATOM     25  O   UNL     1      -2.177  -1.860   5.019  0.00  0.00    -0.489 OA
BRANCH  25  27
ATOM     26  C   UNL     1      -2.872  -4.119   5.527  0.00  0.00    +0.048 C 
ATOM     27  C   UNL     1      -2.100  -3.213   4.565  0.00  0.00    +0.226 C 
ENDBRANCH  25  27
ENDBRANCH  19  25
BRANCH  24  28
ATOM     28  O   UNL     1      -2.245   0.787   5.778  0.00  0.00    -0.422 OA
BRANCH  28  29
ATOM     29  C   UNL     1      -1.606   0.633   6.949  0.00  0.00    +0.309 C 
ATOM     30  O   UNL     1      -0.455   0.267   6.965  0.00  0.00    -0.251 OA
ATOM     31  C   UNL     1      -2.325   0.916   8.242  0.00  0.00    +0.136 C 
ENDBRANCH  28  29
ENDBRANCH  24  28
ENDBRANCH   1  21
BRANCH   5  32
ATOM     32  C   UNL     1       6.285  -0.522   1.754  0.00  0.00    -0.040 A 
ATOM     33  C   UNL     1       6.648   0.302   2.803  0.00  0.00    +0.008 A 
ATOM     34  C   UNL     1       7.982   0.468   3.126  0.00  0.00    +0.049 A 
ATOM     35  C   UNL     1       8.958  -0.193   2.399  0.00  0.00    +0.161 A 
ATOM     36  C   UNL     1       8.593  -1.023   1.343  0.00  0.00    +0.162 A 
ATOM     37  C   UNL     1       7.254  -1.188   1.028  0.00  0.00    +0.053 A 
BRANCH  36  38
ATOM     38  O   UNL     1       9.547  -1.674   0.626  0.00  0.00    -0.491 OA
ATOM     39  C   UNL     1       9.098  -2.509  -0.443  0.00  0.00    +0.277 C 
ENDBRANCH  36  38
BRANCH  35  40
ATOM     40  O   UNL     1      10.271  -0.032   2.716  0.00  0.00    -0.491 OA
ATOM     41  C   UNL     1      10.572   0.834   3.812  0.00  0.00    +0.277 C 
ENDBRANCH  35  40
ENDBRANCH   5  32
TORSDOF 8
