REMARK  Name = ZINC63830584
REMARK  11 active torsions:
REMARK  status: ('A' for Active; 'I' for Inactive)
REMARK    1  A    between atoms: C_1  and  C_2
REMARK    2  A    between atoms: C_2  and  C_4
REMARK    3  A    between atoms: C_2  and  N_15
REMARK    4  A    between atoms: N_15  and  C_16
REMARK    5  A    between atoms: C_16  and  C_17
REMARK    6  A    between atoms: C_17  and  C_19
REMARK    7  A    between atoms: C_17  and  C_29
REMARK    8  A    between atoms: C_23  and  O_27
REMARK    9  A    between atoms: C_24  and  O_25
REMARK   10  A    between atoms: O_25  and  C_26
REMARK   11  A    between atoms: O_27  and  C_28
REMARK                            x       y       z     vdW  Elec       q    Type
REMARK                         _______ _______ _______ _____ _____    ______ ____
ROOT
ATOM      1  C   UNL     1      -2.840  -1.623  -1.849  0.00  0.00    +0.034 C 
ENDROOT
BRANCH   1   2
ATOM      2  C   UNL     1      -3.668  -1.135  -3.009  0.00  0.00    -0.036 C 
ATOM      3  C   UNL     1      -4.999  -0.893  -3.013  0.00  0.00    -0.001 A 
ATOM      4  C   UNL     1      -6.034  -1.009  -1.978  0.00  0.00    +0.010 A 
ATOM      5  C   UNL     1      -7.311  -0.689  -2.289  0.00  0.00    +0.001 A 
ATOM      6  C   UNL     1      -7.670  -0.250  -3.571  0.00  0.00    +0.002 A 
ATOM      7  C   UNL     1      -6.776  -0.118  -4.573  0.00  0.00    +0.026 A 
ATOM      8  C   UNL     1      -5.404  -0.427  -4.359  0.00  0.00    +0.043 A 
ATOM      9  N   UNL     1      -4.364  -0.383  -5.155  0.00  0.00    -0.380 N 
ATOM     10  C   UNL     1      -3.179  -0.810  -4.403  0.00  0.00    +0.145 C 
ATOM     11  H   UNL     1      -4.375  -0.109  -6.086  0.00  0.00    +0.160 HD
ENDBRANCH   1   2
BRANCH   1  12
ATOM     12  C   UNL     1      -2.187  -2.932  -2.213  0.00  0.00    +0.003 A 
ATOM     13  C   UNL     1      -1.320  -2.996  -3.288  0.00  0.00    +0.008 A 
ATOM     14  C   UNL     1      -0.720  -4.195  -3.624  0.00  0.00    +0.004 A 
ATOM     15  C   UNL     1      -0.984  -5.335  -2.888  0.00  0.00    +0.049 A 
ATOM     16  C   UNL     1      -1.853  -5.277  -1.810  0.00  0.00    +0.162 A 
ATOM     17  C   UNL     1      -2.452  -4.069  -1.468  0.00  0.00    +0.165 A 
BRANCH  17  18
ATOM     18  O   UNL     1      -3.301  -4.006  -0.407  0.00  0.00    -0.491 OA
ATOM     19  C   UNL     1      -4.684  -4.250  -0.667  0.00  0.00    +0.277 C 
ENDBRANCH  17  18
BRANCH  16  20
ATOM     20  O   UNL     1      -2.114  -6.398  -1.085  0.00  0.00    -0.491 OA
ATOM     21  C   UNL     1      -1.459  -7.601  -1.491  0.00  0.00    +0.277 C 
ENDBRANCH  16  20
ENDBRANCH   1  12
BRANCH   1  22
ATOM     22  C   UNL     1      -1.761  -0.589  -1.522  0.00  0.00    -0.069 C 
BRANCH  22  23
ATOM     23  N   UNL     1      -1.030  -1.007  -0.319  0.00  0.00    +0.387 N 
ATOM     24  H   UNL     1      -0.598  -1.904  -0.482  0.00  0.00    -0.085 HD
ATOM     25  H   UNL     1      -1.672  -1.079   0.457  0.00  0.00    -0.085 HD
BRANCH  23  27
ATOM     26  C   UNL     1      -0.656   1.315   0.365  0.00  0.00    -0.004 C 
ATOM     27  C   UNL     1       0.006  -0.014  -0.005  0.00  0.00    +0.013 C 
BRANCH  27  28
ATOM     28  C   UNL     1       0.835  -0.501   1.155  0.00  0.00    +0.206 C 
ATOM     29  O   UNL     1       0.358  -1.275   1.959  0.00  0.00    -0.277 OA
ATOM     30  N   UNL     1       2.106  -0.079   1.300  0.00  0.00    -0.272 N 
ATOM     31  C   UNL     1       2.752   0.942   0.470  0.00  0.00    +0.118 C 
ATOM     32  C   UNL     1       4.180   1.069   1.025  0.00  0.00    +0.056 C 
ATOM     33  C   UNL     1       4.236   0.076   2.164  0.00  0.00    -0.024 A 
ATOM     34  C   UNL     1       3.001  -0.545   2.268  0.00  0.00    +0.039 A 
ATOM     35  C   UNL     1       2.808  -1.506   3.262  0.00  0.00    +0.024 A 
ATOM     36  C   UNL     1       3.832  -1.827   4.128  0.00  0.00    +0.002 A 
ATOM     37  C   UNL     1       5.058  -1.199   4.018  0.00  0.00    +0.000 A 
ATOM     38  C   UNL     1       5.260  -0.252   3.031  0.00  0.00    +0.005 A 
ENDBRANCH  27  28
ENDBRANCH  23  27
ENDBRANCH  22  23
ENDBRANCH   1  22
TORSDOF 8
