REMARK  Name = ZINC62188794
REMARK  5 active torsions:
REMARK  status: ('A' for Active; 'I' for Inactive)
REMARK    1  A    between atoms: C_1  and  C_2
REMARK    2  A    between atoms: C_2  and  C_3
REMARK    3  A    between atoms: C_11  and  O_24
REMARK    4  A    between atoms: C_13  and  N_15
REMARK    5  A    between atoms: C_21  and  C_23
REMARK                            x       y       z     vdW  Elec       q    Type
REMARK                         _______ _______ _______ _____ _____    ______ ____
ROOT
ATOM      1  C   UNL     1       1.089  -0.876  -0.347  0.00  0.00    -0.006 A 
ATOM      2  C   UNL     1       0.148  -1.410  -1.204  0.00  0.00    +0.007 A 
ATOM      3  C   UNL     1       0.531  -1.869  -2.450  0.00  0.00    +0.001 A 
ATOM      4  C   UNL     1       1.855  -1.793  -2.837  0.00  0.00    +0.009 A 
ATOM      5  C   UNL     1       2.804  -1.258  -1.982  0.00  0.00    +0.014 A 
ATOM      6  C   UNL     1       2.422  -0.795  -0.734  0.00  0.00    +0.129 A 
ATOM      7  O   UNL     1       3.320  -0.268   0.139  0.00  0.00    -0.489 OA
ATOM      8  C   UNL     1       4.585   0.152  -0.376  0.00  0.00    +0.262 C 
ATOM      9  C   UNL     1       5.157  -0.980  -1.239  0.00  0.00    +0.173 C 
ATOM     10  C   UNL     1       4.238  -1.188  -2.441  0.00  0.00    +0.122 C 
ENDROOT
BRANCH  10  11
ATOM     11  N   UNL     1       4.592  -2.434  -3.133  0.00  0.00    -0.290 NA
ATOM     12  C   UNL     1       4.154  -3.606  -2.362  0.00  0.00    +0.104 C 
ATOM     13  C   UNL     1       4.376  -4.873  -3.195  0.00  0.00    +0.123 C 
ATOM     14  N   UNL     1       5.781  -4.905  -3.632  0.00  0.00    -0.299 N 
ATOM     15  C   UNL     1       6.332  -3.711  -4.291  0.00  0.00    +0.123 C 
ATOM     16  C   UNL     1       6.032  -2.490  -3.415  0.00  0.00    +0.104 C 
ATOM     17  C   UNL     1       6.542  -5.999  -3.434  0.00  0.00    +0.213 C 
ATOM     18  O   UNL     1       6.071  -6.975  -2.889  0.00  0.00    -0.276 OA
ATOM     19  C   UNL     1       7.979  -6.010  -3.889  0.00  0.00    +0.109 C 
ENDBRANCH  10  11
BRANCH   1  21
ATOM     20  C   UNL     1       0.405   1.131   0.939  0.00  0.00    +0.009 C 
ATOM     21  C   UNL     1       0.669  -0.374   1.011  0.00  0.00    +0.035 C 
ENDBRANCH   1  21
BRANCH   9  22
ATOM     22  O   UNL     1       5.215  -2.186  -0.475  0.00  0.00    -0.387 OA
ATOM     23  H   UNL     1       5.768  -2.124   0.315  0.00  0.00    +0.210 HD
ENDBRANCH   9  22
TORSDOF 3
