REMARK  Name = ZINC49400178
REMARK  9 active torsions:
REMARK  status: ('A' for Active; 'I' for Inactive)
REMARK    1  A    between atoms: C_1  and  C_2
REMARK    2  A    between atoms: C_2  and  C_3
REMARK    3  A    between atoms: C_3  and  C_4
REMARK    4  A    between atoms: C_4  and  C_5
REMARK    5  A    between atoms: C_8  and  N_11
REMARK    6  A    between atoms: C_12  and  C_14
REMARK    7  A    between atoms: C_14  and  N_15
REMARK    8  A    between atoms: C_27  and  C_34
REMARK    9  A    between atoms: C_30  and  C_33
REMARK                            x       y       z     vdW  Elec       q    Type
REMARK                         _______ _______ _______ _____ _____    ______ ____
ROOT
ATOM      1  N   UNL     1       6.901  -4.420  -7.010  0.00  0.00    -0.203 N 
ATOM      2  C   UNL     1       7.597  -5.504  -6.605  0.00  0.00    +0.352 A 
ATOM      3  O   UNL     1       7.139  -6.614  -6.398  0.00  0.00    -0.244 OA
ATOM      4  N   UNL     1       8.885  -5.140  -6.472  0.00  0.00    -0.247 N 
ATOM      5  C   UNL     1      10.024  -5.822  -6.093  0.00  0.00    +0.117 A 
ATOM      6  C   UNL     1      11.208  -5.196  -6.046  0.00  0.00    +0.131 A 
ATOM      7  N   UNL     1      11.348  -3.899  -6.358  0.00  0.00    -0.235 NA
ATOM      8  C   UNL     1      10.317  -3.169  -6.730  0.00  0.00    +0.167 A 
ATOM      9  C   UNL     1       8.992  -3.798  -6.801  0.00  0.00    +0.202 A 
ATOM     10  N   UNL     1       7.808  -3.357  -7.132  0.00  0.00    -0.145 NA
ATOM     11  N   UNL     1      10.480  -1.833  -7.047  0.00  0.00    -0.312 N 
ATOM     12  C   UNL     1       9.315  -0.984  -7.334  0.00  0.00    +0.110 C 
ATOM     13  C   UNL     1       9.369   0.250  -6.429  0.00  0.00    +0.004 C 
ATOM     14  C   UNL     1      10.717   0.952  -6.610  0.00  0.00    +0.009 C 
ATOM     15  C   UNL     1      11.847   0.003  -6.202  0.00  0.00    +0.004 C 
ATOM     16  C   UNL     1      11.820  -1.233  -7.098  0.00  0.00    +0.110 C 
ATOM     17  C   UNL     1      11.655  -0.422  -4.745  0.00  0.00    +0.009 C 
ATOM     18  C   UNL     1       8.239   1.210  -6.806  0.00  0.00    +0.009 C 
ENDROOT
BRANCH   1  19
ATOM     19  C   UNL     1       5.462  -4.366  -7.278  0.00  0.00    +0.244 C 
BRANCH  19  21
ATOM     20  N   UNL     1       3.386  -3.878  -6.025  0.00  0.00    -0.284 N 
ATOM     21  C   UNL     1       4.730  -3.989  -6.016  0.00  0.00    +0.239 C 
ATOM     22  O   UNL     1       5.349  -3.785  -4.994  0.00  0.00    -0.273 OA
ATOM     23  H   UNL     1       2.885  -4.115  -6.821  0.00  0.00    +0.155 HD
BRANCH  20  27
ATOM     24  C   UNL     1       1.387  -2.516  -2.633  0.00  0.00    -0.047 A 
ATOM     25  C   UNL     1       2.648  -2.031  -2.932  0.00  0.00    +0.005 A 
ATOM     26  C   UNL     1       3.313  -2.481  -4.056  0.00  0.00    +0.023 A 
ATOM     27  C   UNL     1       2.715  -3.421  -4.885  0.00  0.00    +0.033 A 
ATOM     28  C   UNL     1       1.450  -3.905  -4.582  0.00  0.00    +0.023 A 
ATOM     29  C   UNL     1       0.792  -3.455  -3.454  0.00  0.00    +0.005 A 
BRANCH  24  30
ATOM     30  C   UNL     1       0.664  -2.023  -1.406  0.00  0.00    +0.035 C 
BRANCH  30  31
ATOM     31  C   UNL     1       1.017  -2.914  -0.213  0.00  0.00    +0.004 C 
BRANCH  31  33
ATOM     32  C   UNL     1       0.636  -3.305   2.225  0.00  0.00    +0.004 C 
ATOM     33  C   UNL     1       0.283  -2.414   1.032  0.00  0.00    -0.003 C 
ENDBRANCH  31  33
ENDBRANCH  30  31
ENDBRANCH  24  30
ENDBRANCH  20  27
ENDBRANCH  19  21
ENDBRANCH   1  19
TORSDOF 6
