REMARK  Name = ZINC06385105
REMARK  5 active torsions:
REMARK  status: ('A' for Active; 'I' for Inactive)
REMARK    1  A    between atoms: C_1  and  O_2
REMARK    2  A    between atoms: O_2  and  C_3
REMARK    3  A    between atoms: C_3  and  C_5
REMARK    4  A    between atoms: C_5  and  C_16
REMARK    5  A    between atoms: C_6  and  C_14
REMARK                            x       y       z     vdW  Elec       q    Type
REMARK                         _______ _______ _______ _____ _____    ______ ____
ROOT
ATOM      1  C   UNL     1      -1.244  -2.135   0.003  0.00  0.00    +0.164 C 
ATOM      2  C   UNL     1      -1.153  -2.642  -1.439  0.00  0.00    +0.212 C 
ATOM      3  C   UNL     1      -0.883  -4.126  -1.426  0.00  0.00    +0.238 C 
ATOM      4  O   UNL     1      -1.355  -4.835  -2.289  0.00  0.00    -0.274 OA
ATOM      5  N   UNL     1      -0.119  -4.662  -0.458  0.00  0.00    -0.267 N 
ATOM      6  C   UNL     1       0.341  -3.910   0.556  0.00  0.00    +0.137 C 
ATOM      7  S   UNL     1       1.552  -4.547   1.586  0.00  0.00    -0.018 S 
ATOM      8  N   UNL     1      -0.125  -2.671   0.781  0.00  0.00    -0.309 N 
ATOM      9  H   UNL     1       0.104  -5.606  -0.492  0.00  0.00    +0.157 HD
ATOM     10  H   UNL     1       0.284  -2.123   1.468  0.00  0.00    +0.149 HD
ENDROOT
BRANCH   1  11
ATOM     11  C   UNL     1      -2.564  -2.598   0.623  0.00  0.00    +0.091 C 
ATOM     12  C   UNL     1      -2.656  -2.091   2.063  0.00  0.00    +0.014 C 
ATOM     13  C   UNL     1      -3.868  -1.168   2.203  0.00  0.00    +0.001 C 
ATOM     14  C   UNL     1      -4.709  -1.609   3.403  0.00  0.00    +0.000 C 
ATOM     15  C   UNL     1      -6.160  -1.812   2.961  0.00  0.00    +0.000 C 
ATOM     16  C   UNL     1      -6.620  -3.218   3.352  0.00  0.00    +0.000 C 
ATOM     17  C   UNL     1      -7.207  -3.921   2.126  0.00  0.00    +0.000 C 
ATOM     18  C   UNL     1      -6.524  -5.278   1.941  0.00  0.00    +0.000 C 
ATOM     19  C   UNL     1      -5.940  -5.367   0.530  0.00  0.00    +0.000 C 
ATOM     20  C   UNL     1      -4.465  -5.764   0.613  0.00  0.00    +0.007 C 
ATOM     21  C   UNL     1      -3.631  -4.814  -0.250  0.00  0.00    +0.075 C 
ATOM     22  C   UNL     1      -2.623  -4.103   0.615  0.00  0.00    +0.139 C 
ATOM     23  O   UNL     1      -1.861  -4.741   1.302  0.00  0.00    -0.297 OA
ENDBRANCH   1  11
BRANCH   1  24
ATOM     24  C   UNL     1      -1.185  -0.630   0.010  0.00  0.00    +0.333 C 
ATOM     25  O   UNL     1      -2.208   0.015   0.023  0.00  0.00    -0.248 OA
BRANCH  24  27
ATOM     26  C   UNL     1      -0.017   1.425   0.010  0.00  0.00    +0.280 C 
ATOM     27  O   UNL     1       0.002  -0.004   0.002  0.00  0.00    -0.466 OA
ENDBRANCH  24  27
ENDBRANCH   1  24
BRANCH   2  28
ATOM     28  C   UNL     1      -0.058  -1.948  -2.136  0.00  0.00    +0.078 C 
ATOM     29  N   UNL     1       0.787  -1.412  -2.674  0.00  0.00    -0.196 NA
ENDBRANCH   2  28
TORSDOF 4
