REMARK  Name = ZINC21877550
REMARK  10 active torsions:
REMARK  status: ('A' for Active; 'I' for Inactive)
REMARK    1  A    between atoms: C_1  and  C_2
REMARK    2  A    between atoms: C_2  and  N_3
REMARK    3  A    between atoms: C_8  and  C_22
REMARK    4  A    between atoms: C_12  and  C_13
REMARK    5  A    between atoms: C_12  and  C_14
REMARK    6  A    between atoms: N_16  and  C_17
REMARK    7  A    between atoms: N_24  and  C_25
REMARK    8  A    between atoms: C_25  and  C_26
REMARK    9  A    between atoms: C_26  and  C_27
REMARK   10  A    between atoms: C_27  and  N_28
REMARK                            x       y       z     vdW  Elec       q    Type
REMARK                         _______ _______ _______ _____ _____    ______ ____
ROOT
ATOM      1  N   UNL     1      -4.636  13.615  -4.014  0.00  0.00    -0.281 N 
ATOM      2  C   UNL     1      -4.663  12.598  -4.908  0.00  0.00    +0.265 C 
ATOM      3  O   UNL     1      -5.080  12.750  -6.040  0.00  0.00    -0.268 OA
ATOM      4  C   UNL     1      -4.162  11.297  -4.433  0.00  0.00    +0.124 A 
ATOM      5  C   UNL     1      -3.877  10.153  -5.096  0.00  0.00    +0.067 A 
ATOM      6  C   UNL     1      -3.438   9.249  -4.102  0.00  0.00    +0.148 A 
ATOM      7  N   UNL     1      -3.491   9.878  -2.939  0.00  0.00    -0.166 NA
ATOM      8  N   UNL     1      -3.912  11.072  -3.095  0.00  0.00    -0.256 N 
ATOM      9  C   UNL     1      -4.149  12.118  -2.092  0.00  0.00    +0.179 C 
ATOM     10  C   UNL     1      -3.944  13.489  -2.736  0.00  0.00    +0.130 C 
ATOM     11  C   UNL     1      -4.467  14.566  -1.783  0.00  0.00    +0.044 C 
ENDROOT
BRANCH  10  12
ATOM     12  C   UNL     1      -2.469  13.709  -2.956  0.00  0.00    +0.238 C 
ATOM     13  O   UNL     1      -1.817  14.313  -2.131  0.00  0.00    -0.273 OA
ATOM     14  N   UNL     1      -1.876  13.233  -4.068  0.00  0.00    -0.311 N 
ATOM     15  H   UNL     1      -2.468  12.684  -4.816  0.00  0.00    +0.149 HD
BRANCH  14  16
ATOM     16  C   UNL     1      -0.442  13.447  -4.282  0.00  0.00    +0.073 C 
ATOM     17  C   UNL     1      -0.208  14.803  -4.980  0.00  0.00    +0.022 C 
ATOM     18  C   UNL     1       0.970  14.532  -5.949  0.00  0.00    +0.002 C 
ATOM     19  C   UNL     1       0.671  13.101  -6.460  0.00  0.00    +0.002 C 
ATOM     20  C   UNL     1       0.117  12.365  -5.223  0.00  0.00    +0.022 C 
ENDBRANCH  14  16
ENDBRANCH  10  12
BRANCH   6  21
ATOM     21  C   UNL     1      -3.005   7.853  -4.320  0.00  0.00    +0.264 C 
ATOM     22  O   UNL     1      -3.006   7.385  -5.442  0.00  0.00    -0.268 OA
ATOM     23  N   UNL     1      -2.609   7.099  -3.276  0.00  0.00    -0.310 N 
ATOM     24  H   UNL     1      -2.608   7.522  -2.261  0.00  0.00    +0.149 HD
BRANCH  23  25
ATOM     25  C   UNL     1      -2.180   5.715  -3.493  0.00  0.00    +0.103 C 
BRANCH  25  26
ATOM     26  C   UNL     1      -1.785   5.088  -2.154  0.00  0.00    +0.000 C 
BRANCH  26  27
ATOM     27  C   UNL     1      -1.336   3.643  -2.381  0.00  0.00    -0.077 C 
BRANCH  27  28
ATOM     28  N   UNL     1      -0.957   3.041  -1.096  0.00  0.00    +0.383 N 
ATOM     29  C   UNL     1      -0.748   1.590  -1.234  0.00  0.00    -0.074 C 
ATOM     30  C   UNL     1      -0.013   1.086   0.008  0.00  0.00    +0.017 C 
ATOM     31  C   UNL     1      -0.714   1.570   1.251  0.00  0.00    -0.048 A 
ATOM     32  C   UNL     1      -0.429   0.946   2.457  0.00  0.00    +0.004 A 
ATOM     33  C   UNL     1      -1.047   1.361   3.619  0.00  0.00    +0.000 A 
ATOM     34  C   UNL     1      -1.954   2.404   3.582  0.00  0.00    +0.000 A 
ATOM     35  C   UNL     1      -2.236   3.024   2.386  0.00  0.00    +0.002 A 
ATOM     36  C   UNL     1      -1.619   2.607   1.215  0.00  0.00    -0.061 A 
ATOM     37  C   UNL     1      -1.968   3.312  -0.069  0.00  0.00    -0.043 C 
ATOM     38  H   UNL     1      -0.011   3.502  -0.778  0.00  0.00    -0.081 HD
ENDBRANCH  27  28
ENDBRANCH  26  27
ENDBRANCH  25  26
ENDBRANCH  23  25
ENDBRANCH   6  21
BRANCH   1  40
ATOM     39  C   UNL     1      -4.342  15.808  -5.057  0.00  0.00    +0.024 C 
ATOM     40  C   UNL     1      -5.316  14.872  -4.338  0.00  0.00    +0.106 C 
ENDBRANCH   1  40
TORSDOF 8
