REMARK  Name = ZINC46199365
REMARK  5 active torsions:
REMARK  status: ('A' for Active; 'I' for Inactive)
REMARK    1  A    between atoms: C_6  and  C_7
REMARK    2  A    between atoms: C_7  and  C_9
REMARK    3  A    between atoms: C_7  and  N_18
REMARK    4  A    between atoms: C_9  and  N_10
REMARK    5  A    between atoms: N_13  and  N_14
REMARK                            x       y       z     vdW  Elec       q    Type
REMARK                         _______ _______ _______ _____ _____    ______ ____
ROOT
ATOM      1  C   UNL     1      -1.290  -0.781   0.021  0.00  0.00    +0.104 C 
ENDROOT
BRANCH   1   2
ATOM      2  N   UNL     1      -1.245  -2.026  -0.756  0.00  0.00    -0.289 NA
ATOM      3  C   UNL     1      -0.694  -1.790  -2.098  0.00  0.00    +0.090 C 
ATOM      4  C   UNL     1      -0.285  -3.140  -2.711  0.00  0.00    +0.058 C 
ATOM      5  C   UNL     1      -1.409  -4.099  -2.490  0.00  0.00    -0.005 A 
ATOM      6  C   UNL     1      -2.465  -3.934  -1.645  0.00  0.00    -0.023 A 
ATOM      7  C   UNL     1      -3.399  -4.967  -1.607  0.00  0.00    +0.013 A 
ATOM      8  C   UNL     1      -3.228  -6.063  -2.382  0.00  0.00    +0.046 A 
ATOM      9  S   UNL     1      -1.700  -5.682  -3.228  0.00  0.00    -0.101 S 
ATOM     10  C   UNL     1      -2.568  -2.663  -0.807  0.00  0.00    +0.121 C 
ENDBRANCH   1   2
BRANCH   1  16
ATOM     11  C   UNL     1       0.336   1.121   0.086  0.00  0.00    +0.006 A 
ATOM     12  C   UNL     1       1.617   1.619   0.233  0.00  0.00    +0.020 A 
ATOM     13  C   UNL     1       2.670   0.755   0.477  0.00  0.00    +0.041 A 
ATOM     14  C   UNL     1       2.441  -0.605   0.573  0.00  0.00    +0.020 A 
ATOM     15  C   UNL     1       1.160  -1.102   0.426  0.00  0.00    +0.006 A 
ATOM     16  C   UNL     1       0.107  -0.239   0.182  0.00  0.00    -0.029 A 
ATOM     17 CL   UNL     1       4.280   1.380   0.662  0.00  0.00    -0.084 Cl
ENDBRANCH   1  16
BRANCH   1  18
ATOM     18  C   UNL     1      -1.889  -1.063   1.401  0.00  0.00    +0.129 C 
BRANCH  18  19
ATOM     19  N   UNL     1      -2.005   0.192   2.148  0.00  0.00    -0.296 N 
ATOM     20  C   UNL     1      -2.411   0.176   3.433  0.00  0.00    +0.316 C 
ATOM     21  O   UNL     1      -2.680  -0.880   3.972  0.00  0.00    -0.251 OA
ATOM     22  N   UNL     1      -2.517   1.330   4.121  0.00  0.00    -0.217 N 
ATOM     23  H   UNL     1      -1.790   1.034   1.718  0.00  0.00    +0.150 HD
ATOM     24  H   UNL     1      -2.809   1.319   5.045  0.00  0.00    +0.174 HD
BRANCH  22  25
ATOM     25  N   UNL     1      -2.207   2.547   3.499  0.00  0.00    -0.217 N 
ATOM     26  C   UNL     1      -2.313   3.701   4.187  0.00  0.00    +0.313 C 
ATOM     27  O   UNL     1      -2.044   4.757   3.647  0.00  0.00    -0.252 OA
ATOM     28  N   UNL     1      -2.719   3.685   5.472  0.00  0.00    -0.312 N 
ATOM     29  H   UNL     1      -1.915   2.559   2.574  0.00  0.00    +0.174 HD
ATOM     30  H   UNL     1      -2.934   2.843   5.902  0.00  0.00    +0.147 HD
ATOM     31  H   UNL     1      -2.796   4.516   5.967  0.00  0.00    +0.147 HD
ENDBRANCH  22  25
ENDBRANCH  18  19
ENDBRANCH   1  18
TORSDOF 5
