REMARK  Name = ZINC01921001
REMARK  8 active torsions:
REMARK  status: ('A' for Active; 'I' for Inactive)
REMARK    1  A    between atoms: C_1  and  C_2
REMARK    2  A    between atoms: C_2  and  O_3
REMARK    3  A    between atoms: O_3  and  C_4
REMARK    4  A    between atoms: C_8  and  C_11
REMARK    5  A    between atoms: C_9  and  O_10
REMARK    6  A    between atoms: N_12  and  C_13
REMARK    7  A    between atoms: C_15  and  C_20
REMARK    8  A    between atoms: C_18  and  C_19
REMARK                            x       y       z     vdW  Elec       q    Type
REMARK                         _______ _______ _______ _____ _____    ______ ____
ROOT
ATOM      1  C   UNL     1       4.332   8.485   0.013  0.00  0.00    +0.067 A 
ATOM      2  C   UNL     1       3.667   7.291   0.290  0.00  0.00    +0.041 A 
ATOM      3  C   UNL     1       2.275   7.266   0.309  0.00  0.00    +0.039 A 
ATOM      4  C   UNL     1       1.554   8.433   0.045  0.00  0.00    +0.013 A 
ATOM      5  C   UNL     1       2.219   9.613  -0.223  0.00  0.00    +0.006 A 
ATOM      6  C   UNL     1       3.599   9.646  -0.244  0.00  0.00    -0.025 A 
ATOM      7  C   UNL     1       4.316  10.937  -0.544  0.00  0.00    +0.046 C 
ENDROOT
BRANCH   3   8
ATOM      8  C   UNL     1       1.560   6.005   0.602  0.00  0.00    +0.228 A 
ATOM      9  N   UNL     1       2.137   4.858   0.857  0.00  0.00    -0.209 NA
ATOM     10  C   UNL     1       1.175   3.925   1.077  0.00  0.00    +0.111 A 
ATOM     11  C   UNL     1       1.206   2.563   1.387  0.00  0.00    +0.051 A 
ATOM     12  C   UNL     1       0.024   1.874   1.554  0.00  0.00    +0.043 A 
ATOM     13  C   UNL     1      -1.194   2.525   1.412  0.00  0.00    +0.024 A 
ATOM     14  C   UNL     1      -1.239   3.870   1.113  0.00  0.00    +0.050 A 
ATOM     15  C   UNL     1      -0.060   4.580   0.941  0.00  0.00    +0.156 A 
ATOM     16  O   UNL     1       0.222   5.868   0.645  0.00  0.00    -0.435 OA
ATOM     17 CL   UNL     1       0.059   0.182   1.937  0.00  0.00    -0.083 Cl
ENDBRANCH   3   8
BRANCH   1  19
ATOM     18  C   UNL     1       6.366   7.611  -0.665  0.00  0.00    +0.123 C 
ATOM     19  N   UNL     1       5.701   8.519  -0.007  0.00  0.00    -0.255 NA
BRANCH  18  24
ATOM     20  C   UNL     1       9.910   8.472   0.254  0.00  0.00    +0.162 A 
ATOM     21  C   UNL     1      10.606   7.503  -0.450  0.00  0.00    +0.049 A 
ATOM     22  C   UNL     1       9.927   6.573  -1.219  0.00  0.00    +0.004 A 
ATOM     23  C   UNL     1       8.552   6.603  -1.294  0.00  0.00    +0.013 A 
ATOM     24  C   UNL     1       7.834   7.575  -0.589  0.00  0.00    +0.038 A 
ATOM     25  C   UNL     1       8.523   8.520   0.185  0.00  0.00    +0.167 A 
BRANCH  25  26
ATOM     26  O   UNL     1       7.838   9.472   0.869  0.00  0.00    -0.503 OA
ATOM     27  H   UNL     1       7.589   9.211   1.766  0.00  0.00    +0.292 HD
ENDBRANCH  25  26
BRANCH  20  28
ATOM     28  O   UNL     1      10.585   9.381   1.008  0.00  0.00    -0.489 OA
BRANCH  28  30
ATOM     29  C   UNL     1      12.589  10.376   1.921  0.00  0.00    +0.048 C 
ATOM     30  C   UNL     1      12.010   9.278   1.027  0.00  0.00    +0.226 C 
ENDBRANCH  28  30
ENDBRANCH  20  28
ENDBRANCH  18  24
ENDBRANCH   1  19
TORSDOF 6
