REMARK  Name = ZINC40816338
REMARK  8 active torsions:
REMARK  status: ('A' for Active; 'I' for Inactive)
REMARK    1  A    between atoms: C_1  and  C_2
REMARK    2  A    between atoms: C_6  and  C_7
REMARK    3  A    between atoms: N_9  and  N_10
REMARK    4  A    between atoms: N_10  and  C_11
REMARK    5  A    between atoms: N_21  and  N_22
REMARK    6  A    between atoms: C_23  and  C_25
REMARK    7  A    between atoms: C_25  and  O_26
REMARK    8  A    between atoms: O_26  and  C_27
REMARK                            x       y       z     vdW  Elec       q    Type
REMARK                         _______ _______ _______ _____ _____    ______ ____
ROOT
ATOM      1  C   UNL     1      -0.018   1.503   0.010  0.00  0.00    +0.048 C 
ATOM      2  C   UNL     1       0.002  -0.004   0.002  0.00  0.00    +0.009 A 
ATOM      3  C   UNL     1       0.009  -0.838  -1.123  0.00  0.00    +0.042 A 
ATOM      4  C   UNL     1       0.027  -2.137  -0.673  0.00  0.00    +0.115 A 
ATOM      5  O   UNL     1       0.035  -2.112   0.658  0.00  0.00    -0.454 OA
ATOM      6  C   UNL     1       0.024  -0.830   1.091  0.00  0.00    +0.194 A 
ATOM      7  C   UNL     1       0.033  -3.327  -1.599  0.00  0.00    +0.075 C 
ATOM      8  C   UNL     1      -0.491  -2.903  -2.974  0.00  0.00    +0.014 C 
ATOM      9  C   UNL     1       0.279  -1.685  -3.495  0.00  0.00    +0.058 C 
ATOM     10  C   UNL     1       0.001  -0.512  -2.566  0.00  0.00    +0.070 C 
ATOM     11  N   UNL     1      -0.228   0.686  -3.008  0.00  0.00    -0.184 NA
ENDROOT
BRANCH   6  12
ATOM     12  C   UNL     1       0.031  -0.400   2.493  0.00  0.00    +0.296 C 
ATOM     13  O   UNL     1       0.017   0.786   2.766  0.00  0.00    -0.265 OA
ATOM     14  N   UNL     1       0.054  -1.317   3.480  0.00  0.00    -0.230 N 
ATOM     15  H   UNL     1       0.065  -2.263   3.263  0.00  0.00    +0.173 HD
BRANCH  14  16
ATOM     16  N   UNL     1       0.060  -0.906   4.819  0.00  0.00    -0.264 N 
ATOM     17  H   UNL     1       0.049   0.039   5.037  0.00  0.00    +0.170 HD
BRANCH  16  18
ATOM     18  C   UNL     1       0.084  -1.857   5.842  0.00  0.00    +0.044 A 
ATOM     19  C   UNL     1       0.106  -3.211   5.533  0.00  0.00    +0.024 A 
ATOM     20  C   UNL     1       0.129  -4.149   6.546  0.00  0.00    +0.002 A 
ATOM     21  C   UNL     1       0.130  -3.741   7.868  0.00  0.00    +0.000 A 
ATOM     22  C   UNL     1       0.107  -2.394   8.179  0.00  0.00    +0.002 A 
ATOM     23  C   UNL     1       0.090  -1.451   7.170  0.00  0.00    +0.024 A 
ENDBRANCH  16  18
ENDBRANCH  14  16
ENDBRANCH   6  12
BRANCH  11  24
ATOM     24  N   UNL     1      -0.223   0.938  -4.386  0.00  0.00    -0.204 N 
ATOM     25  C   UNL     1      -0.460   2.182  -4.845  0.00  0.00    +0.270 C 
ATOM     26  O   UNL     1      -0.677   3.085  -4.064  0.00  0.00    -0.270 OA
ATOM     27  H   UNL     1      -0.049   0.216  -5.010  0.00  0.00    +0.177 HD
BRANCH  25  28
ATOM     28  C   UNL     1      -0.455   2.453  -6.327  0.00  0.00    +0.326 C 
BRANCH  28  29
ATOM     29  O   UNL     1      -0.729   3.836  -6.560  0.00  0.00    -0.481 OA
BRANCH  29  30
ATOM     30  C   UNL     1      -0.761   4.249  -7.855  0.00  0.00    +0.140 A 
ATOM     31  C   UNL     1      -0.538   3.341  -8.879  0.00  0.00    +0.048 A 
ATOM     32  C   UNL     1      -0.571   3.763 -10.194  0.00  0.00    +0.023 A 
ATOM     33  C   UNL     1      -0.826   5.090 -10.491  0.00  0.00    +0.043 A 
ATOM     34  C   UNL     1      -1.048   5.998  -9.471  0.00  0.00    +0.043 A 
ATOM     35  C   UNL     1      -1.022   5.579  -8.153  0.00  0.00    +0.084 A 
ATOM     36 CL   UNL     1      -1.309   6.717  -6.874  0.00  0.00    -0.080 Cl
ATOM     37 CL   UNL     1      -0.866   5.617 -12.144  0.00  0.00    -0.083 Cl
ENDBRANCH  29  30
ENDBRANCH  28  29
ENDBRANCH  25  28
ENDBRANCH  11  24
TORSDOF 7
