REMARK  Name = ZINC06409561
REMARK  5 active torsions:
REMARK  status: ('A' for Active; 'I' for Inactive)
REMARK    1  A    between atoms: C_1  and  C_2
REMARK    2  A    between atoms: C_7  and  N_12
REMARK    3  A    between atoms: C_9  and  C_11
REMARK    4  A    between atoms: C_13  and  C_15
REMARK    5  A    between atoms: C_15  and  N_16
REMARK                            x       y       z     vdW  Elec       q    Type
REMARK                         _______ _______ _______ _____ _____    ______ ____
ROOT
ATOM      1  C   UNL     1       1.655   4.195   0.008  0.00  0.00    +0.213 C 
ENDROOT
BRANCH   1   2
ATOM      2  N   UNL     1       0.704   3.082   0.012  0.00  0.00    -0.215 N 
ATOM      3  C   UNL     1      -0.639   3.230   0.025  0.00  0.00    +0.247 C 
ATOM      4  O   UNL     1      -1.264   4.269   0.036  0.00  0.00    -0.273 OA
ATOM      5  C   UNL     1      -1.194   1.829   0.017  0.00  0.00    +0.113 C 
ATOM      6  C   UNL     1      -2.057   1.573   1.260  0.00  0.00    +0.035 C 
ATOM      7  C   UNL     1      -3.510   1.774   0.755  0.00  0.00    +0.003 C 
ATOM      8  C   UNL     1      -3.464   1.177  -0.674  0.00  0.00    +0.003 C 
ATOM      9  C   UNL     1      -2.074   1.585  -1.212  0.00  0.00    +0.035 C 
ATOM     10  N   UNL     1      -0.011   0.966   0.007  0.00  0.00    -0.285 N 
ATOM     11  C   UNL     1       1.056   1.790   0.002  0.00  0.00    +0.310 C 
ATOM     12  O   UNL     1       2.208   1.403  -0.011  0.00  0.00    -0.252 OA
ATOM     13  H   UNL     1       0.002  -0.004   0.002  0.00  0.00    +0.151 HD
ENDBRANCH   1   2
BRANCH   1  15
ATOM     14  N   UNL     1       2.827   5.593  -1.663  0.00  0.00    -0.311 N 
ATOM     15  C   UNL     1       1.968   4.584  -1.414  0.00  0.00    +0.231 C 
ATOM     16  O   UNL     1       1.447   3.990  -2.333  0.00  0.00    -0.274 OA
ATOM     17  H   UNL     1       3.243   6.068  -0.927  0.00  0.00    +0.149 HD
BRANCH  14  23
ATOM     18  C   UNL     1       2.645   7.652  -5.395  0.00  0.00    +0.008 C 
ATOM     19  C   UNL     1       3.896   7.828  -4.531  0.00  0.00    -0.009 C 
ATOM     20  C   UNL     1       5.016   6.936  -5.069  0.00  0.00    +0.003 C 
ATOM     21  C   UNL     1       4.569   5.474  -5.027  0.00  0.00    +0.002 C 
ATOM     22  C   UNL     1       4.251   5.079  -3.583  0.00  0.00    +0.022 C 
ATOM     23  C   UNL     1       3.131   5.971  -3.046  0.00  0.00    +0.076 C 
ATOM     24  C   UNL     1       3.578   7.433  -3.088  0.00  0.00    +0.009 C 
ATOM     25  C   UNL     1       2.458   8.325  -2.550  0.00  0.00    +0.009 C 
ENDBRANCH  14  23
ENDBRANCH   1  15
TORSDOF 3
