REMARK  Name = ZINC02137906
REMARK  10 active torsions:
REMARK  status: ('A' for Active; 'I' for Inactive)
REMARK    1  A    between atoms: C_1  and  C_2
REMARK    2  A    between atoms: C_2  and  C_3
REMARK    3  A    between atoms: C_3  and  O_4
REMARK    4  A    between atoms: O_4  and  C_5
REMARK    5  A    between atoms: C_8  and  C_13
REMARK    6  A    between atoms: C_10  and  O_11
REMARK    7  A    between atoms: O_11  and  C_12
REMARK    8  A    between atoms: N_20  and  C_35
REMARK    9  A    between atoms: C_23  and  C_34
REMARK   10  A    between atoms: C_35  and  C_36
REMARK                            x       y       z     vdW  Elec       q    Type
REMARK                         _______ _______ _______ _____ _____    ______ ____
ROOT
ATOM      1  C   UNL     1       1.682   4.233   0.020  0.00  0.00    +0.069 C 
ATOM      2  C   UNL     1       3.063   3.751  -0.439  0.00  0.00    +0.122 C 
ATOM      3  N   UNL     1       3.381   2.488   0.253  0.00  0.00    -0.280 N 
ATOM      4  C   UNL     1       4.415   2.447   1.098  0.00  0.00    +0.234 C 
ATOM      5  O   UNL     1       5.140   3.417   1.154  0.00  0.00    -0.274 OA
ATOM      6  C   UNL     1       4.735   1.283   1.978  0.00  0.00    +0.204 C 
ATOM      7  N   UNL     1       3.756   0.215   1.853  0.00  0.00    -0.283 N 
ATOM      8  C   UNL     1       2.765   0.223   0.962  0.00  0.00    +0.246 C 
ATOM      9  O   UNL     1       2.001  -0.719   0.949  0.00  0.00    -0.273 OA
ATOM     10  C   UNL     1       2.540   1.323  -0.021  0.00  0.00    +0.151 C 
ATOM     11  C   UNL     1       1.098   1.769   0.001  0.00  0.00    +0.054 A 
ATOM     12  C   UNL     1       0.726   3.068   0.014  0.00  0.00    -0.008 A 
ATOM     13  C   UNL     1      -0.723   3.092   0.026  0.00  0.00    +0.004 A 
ATOM     14  C   UNL     1      -1.653   4.136   0.040  0.00  0.00    +0.010 A 
ATOM     15  C   UNL     1      -2.980   3.785   0.051  0.00  0.00    +0.001 A 
ATOM     16  C   UNL     1      -3.391   2.462   0.048  0.00  0.00    +0.002 A 
ATOM     17  C   UNL     1      -2.493   1.409   0.034  0.00  0.00    +0.026 A 
ATOM     18  C   UNL     1      -1.138   1.736   0.016  0.00  0.00    +0.047 A 
ATOM     19  N   UNL     1      -0.011   0.966   0.007  0.00  0.00    -0.356 N 
ATOM     20  H   UNL     1       0.002  -0.004   0.002  0.00  0.00    +0.166 HD
ATOM     21  C   UNL     1       2.872   0.793  -1.418  0.00  0.00    +0.048 C 
ENDROOT
BRANCH   1  25
ATOM     22  C   UNL     1       1.965   5.826   3.978  0.00  0.00    +0.162 A 
ATOM     23  C   UNL     1       2.315   4.508   3.732  0.00  0.00    +0.050 A 
ATOM     24  C   UNL     1       2.217   3.995   2.453  0.00  0.00    +0.008 A 
ATOM     25  C   UNL     1       1.781   4.796   1.414  0.00  0.00    -0.035 A 
ATOM     26  C   UNL     1       1.430   6.112   1.653  0.00  0.00    +0.053 A 
ATOM     27  C   UNL     1       1.520   6.631   2.934  0.00  0.00    +0.162 A 
BRANCH  27  28
ATOM     28  O   UNL     1       1.175   7.926   3.171  0.00  0.00    -0.491 OA
ATOM     29  C   UNL     1       0.727   8.693   2.051  0.00  0.00    +0.277 C 
ENDBRANCH  27  28
BRANCH  22  30
ATOM     30  O   UNL     1       2.055   6.332   5.238  0.00  0.00    -0.488 OA
BRANCH  30  31
ATOM     31  C   UNL     1       2.519   5.447   6.260  0.00  0.00    +0.229 C 
BRANCH  31  33
ATOM     32  C   UNL     1       3.050   5.241   8.693  0.00  0.00    +0.007 C 
ATOM     33  C   UNL     1       2.553   6.188   7.598  0.00  0.00    +0.038 C 
ENDBRANCH  31  33
ENDBRANCH  30  31
ENDBRANCH  22  30
ENDBRANCH   1  25
BRANCH   7  34
ATOM     34  C   UNL     1       3.866  -0.933   2.756  0.00  0.00    +0.182 C 
BRANCH  34  35
ATOM     35  C   UNL     1       4.743  -1.985   2.127  0.00  0.00    +0.122 A 
ATOM     36  C   UNL     1       6.077  -2.083   2.265  0.00  0.00    +0.046 A 
ATOM     37  C   UNL     1       6.486  -3.207   1.510  0.00  0.00    +0.041 A 
ATOM     38  C   UNL     1       5.377  -3.728   0.955  0.00  0.00    +0.195 A 
ATOM     39  O   UNL     1       4.323  -2.987   1.337  0.00  0.00    -0.466 OA
ENDBRANCH  34  35
ENDBRANCH   7  34
TORSDOF 7
