REMARK  Name = ZINC19794158
REMARK  3 active torsions:
REMARK  status: ('A' for Active; 'I' for Inactive)
REMARK    1  A    between atoms: C_4  and  C_7
REMARK    2  A    between atoms: C_7  and  C_9
REMARK    3  A    between atoms: C_23  and  N_24
REMARK                            x       y       z     vdW  Elec       q    Type
REMARK                         _______ _______ _______ _____ _____    ______ ____
ROOT
ATOM      1  C   UNL     1      -1.205  -0.847  -0.021  0.00  0.00    +0.063 A 
ATOM      2  C   UNL     1      -2.476  -0.268  -0.074  0.00  0.00    +0.032 A 
ATOM      3  C   UNL     1      -3.581  -1.117  -0.096  0.00  0.00    +0.085 A 
ATOM      4  C   UNL     1      -4.951  -0.573  -0.151  0.00  0.00    +0.202 A 
ATOM      5  O   UNL     1      -5.162   0.625  -0.180  0.00  0.00    -0.286 OA
ATOM      6  C   UNL     1      -6.054  -1.556  -0.170  0.00  0.00    +0.065 A 
ATOM      7  C   UNL     1      -7.384  -1.138  -0.222  0.00  0.00    +0.015 A 
ATOM      8  C   UNL     1      -8.393  -2.076  -0.238  0.00  0.00    +0.001 A 
ATOM      9  C   UNL     1      -8.087  -3.428  -0.203  0.00  0.00    +0.004 A 
ATOM     10  C   UNL     1      -6.777  -3.853  -0.152  0.00  0.00    +0.047 A 
ATOM     11  C   UNL     1      -5.742  -2.923  -0.135  0.00  0.00    +0.141 A 
ATOM     12  O   UNL     1      -4.462  -3.344  -0.085  0.00  0.00    -0.437 OA
ATOM     13  C   UNL     1      -3.402  -2.514  -0.065  0.00  0.00    +0.233 A 
ATOM     14  N   UNL     1      -2.176  -3.020  -0.015  0.00  0.00    -0.197 NA
ATOM     15  C   UNL     1      -1.099  -2.254   0.002  0.00  0.00    +0.131 A 
ENDROOT
BRANCH  15  16
ATOM     16  N   UNL     1       0.147  -2.838   0.048  0.00  0.00    -0.342 N 
ATOM     17  H   UNL     1       0.240  -3.934   0.067  0.00  0.00    +0.144 HD
ATOM     18  H   UNL     1       1.049  -2.209   0.067  0.00  0.00    +0.144 HD
ENDBRANCH  15  16
BRANCH   1  19
ATOM     19  C   UNL     1       0.002  -0.004   0.005  0.00  0.00    +0.196 C 
ATOM     20  O   UNL     1       0.386   0.539  -1.013  0.00  0.00    -0.287 OA
BRANCH  19  24
ATOM     21  C   UNL     1       2.143   0.531   3.634  0.00  0.00    +0.000 A 
ATOM     22  C   UNL     1       2.643   1.056   2.456  0.00  0.00    +0.001 A 
ATOM     23  C   UNL     1       1.953   0.886   1.274  0.00  0.00    +0.012 A 
ATOM     24  C   UNL     1       0.747   0.182   1.268  0.00  0.00    +0.022 A 
ATOM     25  C   UNL     1       0.245  -0.341   2.462  0.00  0.00    +0.012 A 
ATOM     26  C   UNL     1       0.948  -0.168   3.636  0.00  0.00    +0.001 A 
ENDBRANCH  19  24
ENDBRANCH   1  19
TORSDOF 3
