REMARK  Name = ZINC09805266
REMARK  8 active torsions:
REMARK  status: ('A' for Active; 'I' for Inactive)
REMARK    1  A    between atoms: C_1  and  C_2
REMARK    2  A    between atoms: C_5  and  C_8
REMARK    3  A    between atoms: C_13  and  C_23
REMARK    4  A    between atoms: C_26  and  O_31
REMARK    5  A    between atoms: C_27  and  O_29
REMARK    6  A    between atoms: O_29  and  C_30
REMARK    7  A    between atoms: O_31  and  C_32
REMARK    8  A    between atoms: C_32  and  C_33
REMARK                            x       y       z     vdW  Elec       q    Type
REMARK                         _______ _______ _______ _____ _____    ______ ____
ROOT
ATOM      1  C   UNL     1      -3.058   0.751  -4.239  0.00  0.00    +0.032 C 
ATOM      2  C   UNL     1      -3.380  -0.545  -3.496  0.00  0.00    +0.059 C 
ATOM      3  C   UNL     1      -2.920  -0.444  -2.052  0.00  0.00    +0.017 C 
ATOM      4  C   UNL     1      -2.930   0.738  -1.413  0.00  0.00    +0.036 C 
ATOM      5  C   UNL     1      -2.513   0.975   0.019  0.00  0.00    +0.136 C 
ATOM      6  N   UNL     1      -2.324  -0.230   0.798  0.00  0.00    -0.331 N 
ATOM      7  C   UNL     1      -1.316  -1.139   0.482  0.00  0.00    +0.049 A 
ATOM      8  C   UNL     1      -0.259  -1.379   1.345  0.00  0.00    +0.025 A 
ATOM      9  C   UNL     1       0.743  -2.255   0.966  0.00  0.00    +0.002 A 
ATOM     10  C   UNL     1       0.695  -2.883  -0.265  0.00  0.00    +0.002 A 
ATOM     11  C   UNL     1      -0.369  -2.659  -1.123  0.00  0.00    +0.025 A 
ATOM     12  C   UNL     1      -1.383  -1.801  -0.735  0.00  0.00    +0.052 A 
ATOM     13  N   UNL     1      -2.533  -1.619  -1.494  0.00  0.00    -0.316 N 
ATOM     14  C   UNL     1      -3.356   1.908  -2.086  0.00  0.00    +0.163 C 
ATOM     15  O   UNL     1      -3.372   2.961  -1.479  0.00  0.00    -0.292 OA
ATOM     16  C   UNL     1      -3.788   1.893  -3.522  0.00  0.00    +0.088 C 
ATOM     17  H   UNL     1      -2.909  -0.408   1.552  0.00  0.00    +0.147 HD
ATOM     18  H   UNL     1      -3.103  -2.392  -1.636  0.00  0.00    +0.152 HD
ENDROOT
BRANCH   1  23
ATOM     19  C   UNL     1      -4.893   0.383  -9.706  0.00  0.00    +0.044 C 
ATOM     20  C   UNL     1      -4.415   0.478  -8.280  0.00  0.00    -0.050 A 
ATOM     21  C   UNL     1      -3.074   0.686  -8.014  0.00  0.00    +0.003 A 
ATOM     22  C   UNL     1      -2.635   0.774  -6.706  0.00  0.00    +0.004 A 
ATOM     23  C   UNL     1      -3.537   0.655  -5.665  0.00  0.00    -0.043 A 
ATOM     24  C   UNL     1      -4.877   0.442  -5.931  0.00  0.00    +0.004 A 
ATOM     25  C   UNL     1      -5.316   0.357  -7.239  0.00  0.00    +0.003 A 
ENDBRANCH   1  23
BRANCH   5  26
ATOM     26  C   UNL     1      -1.220   1.749   0.017  0.00  0.00    -0.019 A 
ATOM     27  C   UNL     1      -0.071   1.173  -0.492  0.00  0.00    +0.009 A 
ATOM     28  C   UNL     1       1.116   1.881  -0.501  0.00  0.00    +0.050 A 
ATOM     29  C   UNL     1       1.157   3.170   0.006  0.00  0.00    +0.162 A 
ATOM     30  C   UNL     1       0.002   3.748   0.524  0.00  0.00    +0.162 A 
ATOM     31  C   UNL     1      -1.184   3.032   0.530  0.00  0.00    +0.055 A 
BRANCH  30  32
ATOM     32  O   UNL     1       0.038   5.013   1.023  0.00  0.00    -0.491 OA
ATOM     33  C   UNL     1      -1.185   5.542   1.539  0.00  0.00    +0.277 C 
ENDBRANCH  30  32
BRANCH  29  34
ATOM     34  O   UNL     1       2.324   3.869  -0.003  0.00  0.00    -0.484 OA
BRANCH  34  35
ATOM     35  C   UNL     1       3.469   3.212  -0.550  0.00  0.00    +0.264 C 
BRANCH  35  36
ATOM     36  C   UNL     1       4.660   4.133  -0.476  0.00  0.00    -0.010 A 
ATOM     37  C   UNL     1       4.940   4.987  -1.526  0.00  0.00    +0.007 A 
ATOM     38  C   UNL     1       6.029   5.835  -1.456  0.00  0.00    +0.000 A 
ATOM     39  C   UNL     1       6.844   5.822  -0.339  0.00  0.00    +0.000 A 
ATOM     40  C   UNL     1       6.566   4.965   0.710  0.00  0.00    +0.000 A 
ATOM     41  C   UNL     1       5.474   4.121   0.641  0.00  0.00    +0.007 A 
ENDBRANCH  35  36
ENDBRANCH  34  35
ENDBRANCH  29  34
ENDBRANCH   5  26
TORSDOF 6
