REMARK  Name = ZINC10024837
REMARK  19 active torsions:
REMARK  status: ('A' for Active; 'I' for Inactive)
REMARK    1  A    between atoms: C_1  and  C_2
REMARK    2  A    between atoms: C_2  and  N_69
REMARK    3  A    between atoms: C_3  and  C_4
REMARK    4  A    between atoms: C_3  and  N_69
REMARK    5  A    between atoms: N_6  and  C_7
REMARK    6  A    between atoms: C_8  and  C_20
REMARK    7  A    between atoms: C_9  and  C_19
REMARK    8  A    between atoms: C_10  and  C_18
REMARK    9  A    between atoms: N_11  and  C_12
REMARK   10  A    between atoms: C_12  and  C_13
REMARK   11  A    between atoms: C_20  and  O_22
REMARK   12  A    between atoms: O_22  and  C_23
REMARK   13  A    between atoms: C_23  and  C_24
REMARK   14  A    between atoms: C_25  and  C_26
REMARK   15  A    between atoms: C_25  and  N_69
REMARK   16  A    between atoms: N_28  and  C_29
REMARK   17  A    between atoms: C_29  and  C_30
REMARK   18  A    between atoms: C_29  and  C_31
REMARK   19  A    between atoms: C_29  and  C_32
REMARK                            x       y       z     vdW  Elec       q    Type
REMARK                         _______ _______ _______ _____ _____    ______ ____
ROOT
ATOM      1  C   UNL     1      -1.031   6.397   0.612  0.00  0.00    +0.202 C 
ATOM      2  O   UNL     1      -1.279   5.511  -0.179  0.00  0.00    -0.278 OA
ATOM      3  N   UNL     1      -1.515   6.335   1.868  0.00  0.00    -0.273 N 
ATOM      4  H   UNL     1      -1.275   7.017   2.514  0.00  0.00    +0.156 HD
ENDROOT
BRANCH   3   5
ATOM      5  C   UNL     1      -2.354   5.297   2.236  0.00  0.00    +0.120 A 
ATOM      6  C   UNL     1      -2.353   4.638   3.460  0.00  0.00    +0.102 A 
ATOM      7  C   UNL     1      -3.413   3.625   3.373  0.00  0.00    -0.014 A 
ATOM      8  C   UNL     1      -3.961   3.744   2.154  0.00  0.00    +0.021 A 
ATOM      9  N   UNL     1      -3.324   4.743   1.466  0.00  0.00    -0.327 N 
ATOM     10  C   UNL     1      -5.096   2.907   1.622  0.00  0.00    +0.064 C 
ATOM     11  C   UNL     1      -3.812   2.646   4.447  0.00  0.00    +0.046 C 
BRANCH   6  12
ATOM     12  C   UNL     1      -1.475   4.901   4.602  0.00  0.00    +0.343 C 
ATOM     13  O   UNL     1      -1.806   5.706   5.452  0.00  0.00    -0.245 OA
BRANCH  12  14
ATOM     14  O   UNL     1      -0.299   4.250   4.712  0.00  0.00    -0.461 OA
BRANCH  14  15
ATOM     15  C   UNL     1       0.521   4.560   5.870  0.00  0.00    +0.229 C 
ATOM     16  C   UNL     1       1.806   3.731   5.822  0.00  0.00    +0.048 C 
ENDBRANCH  14  15
ENDBRANCH  12  14
ENDBRANCH   6  12
BRANCH   9  17
ATOM     17  C   UNL     1      -3.647   5.157   0.098  0.00  0.00    +0.165 C 
BRANCH  17  18
ATOM     18  C   UNL     1      -3.298   4.046  -0.859  0.00  0.00    +0.009 A 
ATOM     19  C   UNL     1      -4.030   2.961  -1.210  0.00  0.00    +0.013 A 
ATOM     20  C   UNL     1      -3.501   2.060  -2.115  0.00  0.00    +0.008 A 
ATOM     21  C   UNL     1      -2.270   2.295  -2.633  0.00  0.00    +0.045 A 
ATOM     22  S   UNL     1      -1.817   3.823  -1.830  0.00  0.00    -0.100 S 
ENDBRANCH  17  18
ENDBRANCH   9  17
ENDBRANCH   3   5
BRANCH   1  23
ATOM     23  C   UNL     1      -0.181   7.567   0.188  0.00  0.00    +0.020 C 
BRANCH  23  24
ATOM     24  N   UNL     1       0.118   7.439  -1.253  0.00  0.00    +0.391 N 
ATOM     25  H   UNL     1       0.336   6.457  -1.463  0.00  0.00    -0.080 HD
BRANCH  24  27
ATOM     26  C   UNL     1       2.558   7.555  -1.150  0.00  0.00    -0.017 C 
ATOM     27  C   UNL     1       1.286   8.275  -1.604  0.00  0.00    -0.081 C 
ENDBRANCH  24  27
BRANCH  24  28
ATOM     28  C   UNL     1      -1.056   7.851  -2.051  0.00  0.00    +0.019 C 
BRANCH  28  29
ATOM     29  C   UNL     1      -0.807   7.504  -3.497  0.00  0.00    +0.197 C 
ATOM     30  O   UNL     1       0.240   6.988  -3.825  0.00  0.00    -0.278 OA
ATOM     31  N   UNL     1      -1.748   7.768  -4.425  0.00  0.00    -0.312 N 
ATOM     32  H   UNL     1      -2.585   8.181  -4.162  0.00  0.00    +0.149 HD
BRANCH  31  33
ATOM     33  C   UNL     1      -1.506   7.431  -5.830  0.00  0.00    +0.026 C 
ATOM     34  C   UNL     1      -1.271   5.925  -5.960  0.00  0.00    +0.031 C 
ATOM     35  C   UNL     1      -2.722   7.832  -6.667  0.00  0.00    +0.031 C 
ATOM     36  C   UNL     1      -0.272   8.185  -6.330  0.00  0.00    +0.031 C 
ENDBRANCH  31  33
ENDBRANCH  28  29
ENDBRANCH  24  28
ENDBRANCH  23  24
ENDBRANCH   1  23
TORSDOF 12
