REMARK  Name = ZINC31028162
REMARK  4 active torsions:
REMARK  status: ('A' for Active; 'I' for Inactive)
REMARK    1  A    between atoms: C_9  and  C_12
REMARK    2  A    between atoms: C_12  and  N_13
REMARK    3  A    between atoms: N_16  and  N_17
REMARK    4  A    between atoms: N_17  and  C_18
REMARK                            x       y       z     vdW  Elec       q    Type
REMARK                         _______ _______ _______ _____ _____    ______ ____
ROOT
ATOM      1  N   UNL     1       0.092  -2.773   0.670  0.00  0.00    -0.295 N 
ATOM      2  C   UNL     1      -0.137  -4.087   0.477  0.00  0.00    +0.316 C 
ATOM      3  O   UNL     1       0.573  -4.723  -0.278  0.00  0.00    -0.251 OA
ATOM      4  N   UNL     1      -1.153  -4.695   1.120  0.00  0.00    -0.220 N 
ATOM      5  H   UNL     1      -0.550  -2.197   1.352  0.00  0.00    +0.150 HD
ATOM      6  H   UNL     1      -1.341  -5.768   0.962  0.00  0.00    +0.174 HD
ENDROOT
BRANCH   4   7
ATOM      7  N   UNL     1      -1.972  -3.962   1.989  0.00  0.00    -0.262 N 
ATOM      8  H   UNL     1      -1.784  -2.889   2.146  0.00  0.00    +0.170 HD
BRANCH   7   9
ATOM      9  C   UNL     1      -3.026  -4.593   2.656  0.00  0.00    +0.059 A 
ATOM     10  C   UNL     1      -3.263  -5.947   2.458  0.00  0.00    +0.028 A 
ATOM     11  C   UNL     1      -4.305  -6.568   3.118  0.00  0.00    +0.040 A 
ATOM     12  C   UNL     1      -5.113  -5.843   3.978  0.00  0.00    +0.125 A 
ATOM     13  C   UNL     1      -4.879  -4.493   4.177  0.00  0.00    +0.055 A 
ATOM     14  C   UNL     1      -3.835  -3.868   3.523  0.00  0.00    +0.043 A 
ATOM     15 BR   UNL     1      -3.510  -2.026   3.802  0.00  0.00    -0.048 Br
ATOM     16  F   UNL     1      -6.132  -6.453   4.622  0.00  0.00    -0.205 F 
ENDBRANCH   7   9
ENDBRANCH   4   7
BRANCH   1  17
ATOM     17  C   UNL     1       1.197  -2.111  -0.029  0.00  0.00    +0.153 C 
BRANCH  17  26
ATOM     18  C   UNL     1      -0.091   4.126   0.019  0.00  0.00    +0.004 A 
ATOM     19  C   UNL     1      -1.269   3.403   0.029  0.00  0.00    +0.004 A 
ATOM     20  C   UNL     1      -1.234   2.021   0.019  0.00  0.00    +0.049 A 
ATOM     21  C   UNL     1      -0.016   1.357   0.009  0.00  0.00    +0.163 A 
ATOM     22  C   UNL     1       1.168   2.084   0.002  0.00  0.00    +0.162 A 
ATOM     23  C   UNL     1       1.126   3.471   0.006  0.00  0.00    +0.049 A 
ATOM     24  O   UNL     1       2.373   1.453  -0.008  0.00  0.00    -0.485 OA
ATOM     25  C   UNL     1       2.373   0.072  -0.388  0.00  0.00    +0.275 C 
ATOM     26  C   UNL     1       1.236  -0.633   0.363  0.00  0.00    +0.228 C 
ATOM     27  O   UNL     1       0.002  -0.004   0.002  0.00  0.00    -0.480 OA
ENDBRANCH  17  26
ENDBRANCH   1  17
TORSDOF 4
