REMARK  Name = ZINC36528332
REMARK  13 active torsions:
REMARK  status: ('A' for Active; 'I' for Inactive)
REMARK    1  A    between atoms: C_1  and  C_2
REMARK    2  A    between atoms: C_2  and  C_3
REMARK    3  A    between atoms: C_2  and  C_4
REMARK    4  A    between atoms: C_2  and  N_5
REMARK    5  A    between atoms: C_6  and  C_8
REMARK    6  A    between atoms: C_8  and  C_10
REMARK    7  A    between atoms: C_8  and  N_19
REMARK    8  A    between atoms: C_11  and  O_18
REMARK    9  A    between atoms: C_13  and  O_17
REMARK   10  A    between atoms: C_15  and  O_16
REMARK   11  A    between atoms: N_19  and  C_20
REMARK   12  A    between atoms: C_21  and  C_23
REMARK   13  A    between atoms: C_23  and  C_24
REMARK                            x       y       z     vdW  Elec       q    Type
REMARK                         _______ _______ _______ _____ _____    ______ ____
ROOT
ATOM      1  C   UNL     1       2.683  -0.666  -2.584  0.00  0.00    +0.199 C 
ENDROOT
BRANCH   1   2
ATOM      2  C   UNL     1       1.593  -0.377  -3.585  0.00  0.00    +0.065 A 
ATOM      3  C   UNL     1       1.762  -0.731  -4.915  0.00  0.00    +0.129 A 
ATOM      4  C   UNL     1       0.759  -0.465  -5.835  0.00  0.00    +0.091 A 
ATOM      5  C   UNL     1      -0.412   0.154  -5.426  0.00  0.00    +0.124 A 
ATOM      6  C   UNL     1      -0.581   0.507  -4.095  0.00  0.00    +0.091 A 
ATOM      7  C   UNL     1       0.420   0.237  -3.174  0.00  0.00    +0.129 A 
BRANCH   7   8
ATOM      8  O   UNL     1       0.253   0.579  -1.869  0.00  0.00    -0.506 OA
ATOM      9  H   UNL     1       0.562   1.469  -1.653  0.00  0.00    +0.292 HD
ENDBRANCH   7   8
BRANCH   5  10
ATOM     10  O   UNL     1      -1.394   0.415  -6.328  0.00  0.00    -0.507 OA
ATOM     11  H   UNL     1      -2.038  -0.299  -6.425  0.00  0.00    +0.292 HD
ENDBRANCH   5  10
BRANCH   3  12
ATOM     12  O   UNL     1       2.910  -1.338  -5.317  0.00  0.00    -0.506 OA
ATOM     13  H   UNL     1       2.909  -2.298  -5.199  0.00  0.00    +0.292 HD
ENDBRANCH   3  12
ENDBRANCH   1   2
BRANCH   1  15
ATOM     14  N   UNL     1       1.426  -2.193  -1.099  0.00  0.00    -0.309 N 
ATOM     15  C   UNL     1       2.065  -1.017  -1.256  0.00  0.00    +0.239 C 
ATOM     16  O   UNL     1       2.142  -0.240  -0.327  0.00  0.00    -0.273 OA
ATOM     17  H   UNL     1       1.365  -2.814  -1.841  0.00  0.00    +0.149 HD
BRANCH  14  19
ATOM     18  C   UNL     1      -0.232  -1.489   0.555  0.00  0.00    +0.031 C 
ATOM     19  C   UNL     1       0.825  -2.534   0.193  0.00  0.00    +0.026 C 
ATOM     20  C   UNL     1       1.911  -2.557   1.271  0.00  0.00    +0.031 C 
ATOM     21  C   UNL     1       0.169  -3.913   0.102  0.00  0.00    +0.031 C 
ENDBRANCH  14  19
ENDBRANCH   1  15
BRANCH   1  22
ATOM     22  N   UNL     1       3.531   0.518  -2.431  0.00  0.00    -0.289 N 
ATOM     23  C   UNL     1       2.929   1.815  -2.112  0.00  0.00    +0.133 C 
ATOM     24  C   UNL     1       4.867   0.415  -2.583  0.00  0.00    +0.221 C 
ATOM     25  O   UNL     1       5.366  -0.658  -2.847  0.00  0.00    -0.275 OA
BRANCH  24  26
ATOM     26  C   UNL     1       5.739   1.633  -2.425  0.00  0.00    +0.131 C 
BRANCH  26  27
ATOM     27  C   UNL     1       7.181   1.250  -2.643  0.00  0.00    -0.039 A 
ATOM     28  C   UNL     1       7.955   0.836  -1.576  0.00  0.00    +0.005 A 
ATOM     29  C   UNL     1       9.277   0.484  -1.776  0.00  0.00    +0.015 A 
ATOM     30  C   UNL     1       9.824   0.547  -3.045  0.00  0.00    +0.018 A 
ATOM     31  C   UNL     1       9.049   0.962  -4.112  0.00  0.00    +0.015 A 
ATOM     32  C   UNL     1       7.726   1.309  -3.912  0.00  0.00    +0.005 A 
ATOM     33 BR   UNL     1      11.633   0.067  -3.319  0.00  0.00    -0.050 Br
ENDBRANCH  26  27
ENDBRANCH  24  26
ENDBRANCH   1  22
TORSDOF 9
