REMARK  Name = ZINC00788992
REMARK  11 active torsions:
REMARK  status: ('A' for Active; 'I' for Inactive)
REMARK    1  A    between atoms: C_1  and  C_2
REMARK    2  A    between atoms: C_4  and  C_34
REMARK    3  A    between atoms: C_5  and  C_9
REMARK    4  A    between atoms: C_6  and  C_8
REMARK    5  A    between atoms: C_9  and  O_10
REMARK    6  A    between atoms: O_10  and  C_11
REMARK    7  A    between atoms: C_14  and  C_19
REMARK    8  A    between atoms: C_16  and  O_17
REMARK    9  A    between atoms: O_17  and  C_18
REMARK   10  A    between atoms: C_21  and  C_32
REMARK   11  A    between atoms: C_22  and  N_31
REMARK                            x       y       z     vdW  Elec       q    Type
REMARK                         _______ _______ _______ _____ _____    ______ ____
ROOT
ATOM      1  C   UNL     1       5.289  -1.590  -1.582  0.00  0.00    +0.162 A 
ATOM      2  C   UNL     1       6.040  -2.003  -0.493  0.00  0.00    +0.050 A 
ATOM      3  C   UNL     1       7.232  -2.676  -0.691  0.00  0.00    +0.008 A 
ATOM      4  C   UNL     1       7.682  -2.929  -1.973  0.00  0.00    -0.031 A 
ATOM      5  C   UNL     1       6.940  -2.514  -3.064  0.00  0.00    +0.054 A 
ATOM      6  C   UNL     1       5.743  -1.844  -2.873  0.00  0.00    +0.162 A 
ENDROOT
BRANCH   4   7
ATOM      7  C   UNL     1       8.984  -3.657  -2.183  0.00  0.00    +0.101 C 
ATOM      8  C   UNL     1      10.103  -2.867  -1.564  0.00  0.00    +0.098 C 
ATOM      9  C   UNL     1      10.618  -3.231  -0.364  0.00  0.00    +0.198 C 
ATOM     10  O   UNL     1      10.147  -4.296   0.304  0.00  0.00    -0.445 OA
ATOM     11  C   UNL     1       9.487  -5.263  -0.359  0.00  0.00    +0.115 C 
ATOM     12  C   UNL     1       8.901  -5.024  -1.547  0.00  0.00    +0.046 C 
ATOM     13  C   UNL     1       8.195  -6.032  -2.231  0.00  0.00    +0.163 C 
ATOM     14  O   UNL     1       7.693  -5.782  -3.309  0.00  0.00    -0.292 OA
ATOM     15  C   UNL     1       8.050  -7.413  -1.651  0.00  0.00    +0.080 C 
ATOM     16  C   UNL     1       8.107  -7.317  -0.123  0.00  0.00    +0.016 C 
ATOM     17  C   UNL     1       9.417  -6.634   0.272  0.00  0.00    +0.075 C 
BRANCH   9  18
ATOM     18  N   UNL     1      11.642  -2.495   0.179  0.00  0.00    -0.328 N 
ATOM     19  H   UNL     1      12.017  -2.747   1.037  0.00  0.00    +0.145 HD
ATOM     20  H   UNL     1      11.989  -1.724  -0.295  0.00  0.00    +0.145 HD
ENDBRANCH   9  18
BRANCH   8  21
ATOM     21  C   UNL     1      10.628  -1.722  -2.246  0.00  0.00    +0.101 C 
ATOM     22  N   UNL     1      11.044  -0.814  -2.787  0.00  0.00    -0.191 NA
ENDBRANCH   8  21
ENDBRANCH   4   7
BRANCH   6  23
ATOM     23  O   UNL     1       5.012  -1.436  -3.945  0.00  0.00    -0.491 OA
ATOM     24  C   UNL     1       5.539  -1.731  -5.240  0.00  0.00    +0.277 C 
ENDBRANCH   6  23
BRANCH   1  25
ATOM     25  O   UNL     1       4.114  -0.933  -1.389  0.00  0.00    -0.484 OA
BRANCH  25  26
ATOM     26  C   UNL     1       3.711  -0.707  -0.037  0.00  0.00    +0.265 C 
BRANCH  26  31
ATOM     27  C   UNL     1      -1.332   2.114   0.020  0.00  0.00    +0.044 C 
ATOM     28  C   UNL     1      -0.017   1.378   0.010  0.00  0.00    -0.050 A 
ATOM     29  C   UNL     1       1.171   2.086   0.002  0.00  0.00    +0.007 A 
ATOM     30  C   UNL     1       2.377   1.411  -0.014  0.00  0.00    -0.044 A 
ATOM     31  C   UNL     1       2.396   0.029  -0.021  0.00  0.00    -0.005 A 
ATOM     32  C   UNL     1       1.208  -0.679  -0.014  0.00  0.00    -0.044 A 
ATOM     33  C   UNL     1       0.002  -0.004   0.002  0.00  0.00    +0.007 A 
ATOM     34  C   UNL     1       1.229  -2.186  -0.022  0.00  0.00    +0.044 C 
ATOM     35  C   UNL     1       3.672   2.182  -0.021  0.00  0.00    +0.044 C 
ENDBRANCH  26  31
ENDBRANCH  25  26
ENDBRANCH   1  25
TORSDOF 7
