REMARK  Name = ZINC21240403
REMARK  3 active torsions:
REMARK  status: ('A' for Active; 'I' for Inactive)
REMARK    1  A    between atoms: C_4  and  C_32
REMARK    2  A    between atoms: C_5  and  C_7
REMARK    3  A    between atoms: C_12  and  C_17
REMARK                            x       y       z     vdW  Elec       q    Type
REMARK                         _______ _______ _______ _____ _____    ______ ____
ROOT
ATOM      1  C   UNL     1       2.226  -0.576   2.920  0.00  0.00    +0.136 C 
ATOM      2  C   UNL     1       1.317  -0.197   1.775  0.00  0.00    +0.036 C 
ATOM      3  C   UNL     1       1.332   0.969   1.109  0.00  0.00    +0.017 C 
ATOM      4  C   UNL     1       0.382   1.202  -0.054  0.00  0.00    +0.059 C 
ATOM      5  C   UNL     1      -0.936   0.472   0.200  0.00  0.00    +0.032 C 
ATOM      6  C   UNL     1      -0.623  -1.023   0.334  0.00  0.00    +0.088 C 
ATOM      7  C   UNL     1       0.387  -1.205   1.426  0.00  0.00    +0.163 C 
ATOM      8  O   UNL     1       0.410  -2.258   2.033  0.00  0.00    -0.292 OA
ATOM      9  N   UNL     1       2.164   2.007   1.378  0.00  0.00    -0.316 N 
ATOM     10  C   UNL     1       3.534   1.891   1.583  0.00  0.00    +0.052 A 
ATOM     11  C   UNL     1       4.461   2.458   0.726  0.00  0.00    +0.025 A 
ATOM     12  C   UNL     1       5.811   2.343   1.013  0.00  0.00    +0.002 A 
ATOM     13  C   UNL     1       6.228   1.671   2.148  0.00  0.00    +0.002 A 
ATOM     14  C   UNL     1       5.303   1.089   2.997  0.00  0.00    +0.025 A 
ATOM     15  C   UNL     1       3.952   1.184   2.700  0.00  0.00    +0.049 A 
ATOM     16  N   UNL     1       2.992   0.524   3.466  0.00  0.00    -0.331 N 
ATOM     17  H   UNL     1       1.764   3.029   1.446  0.00  0.00    +0.152 HD
ATOM     18  H   UNL     1       2.820   0.854   4.501  0.00  0.00    +0.147 HD
ENDROOT
BRANCH   5  19
ATOM     19  C   UNL     1      -1.875   0.695  -0.958  0.00  0.00    -0.043 A 
ATOM     20  C   UNL     1      -1.496   0.327  -2.236  0.00  0.00    +0.007 A 
ATOM     21  C   UNL     1      -2.357   0.527  -3.297  0.00  0.00    +0.038 A 
ATOM     22  C   UNL     1      -3.596   1.106  -3.083  0.00  0.00    +0.123 A 
ATOM     23  C   UNL     1      -3.973   1.479  -1.804  0.00  0.00    +0.038 A 
ATOM     24  C   UNL     1      -3.112   1.274  -0.743  0.00  0.00    +0.007 A 
ATOM     25  F   UNL     1      -4.438   1.306  -4.121  0.00  0.00    -0.205 F 
ENDBRANCH   5  19
BRANCH   1  30
ATOM     26  C   UNL     1       4.274  -2.784   0.643  0.00  0.00    +0.000 A 
ATOM     27  C   UNL     1       4.946  -3.575   1.556  0.00  0.00    +0.001 A 
ATOM     28  C   UNL     1       4.737  -3.396   2.911  0.00  0.00    +0.013 A 
ATOM     29  C   UNL     1       3.857  -2.425   3.352  0.00  0.00    +0.060 A 
ATOM     30  C   UNL     1       3.186  -1.634   2.439  0.00  0.00    -0.011 A 
ATOM     31  C   UNL     1       3.390  -1.817   1.084  0.00  0.00    +0.006 A 
BRANCH  29  32
ATOM     32  C   UNL     1       3.629  -2.230   4.829  0.00  0.00    +0.418 C 
ATOM     33  F   UNL     1       4.358  -3.187   5.544  0.00  0.00    -0.166 F 
ATOM     34  F   UNL     1       4.052  -0.949   5.201  0.00  0.00    -0.166 F 
ATOM     35  F   UNL     1       2.267  -2.373   5.114  0.00  0.00    -0.166 F 
ENDBRANCH  29  32
ENDBRANCH   1  30
TORSDOF 3
