REMARK  Name = ZINC49232462
REMARK  9 active torsions:
REMARK  status: ('A' for Active; 'I' for Inactive)
REMARK    1  A    between atoms: C_1  and  C_2
REMARK    2  A    between atoms: C_2  and  C_3
REMARK    3  A    between atoms: C_3  and  N_4
REMARK    4  A    between atoms: C_5  and  C_7
REMARK    5  A    between atoms: C_7  and  C_9
REMARK    6  A    between atoms: C_7  and  N_10
REMARK    7  A    between atoms: N_10  and  C_11
REMARK    8  A    between atoms: C_14  and  N_20
REMARK    9  A    between atoms: C_16  and  C_17
REMARK                            x       y       z     vdW  Elec       q    Type
REMARK                         _______ _______ _______ _____ _____    ______ ____
ROOT
ATOM      1  C   UNL     1       1.837  -5.916   3.901  0.00  0.00    +0.042 A 
ATOM      2  C   UNL     1       0.824  -6.685   3.340  0.00  0.00    +0.025 A 
ATOM      3  C   UNL     1       0.536  -7.932   3.854  0.00  0.00    +0.024 A 
ATOM      4  C   UNL     1       1.256  -8.431   4.936  0.00  0.00    +0.025 A 
ATOM      5  C   UNL     1       2.267  -7.679   5.506  0.00  0.00    +0.039 A 
ATOM      6  C   UNL     1       2.571  -6.415   4.989  0.00  0.00    +0.086 A 
ENDROOT
BRANCH   6   7
ATOM      7  C   UNL     1       3.648  -5.612   5.585  0.00  0.00    +0.388 C 
ATOM      8  O   UNL     1       4.357  -6.091   6.460  0.00  0.00    -0.241 OA
ATOM      9  O   UNL     1       3.837  -4.464   5.205  0.00  0.00    -0.241 OA
ENDBRANCH   6   7
BRANCH   4  10
ATOM     10  N   UNL     1       0.955  -9.698   5.450  0.00  0.00    -0.358 N 
ATOM     11  H   UNL     1       0.246 -10.227   5.052  0.00  0.00    +0.142 HD
ATOM     12  H   UNL     1       1.455 -10.048   6.204  0.00  0.00    +0.142 HD
ENDBRANCH   4  10
BRANCH   1  13
ATOM     13  N   UNL     1       2.126  -4.659   3.382  0.00  0.00    -0.332 N 
ATOM     14  H   UNL     1       2.779  -4.092   3.821  0.00  0.00    +0.147 HD
BRANCH  13  15
ATOM     15  C   UNL     1       1.444  -4.191   2.173  0.00  0.00    +0.154 C 
ATOM     16  C   UNL     1       2.183  -4.709   0.938  0.00  0.00    +0.038 C 
BRANCH  15  18
ATOM     17  N   UNL     1       0.852  -2.028   1.130  0.00  0.00    -0.314 N 
ATOM     18  C   UNL     1       1.430  -2.684   2.155  0.00  0.00    +0.233 C 
ATOM     19  O   UNL     1       1.940  -2.062   3.063  0.00  0.00    -0.274 OA
ATOM     20  H   UNL     1       0.444  -2.525   0.404  0.00  0.00    +0.149 HD
BRANCH  17  21
ATOM     21  C   UNL     1       0.838  -0.563   1.113  0.00  0.00    +0.104 C 
BRANCH  21  23
ATOM     22  C   UNL     1       0.112   1.456  -0.168  0.00  0.00    +0.005 C 
ATOM     23  C   UNL     1       0.126  -0.074  -0.150  0.00  0.00    +0.015 C 
ENDBRANCH  21  23
ENDBRANCH  17  21
ENDBRANCH  15  18
ENDBRANCH  13  15
ENDBRANCH   1  13
TORSDOF 7
