REMARK  Name = ZINC14094058
REMARK  8 active torsions:
REMARK  status: ('A' for Active; 'I' for Inactive)
REMARK    1  A    between atoms: C_1  and  C_2
REMARK    2  A    between atoms: C_2  and  N_3
REMARK    3  A    between atoms: C_5  and  C_14
REMARK    4  A    between atoms: C_14  and  N_62
REMARK    5  A    between atoms: C_15  and  N_62
REMARK    6  A    between atoms: C_16  and  C_17
REMARK    7  A    between atoms: C_16  and  N_62
REMARK    8  A    between atoms: N_19  and  N_20
REMARK                            x       y       z     vdW  Elec       q    Type
REMARK                         _______ _______ _______ _____ _____    ______ ____
ROOT
ATOM      1  C   UNL     1      -4.528   0.267   1.007  0.00  0.00    +0.020 C 
ENDROOT
BRANCH   1   2
ATOM      2  C   UNL     1      -3.135   0.814   1.188  0.00  0.00    +0.213 C 
ATOM      3  O   UNL     1      -2.631   0.834   2.291  0.00  0.00    -0.276 OA
ATOM      4  N   UNL     1      -2.451   1.281   0.125  0.00  0.00    -0.225 N 
ATOM      5  H   UNL     1      -2.855   1.265  -0.757  0.00  0.00    +0.173 HD
BRANCH   4   6
ATOM      6  N   UNL     1      -1.156   1.789   0.294  0.00  0.00    -0.137 N 
ATOM      7  C   UNL     1      -0.849   3.102   0.275  0.00  0.00    +0.263 C 
ATOM      8  O   UNL     1      -1.610   4.032   0.115  0.00  0.00    -0.271 OA
ATOM      9  C   UNL     1       0.645   3.170   0.490  0.00  0.00    +0.114 C 
ATOM     10  C   UNL     1       1.328   3.811  -0.713  0.00  0.00    +0.035 C 
ATOM     11  C   UNL     1       2.842   3.837  -0.488  0.00  0.00    +0.003 C 
ATOM     12  C   UNL     1       3.155   4.632   0.781  0.00  0.00    +0.000 C 
ATOM     13  C   UNL     1       2.481   3.966   1.982  0.00  0.00    +0.003 C 
ATOM     14  C   UNL     1       0.966   3.941   1.766  0.00  0.00    +0.035 C 
ATOM     15  N   UNL     1       1.051   1.765   0.623  0.00  0.00    -0.284 N 
ATOM     16  C   UNL     1      -0.071   1.031   0.497  0.00  0.00    +0.326 C 
ATOM     17  O   UNL     1      -0.096  -0.182   0.556  0.00  0.00    -0.251 OA
ATOM     18  H   UNL     1       1.950   1.431   0.771  0.00  0.00    +0.151 HD
ENDBRANCH   4   6
ENDBRANCH   1   2
BRANCH   1  20
ATOM     19  C   UNL     1      -5.241   0.966   3.212  0.00  0.00    -0.095 C 
ATOM     20  N   UNL     1      -5.035  -0.192   2.317  0.00  0.00    +0.386 N 
ATOM     21  H   UNL     1      -4.342  -0.821   2.741  0.00  0.00    -0.081 HD
BRANCH  20  22
ATOM     22  C   UNL     1      -6.305  -0.925   2.139  0.00  0.00    -0.032 C 
BRANCH  22  25
ATOM     23  N   UNL     1      -6.969  -4.427   0.852  0.00  0.00    -0.324 N 
ATOM     24  C   UNL     1      -7.296  -3.109   1.409  0.00  0.00    +0.147 C 
ATOM     25  C   UNL     1      -5.991  -2.332   1.626  0.00  0.00    +0.174 C 
ATOM     26  O   UNL     1      -5.213  -3.040   2.597  0.00  0.00    -0.487 OA
ATOM     27  C   UNL     1      -5.120  -4.389   2.440  0.00  0.00    +0.142 A 
ATOM     28  C   UNL     1      -5.977  -5.080   1.591  0.00  0.00    +0.072 A 
ATOM     29  C   UNL     1      -5.851  -6.459   1.464  0.00  0.00    +0.027 A 
ATOM     30  C   UNL     1      -4.881  -7.138   2.175  0.00  0.00    +0.002 A 
ATOM     31  C   UNL     1      -4.028  -6.448   3.017  0.00  0.00    +0.004 A 
ATOM     32  C   UNL     1      -4.146  -5.077   3.149  0.00  0.00    +0.047 A 
BRANCH  23  34
ATOM     33  C   UNL     1      -9.135  -4.628  -0.272  0.00  0.00    +0.024 C 
ATOM     34  C   UNL     1      -8.172  -5.262   0.733  0.00  0.00    +0.102 C 
ENDBRANCH  23  34
ENDBRANCH  22  25
ENDBRANCH  20  22
ENDBRANCH   1  20
TORSDOF 6
