REMARK  Name = ZINC24839393
REMARK  13 active torsions:
REMARK  status: ('A' for Active; 'I' for Inactive)
REMARK    1  A    between atoms: C_1  and  C_2
REMARK    2  A    between atoms: C_2  and  O_3
REMARK    3  A    between atoms: O_3  and  C_4
REMARK    4  A    between atoms: C_4  and  C_6
REMARK    5  A    between atoms: C_7  and  C_20
REMARK    6  A    between atoms: C_12  and  C_14
REMARK    7  A    between atoms: C_17  and  C_19
REMARK    8  A    between atoms: C_20  and  O_21
REMARK    9  A    between atoms: O_21  and  C_22
REMARK   10  A    between atoms: C_22  and  C_24
REMARK   11  A    between atoms: C_27  and  C_29
REMARK   12  A    between atoms: C_29  and  O_30
REMARK   13  A    between atoms: O_30  and  C_31
REMARK                            x       y       z     vdW  Elec       q    Type
REMARK                         _______ _______ _______ _____ _____    ______ ____
ROOT
ATOM      1  C   UNL     1       3.032  -7.190  -6.458  0.00  0.00    +0.084 C 
ATOM      2  C   UNL     1       1.896  -7.114  -5.731  0.00  0.00    +0.061 C 
ATOM      3  N   UNL     1       0.859  -6.319  -6.126  0.00  0.00    -0.269 N 
ATOM      4  C   UNL     1       0.883  -5.560  -7.229  0.00  0.00    +0.305 C 
ATOM      5  O   UNL     1      -0.088  -4.880  -7.496  0.00  0.00    -0.252 OA
ATOM      6  N   UNL     1       1.947  -5.530  -8.056  0.00  0.00    -0.285 N 
ATOM      7  C   UNL     1       3.118  -6.359  -7.722  0.00  0.00    +0.179 C 
ATOM      8  H   UNL     1      -0.062  -6.277  -5.525  0.00  0.00    +0.156 HD
ATOM      9  H   UNL     1       1.955  -4.907  -8.962  0.00  0.00    +0.151 HD
ENDROOT
BRANCH   7  10
ATOM     10  C   UNL     1       3.370  -7.294  -8.877  0.00  0.00    +0.130 A 
ATOM     11  C   UNL     1       4.562  -7.525  -9.455  0.00  0.00    +0.047 A 
ATOM     12  C   UNL     1       4.340  -8.463 -10.490  0.00  0.00    +0.045 A 
ATOM     13  C   UNL     1       3.025  -8.748 -10.482  0.00  0.00    +0.102 A 
ATOM     14  O   UNL     1       2.444  -8.041  -9.499  0.00  0.00    -0.463 OA
ATOM     15  C   UNL     1       2.325  -9.703 -11.414  0.00  0.00    +0.086 C 
ENDBRANCH   7  10
BRANCH   1  16
ATOM     16  C   UNL     1       4.105  -8.019  -6.053  0.00  0.00    +0.339 C 
ATOM     17  O   UNL     1       5.073  -7.533  -5.500  0.00  0.00    -0.245 OA
BRANCH  16  18
ATOM     18  O   UNL     1       4.054  -9.348  -6.281  0.00  0.00    -0.462 OA
BRANCH  18  20
ATOM     19  C   UNL     1       4.936 -11.596  -6.188  0.00  0.00    +0.048 C 
ATOM     20  C   UNL     1       5.173 -10.123  -5.846  0.00  0.00    +0.229 C 
ENDBRANCH  18  20
ENDBRANCH  16  18
ENDBRANCH   1  16
BRANCH   2  21
ATOM     21  C   UNL     1       1.769  -7.925  -4.467  0.00  0.00    +0.284 C 
BRANCH  21  22
ATOM     22  O   UNL     1       1.679  -7.032  -3.326  0.00  0.00    -0.454 OA
BRANCH  22  23
ATOM     23  C   UNL     1       1.560  -7.602  -2.110  0.00  0.00    +0.359 C 
ATOM     24  O   UNL     1       1.532  -8.813  -2.007  0.00  0.00    -0.243 OA
BRANCH  23  25
ATOM     25  C   UNL     1       1.464  -6.759  -0.909  0.00  0.00    +0.155 A 
ATOM     26  C   UNL     1       1.342  -7.313   0.341  0.00  0.00    +0.082 A 
ATOM     27  S   UNL     1       1.279  -5.897   1.342  0.00  0.00    -0.076 S 
ATOM     28  C   UNL     1       1.404  -4.703   0.091  0.00  0.00    +0.117 A 
ATOM     29  N   UNL     1       1.492  -5.428  -0.993  0.00  0.00    -0.234 NA
BRANCH  28  30
ATOM     30  C   UNL     1       1.415  -3.202   0.222  0.00  0.00    +0.291 C 
BRANCH  30  31
ATOM     31  O   UNL     1       0.076  -2.707   0.141  0.00  0.00    -0.485 OA
BRANCH  31  32
ATOM     32  C   UNL     1      -0.091  -1.361   0.242  0.00  0.00    +0.121 A 
ATOM     33  C   UNL     1      -1.363  -0.813   0.172  0.00  0.00    +0.048 A 
ATOM     34  C   UNL     1      -1.532   0.554   0.274  0.00  0.00    +0.042 A 
ATOM     35  C   UNL     1      -0.432   1.377   0.446  0.00  0.00    +0.124 A 
ATOM     36  C   UNL     1       0.838   0.831   0.516  0.00  0.00    +0.042 A 
ATOM     37  C   UNL     1       1.010  -0.536   0.415  0.00  0.00    +0.048 A 
ATOM     38  F   UNL     1      -0.599   2.714   0.546  0.00  0.00    -0.205 F 
ENDBRANCH  31  32
ENDBRANCH  30  31
ENDBRANCH  28  30
ENDBRANCH  23  25
ENDBRANCH  22  23
ENDBRANCH  21  22
ENDBRANCH   2  21
TORSDOF 11
