REMARK  Name = ZINC09454859
REMARK  8 active torsions:
REMARK  status: ('A' for Active; 'I' for Inactive)
REMARK    1  A    between atoms: C_3  and  C_7
REMARK    2  A    between atoms: C_13  and  C_14
REMARK    3  A    between atoms: C_17  and  O_20
REMARK    4  A    between atoms: O_20  and  C_21
REMARK    5  A    between atoms: C_21  and  C_22
REMARK    6  A    between atoms: C_22  and  C_23
REMARK    7  A    between atoms: C_23  and  O_24
REMARK    8  A    between atoms: O_24  and  C_25
REMARK                            x       y       z     vdW  Elec       q    Type
REMARK                         _______ _______ _______ _____ _____    ______ ____
ROOT
ATOM      1  C   UNL     1       4.287   2.953  -1.795  0.00  0.00    +0.131 C 
ATOM      2  N   UNL     1       5.174   2.240  -1.145  0.00  0.00    -0.164 NA
ATOM      3  N   UNL     1       6.498   2.620  -1.103  0.00  0.00    -0.152 N 
ATOM      4  C   UNL     1       7.549   1.882  -0.515  0.00  0.00    +0.153 C 
ATOM      5  N   UNL     1       7.495   0.593  -0.312  0.00  0.00    -0.283 NA
ATOM      6  C   UNL     1       8.725   2.720  -0.148  0.00  0.00    +0.081 C 
ATOM      7  C   UNL     1       9.507   2.433   0.949  0.00  0.00    +0.024 C 
ATOM      8  C   UNL     1       9.010   3.881  -1.028  0.00  0.00    +0.273 C 
ATOM      9  O   UNL     1      10.136   4.343  -1.113  0.00  0.00    -0.268 OA
ATOM     10  N   UNL     1       7.989   4.409  -1.731  0.00  0.00    -0.152 NA
ATOM     11  C   UNL     1       6.823   3.811  -1.716  0.00  0.00    +0.181 C 
ATOM     12  S   UNL     1       5.277   4.295  -2.438  0.00  0.00    -0.033 S 
ATOM     13  H   UNL     1       6.704   0.094  -0.571  0.00  0.00    +0.188 HD
ENDROOT
BRANCH   1  16
ATOM     14  C   UNL     1       0.696   3.313  -2.831  0.00  0.00    +0.020 A 
ATOM     15  C   UNL     1       2.046   3.589  -2.705  0.00  0.00    +0.013 A 
ATOM     16  C   UNL     1       2.837   2.707  -1.961  0.00  0.00    +0.027 A 
ATOM     17  C   UNL     1       2.236   1.591  -1.378  0.00  0.00    +0.121 A 
ATOM     18  N   UNL     1       0.947   1.371  -1.526  0.00  0.00    -0.263 NA
ATOM     19  C   UNL     1       0.176   2.185  -2.222  0.00  0.00    +0.111 A 
ENDBRANCH   1  16
BRANCH   7  20
ATOM     20  C   UNL     1      10.534   3.382   1.384  0.00  0.00    -0.024 A 
ATOM     21  C   UNL     1      10.301   4.762   1.298  0.00  0.00    +0.011 A 
ATOM     22  C   UNL     1      11.263   5.641   1.706  0.00  0.00    +0.046 A 
ATOM     23  C   UNL     1      12.473   5.170   2.205  0.00  0.00    +0.121 A 
ATOM     24  C   UNL     1      12.711   3.803   2.294  0.00  0.00    +0.046 A 
ATOM     25  C   UNL     1      11.754   2.913   1.895  0.00  0.00    +0.011 A 
BRANCH  23  26
ATOM     26  O   UNL     1      13.425   6.049   2.608  0.00  0.00    -0.492 OA
BRANCH  26  27
ATOM     27  C   UNL     1      14.645   5.499   3.111  0.00  0.00    +0.232 C 
BRANCH  27  28
ATOM     28  C   UNL     1      15.589   6.634   3.512  0.00  0.00    +0.082 C 
BRANCH  28  29
ATOM     29  C   UNL     1      16.894   6.045   4.051  0.00  0.00    +0.232 C 
BRANCH  29  30
ATOM     30  O   UNL     1      17.776   7.105   4.426  0.00  0.00    -0.492 OA
BRANCH  30  31
ATOM     31  C   UNL     1      18.989   6.750   4.927  0.00  0.00    +0.121 A 
ATOM     32  C   UNL     1      19.325   5.410   5.051  0.00  0.00    +0.047 A 
ATOM     33  C   UNL     1      20.557   5.052   5.561  0.00  0.00    +0.023 A 
ATOM     34  C   UNL     1      21.457   6.029   5.949  0.00  0.00    +0.041 A 
ATOM     35  C   UNL     1      21.124   7.366   5.827  0.00  0.00    +0.023 A 
ATOM     36  C   UNL     1      19.894   7.729   5.311  0.00  0.00    +0.047 A 
ATOM     37 CL   UNL     1      23.005   5.576   6.591  0.00  0.00    -0.084 Cl
ENDBRANCH  30  31
ENDBRANCH  29  30
ENDBRANCH  28  29
ENDBRANCH  27  28
ENDBRANCH  26  27
ENDBRANCH  23  26
ENDBRANCH   7  20
TORSDOF 8
