REMARK  Name = ZINC16848487
REMARK  9 active torsions:
REMARK  status: ('A' for Active; 'I' for Inactive)
REMARK    1  A    between atoms: C_1  and  C_2
REMARK    2  A    between atoms: C_5  and  C_9
REMARK    3  A    between atoms: C_6  and  C_8
REMARK    4  A    between atoms: C_9  and  C_10
REMARK    5  A    between atoms: C_11  and  C_18
REMARK    6  A    between atoms: C_13  and  C_17
REMARK    7  A    between atoms: C_15  and  O_16
REMARK    8  A    between atoms: C_19  and  C_20
REMARK    9  A    between atoms: C_25  and  O_26
REMARK                            x       y       z     vdW  Elec       q    Type
REMARK                         _______ _______ _______ _____ _____    ______ ____
ROOT
ATOM      1  C   UNL     1       2.100   2.054  -2.159  0.00  0.00    +0.044 A 
ATOM      2  C   UNL     1       3.167   2.781  -2.696  0.00  0.00    +0.074 A 
ATOM      3  N   UNL     1       3.962   3.466  -1.870  0.00  0.00    -0.232 NA
ATOM      4  C   UNL     1       3.750   3.460  -0.571  0.00  0.00    +0.130 A 
ATOM      5  N   UNL     1       2.752   2.790  -0.030  0.00  0.00    -0.198 NA
ATOM      6  C   UNL     1       1.917   2.078  -0.781  0.00  0.00    +0.220 A 
ATOM      7  C   UNL     1       4.672   4.246   0.324  0.00  0.00    +0.088 C 
ENDROOT
BRANCH   6   8
ATOM      8  O   UNL     1       0.897   1.390  -0.211  0.00  0.00    -0.492 OA
ATOM      9  H   UNL     1       1.117   0.476   0.014  0.00  0.00    +0.294 HD
ENDBRANCH   6   8
BRANCH   2  10
ATOM     10  C   UNL     1       3.408   2.792  -4.148  0.00  0.00    +0.029 C 
ATOM     11  C   UNL     1       4.496   3.408  -4.644  0.00  0.00    +0.013 C 
BRANCH  11  12
ATOM     12  C   UNL     1       4.798   3.323  -6.082  0.00  0.00    +0.016 A 
ATOM     13  C   UNL     1       3.894   2.712  -6.956  0.00  0.00    +0.011 A 
ATOM     14  C   UNL     1       4.183   2.637  -8.302  0.00  0.00    +0.001 A 
ATOM     15  C   UNL     1       5.366   3.163  -8.792  0.00  0.00    +0.004 A 
ATOM     16  C   UNL     1       6.269   3.769  -7.939  0.00  0.00    +0.046 A 
ATOM     17  C   UNL     1       5.992   3.859  -6.585  0.00  0.00    +0.124 A 
BRANCH  17  18
ATOM     18  O   UNL     1       6.876   4.460  -5.747  0.00  0.00    -0.506 OA
ATOM     19  H   UNL     1       7.535   3.859  -5.374  0.00  0.00    +0.292 HD
ENDBRANCH  17  18
ENDBRANCH  11  12
ENDBRANCH   2  10
BRANCH   1  20
ATOM     20  C   UNL     1       1.174   1.265  -3.049  0.00  0.00    +0.078 C 
BRANCH  20  25
ATOM     21  C   UNL     1       2.940  -4.233  -3.269  0.00  0.00    +0.044 C 
ATOM     22  C   UNL     1       2.479  -2.799  -3.212  0.00  0.00    -0.050 A 
ATOM     23  C   UNL     1       3.235  -1.806  -3.808  0.00  0.00    +0.003 A 
ATOM     24  C   UNL     1       2.812  -0.491  -3.755  0.00  0.00    +0.004 A 
ATOM     25  C   UNL     1       1.635  -0.169  -3.107  0.00  0.00    -0.040 A 
ATOM     26  C   UNL     1       0.882  -1.161  -2.507  0.00  0.00    -0.047 A 
ATOM     27  C   UNL     1       1.302  -2.477  -2.564  0.00  0.00    +0.007 A 
ATOM     28  C   UNL     1      -0.398  -0.809  -1.794  0.00  0.00    +0.044 C 
ENDBRANCH  20  25
ENDBRANCH   1  20
TORSDOF 6
