REMARK  Name = ZINC08685893
REMARK  9 active torsions:
REMARK  status: ('A' for Active; 'I' for Inactive)
REMARK    1  A    between atoms: C_1  and  C_2
REMARK    2  A    between atoms: C_2  and  C_4
REMARK    3  A    between atoms: C_4  and  N_5
REMARK    4  A    between atoms: N_5  and  C_6
REMARK    5  A    between atoms: C_6  and  N_7
REMARK    6  A    between atoms: N_7  and  N_8
REMARK    7  A    between atoms: C_9  and  C_11
REMARK    8  A    between atoms: C_11  and  C_12
REMARK    9  A    between atoms: C_12  and  N_13
REMARK                            x       y       z     vdW  Elec       q    Type
REMARK                         _______ _______ _______ _____ _____    ______ ____
ROOT
ATOM      1  C   UNL     1      -7.687  -1.058  -2.946  0.00  0.00    +0.131 C 
ENDROOT
BRANCH   1   2
ATOM      2  N   UNL     1      -8.797  -0.517  -2.156  0.00  0.00    -0.339 N 
ATOM      3  C   UNL     1      -9.472  -1.207  -1.165  0.00  0.00    +0.050 A 
ATOM      4  C   UNL     1      -9.330  -2.494  -0.656  0.00  0.00    +0.028 A 
ATOM      5  C   UNL     1     -10.158  -2.933   0.355  0.00  0.00    +0.022 A 
ATOM      6  C   UNL     1     -11.137  -2.100   0.875  0.00  0.00    +0.042 A 
ATOM      7  C   UNL     1     -11.293  -0.820   0.384  0.00  0.00    +0.030 A 
ATOM      8  C   UNL     1     -10.463  -0.366  -0.638  0.00  0.00    +0.009 A 
ATOM      9  C   UNL     1     -10.364   0.909  -1.371  0.00  0.00    +0.009 A 
ATOM     10  C   UNL     1      -9.316   0.759  -2.291  0.00  0.00    +0.050 A 
ATOM     11  C   UNL     1      -8.986   1.820  -3.128  0.00  0.00    +0.028 A 
ATOM     12  C   UNL     1      -9.684   3.006  -3.047  0.00  0.00    +0.022 A 
ATOM     13  C   UNL     1     -10.719   3.155  -2.135  0.00  0.00    +0.042 A 
ATOM     14  C   UNL     1     -11.065   2.111  -1.302  0.00  0.00    +0.030 A 
ATOM     15 CL   UNL     1     -11.586   4.656  -2.047  0.00  0.00    -0.084 Cl
ATOM     16 CL   UNL     1     -12.171  -2.670   2.149  0.00  0.00    -0.084 Cl
ENDBRANCH   1   2
BRANCH   1  17
ATOM     17  C   UNL     1      -6.365  -0.761  -2.236  0.00  0.00    +0.119 C 
BRANCH  17  19
ATOM     18  N   UNL     1      -3.955  -1.174  -2.615  0.00  0.00    -0.235 N 
ATOM     19  C   UNL     1      -5.223  -1.317  -3.049  0.00  0.00    +0.231 C 
ATOM     20  O   UNL     1      -5.446  -1.894  -4.092  0.00  0.00    -0.274 OA
ATOM     21  H   UNL     1      -3.777  -0.713  -1.781  0.00  0.00    +0.173 HD
BRANCH  18  22
ATOM     22  N   UNL     1      -2.894  -1.691  -3.370  0.00  0.00    -0.246 N 
ATOM     23  H   UNL     1      -3.073  -2.152  -4.205  0.00  0.00    +0.172 HD
BRANCH  22  24
ATOM     24  C   UNL     1      -1.626  -1.548  -2.937  0.00  0.00    +0.147 C 
ATOM     25  S   UNL     1      -0.330  -2.179  -3.860  0.00  0.00    -0.017 S 
BRANCH  24  26
ATOM     26  N   UNL     1      -1.379  -0.906  -1.778  0.00  0.00    -0.322 N 
ATOM     27  H   UNL     1      -2.113  -0.548  -1.255  0.00  0.00    +0.148 HD
BRANCH  26  28
ATOM     28  C   UNL     1      -0.000  -0.750  -1.307  0.00  0.00    +0.133 C 
BRANCH  28  30
ATOM     29  C   UNL     1      -0.018   1.503   0.010  0.00  0.00    +0.040 C 
ATOM     30  C   UNL     1       0.002  -0.004   0.002  0.00  0.00    -0.063 C 
ATOM     31  C   UNL     1       0.022  -0.665   1.133  0.00  0.00    +0.009 C 
ENDBRANCH  28  30
ENDBRANCH  26  28
ENDBRANCH  24  26
ENDBRANCH  22  24
ENDBRANCH  18  22
ENDBRANCH  17  19
ENDBRANCH   1  17
TORSDOF 8
