REMARK  Name = ZINC04106419
REMARK  7 active torsions:
REMARK  status: ('A' for Active; 'I' for Inactive)
REMARK    1  A    between atoms: C_7  and  C_20
REMARK    2  A    between atoms: N_9  and  C_10
REMARK    3  A    between atoms: C_10  and  C_11
REMARK    4  A    between atoms: C_14  and  N_17
REMARK    5  A    between atoms: N_21  and  N_22
REMARK    6  A    between atoms: N_22  and  C_23
REMARK    7  A    between atoms: C_26  and  C_31
REMARK                            x       y       z     vdW  Elec       q    Type
REMARK                         _______ _______ _______ _____ _____    ______ ____
ROOT
ATOM      1  C   UNL     1      -1.228   1.747   0.017  0.00  0.00    +0.001 A 
ATOM      2  C   UNL     1      -0.013   1.076   0.008  0.00  0.00    +0.002 A 
ATOM      3  C   UNL     1       1.175   1.774   0.000  0.00  0.00    +0.026 A 
ATOM      4  C   UNL     1       1.159   3.166   0.007  0.00  0.00    +0.050 A 
ATOM      5  C   UNL     1      -0.075   3.838   0.022  0.00  0.00    +0.009 A 
ATOM      6  C   UNL     1      -1.265   3.113   0.030  0.00  0.00    +0.010 A 
ATOM      7  C   UNL     1       0.246   5.276   0.027  0.00  0.00    +0.020 A 
ATOM      8  C   UNL     1       1.602   5.372   0.015  0.00  0.00    +0.096 A 
ATOM      9  N   UNL     1       2.151   4.122   0.003  0.00  0.00    -0.342 N 
ENDROOT
BRANCH   7  10
ATOM     10  C   UNL     1      -0.715   6.393   0.041  0.00  0.00    +0.140 C 
ATOM     11  N   UNL     1      -1.991   6.151   0.052  0.00  0.00    -0.190 NA
BRANCH  11  12
ATOM     12  N   UNL     1      -2.905   7.213   0.066  0.00  0.00    -0.232 N 
ATOM     13  H   UNL     1      -2.584   8.129   0.068  0.00  0.00    +0.175 HD
BRANCH  12  14
ATOM     14  C   UNL     1      -4.278   6.953   0.077  0.00  0.00    +0.124 A 
ATOM     15  C   UNL     1      -4.749   5.684  -0.242  0.00  0.00    +0.184 A 
ATOM     16  C   UNL     1      -6.110   5.428  -0.224  0.00  0.00    +0.175 A 
ATOM     17  C   UNL     1      -7.002   6.438   0.099  0.00  0.00    +0.131 A 
ATOM     18  C   UNL     1      -6.535   7.703   0.412  0.00  0.00    +0.175 A 
ATOM     19  C   UNL     1      -5.176   7.964   0.403  0.00  0.00    +0.184 A 
ATOM     20  F   UNL     1      -4.722   9.199   0.708  0.00  0.00    -0.200 F 
ATOM     21  F   UNL     1      -7.408   8.685   0.728  0.00  0.00    -0.202 F 
ATOM     22  F   UNL     1      -6.569   4.195  -0.529  0.00  0.00    -0.202 F 
ATOM     23  F   UNL     1      -3.881   4.701  -0.563  0.00  0.00    -0.200 F 
BRANCH  17  24
ATOM     24  C   UNL     1      -8.482   6.157   0.111  0.00  0.00    +0.423 C 
ATOM     25  F   UNL     1      -9.015   6.413  -1.157  0.00  0.00    -0.166 F 
ATOM     26  F   UNL     1      -8.701   4.817   0.448  0.00  0.00    -0.166 F 
ATOM     27  F   UNL     1      -9.105   6.982   1.054  0.00  0.00    -0.166 F 
ENDBRANCH  17  24
ENDBRANCH  12  14
ENDBRANCH  11  12
ENDBRANCH   7  10
BRANCH   9  28
ATOM     28  C   UNL     1       3.588   3.838  -0.012  0.00  0.00    +0.157 C 
BRANCH  28  29
ATOM     29  C   UNL     1       4.044   3.626  -1.433  0.00  0.00    -0.028 A 
ATOM     30  C   UNL     1       4.028   2.358  -1.982  0.00  0.00    +0.007 A 
ATOM     31  C   UNL     1       4.441   2.164  -3.287  0.00  0.00    +0.033 A 
ATOM     32  C   UNL     1       4.880   3.237  -4.039  0.00  0.00    +0.126 A 
ATOM     33  C   UNL     1       4.901   4.505  -3.488  0.00  0.00    +0.033 A 
ATOM     34  C   UNL     1       4.483   4.699  -2.185  0.00  0.00    +0.007 A 
BRANCH  32  35
ATOM     35  N   UNL     1       5.326   3.030  -5.435  0.00  0.00    +0.056 N 
ATOM     36  O   UNL     1       5.712   3.975  -6.098  0.00  0.00    -0.126 OA
ATOM     37  O   UNL     1       5.308   1.913  -5.920  0.00  0.00    -0.126 OA
ENDBRANCH  32  35
ENDBRANCH  28  29
ENDBRANCH   9  28
TORSDOF 7
