REMARK  Name = ZINC20881550
REMARK  5 active torsions:
REMARK  status: ('A' for Active; 'I' for Inactive)
REMARK    1  A    between atoms: C_1  and  C_2
REMARK    2  A    between atoms: C_2  and  C_3
REMARK    3  A    between atoms: C_6  and  C_9
REMARK    4  A    between atoms: C_14  and  C_24
REMARK    5  A    between atoms: C_29  and  O_30
REMARK                            x       y       z     vdW  Elec       q    Type
REMARK                         _______ _______ _______ _____ _____    ______ ____
ROOT
ATOM      1  C   UNL     1      -2.439   2.967  -4.974  0.00  0.00    +0.032 C 
ATOM      2  C   UNL     1      -3.898   2.980  -4.524  0.00  0.00    +0.059 C 
ATOM      3  C   UNL     1      -4.783   3.489  -5.651  0.00  0.00    +0.017 C 
ATOM      4  C   UNL     1      -4.462   3.241  -6.932  0.00  0.00    +0.037 C 
ATOM      5  C   UNL     1      -5.259   3.663  -8.143  0.00  0.00    +0.139 C 
ATOM      6  N   UNL     1      -6.313   4.615  -7.864  0.00  0.00    -0.331 N 
ATOM      7  C   UNL     1      -7.399   4.272  -7.060  0.00  0.00    +0.049 A 
ATOM      8  C   UNL     1      -8.677   4.156  -7.583  0.00  0.00    +0.025 A 
ATOM      9  C   UNL     1      -9.706   3.708  -6.772  0.00  0.00    +0.002 A 
ATOM     10  C   UNL     1      -9.463   3.380  -5.451  0.00  0.00    +0.002 A 
ATOM     11  C   UNL     1      -8.192   3.515  -4.920  0.00  0.00    +0.025 A 
ATOM     12  C   UNL     1      -7.166   3.979  -5.725  0.00  0.00    +0.052 A 
ATOM     13  N   UNL     1      -5.877   4.180  -5.244  0.00  0.00    -0.316 N 
ATOM     14  C   UNL     1      -3.282   2.525  -7.245  0.00  0.00    +0.163 C 
ATOM     15  O   UNL     1      -3.028   2.296  -8.412  0.00  0.00    -0.292 OA
ATOM     16  C   UNL     1      -2.333   2.040  -6.191  0.00  0.00    +0.088 C 
ATOM     17  H   UNL     1      -6.266   5.629  -8.288  0.00  0.00    +0.147 HD
ATOM     18  H   UNL     1      -5.779   4.966  -4.481  0.00  0.00    +0.152 HD
ENDROOT
BRANCH   5  19
ATOM     19  C   UNL     1      -5.875   2.435  -8.762  0.00  0.00    +0.020 A 
ATOM     20  C   UNL     1      -5.964   1.265  -8.033  0.00  0.00    +0.029 A 
ATOM     21  C   UNL     1      -6.529   0.137  -8.601  0.00  0.00    +0.042 A 
ATOM     22  C   UNL     1      -7.007   0.179  -9.899  0.00  0.00    +0.023 A 
ATOM     23  C   UNL     1      -6.920   1.347 -10.631  0.00  0.00    +0.047 A 
ATOM     24  C   UNL     1      -6.359   2.481 -10.061  0.00  0.00    +0.122 A 
ATOM     25 CL   UNL     1      -6.641  -1.333  -7.683  0.00  0.00    -0.084 Cl
BRANCH  24  26
ATOM     26  O   UNL     1      -6.277   3.633 -10.777  0.00  0.00    -0.506 OA
ATOM     27  H   UNL     1      -6.661   3.669 -11.807  0.00  0.00    +0.292 HD
ENDBRANCH  24  26
ENDBRANCH   5  19
BRANCH   1  31
ATOM     28  C   UNL     1       0.036   1.501  -1.816  0.00  0.00    -0.048 A 
ATOM     29  C   UNL     1      -0.986   0.715  -2.315  0.00  0.00    +0.004 A 
ATOM     30  C   UNL     1      -1.789   1.192  -3.334  0.00  0.00    +0.004 A 
ATOM     31  C   UNL     1      -1.565   2.450  -3.860  0.00  0.00    -0.043 A 
ATOM     32  C   UNL     1      -0.540   3.234  -3.365  0.00  0.00    +0.004 A 
ATOM     33  C   UNL     1       0.261   2.759  -2.343  0.00  0.00    +0.004 A 
BRANCH  28  35
ATOM     34  C   UNL     1       0.302   1.376   0.646  0.00  0.00    +0.009 C 
ATOM     35  C   UNL     1       0.909   0.984  -0.702  0.00  0.00    +0.032 C 
ENDBRANCH  28  35
ENDBRANCH   1  31
TORSDOF 4
