REMARK  Name = ZINC63571385
REMARK  7 active torsions:
REMARK  status: ('A' for Active; 'I' for Inactive)
REMARK    1  A    between atoms: C_1  and  C_2
REMARK    2  A    between atoms: C_2  and  O_3
REMARK    3  A    between atoms: O_3  and  C_4
REMARK    4  A    between atoms: C_4  and  C_6
REMARK    5  A    between atoms: C_6  and  C_7
REMARK    6  A    between atoms: C_7  and  N_13
REMARK    7  A    between atoms: C_29  and  C_31
REMARK                            x       y       z     vdW  Elec       q    Type
REMARK                         _______ _______ _______ _____ _____    ______ ____
ROOT
ATOM      1  N   UNL     1      -2.164  -4.360   1.158  0.00  0.00    -0.293 N 
ATOM      2  C   UNL     1      -0.998  -3.764   1.476  0.00  0.00    +0.303 C 
ATOM      3  O   UNL     1      -0.460  -3.018   0.681  0.00  0.00    -0.253 OA
ATOM      4  N   UNL     1      -0.428  -3.994   2.676  0.00  0.00    -0.276 N 
ATOM      5  C   UNL     1      -1.017  -4.988   3.579  0.00  0.00    +0.114 C 
ATOM      6  C   UNL     1       0.035  -6.061   3.917  0.00  0.00    +0.052 C 
ATOM      7  C   UNL     1       1.312  -5.327   4.241  0.00  0.00    -0.035 C 
ATOM      8  C   UNL     1       2.128  -5.404   5.285  0.00  0.00    -0.001 A 
ATOM      9  C   UNL     1       2.147  -6.303   6.450  0.00  0.00    +0.010 A 
ATOM     10  C   UNL     1       3.133  -6.086   7.359  0.00  0.00    +0.001 A 
ATOM     11  C   UNL     1       4.092  -5.077   7.228  0.00  0.00    +0.002 A 
ATOM     12  C   UNL     1       4.155  -4.210   6.186  0.00  0.00    +0.026 A 
ATOM     13  C   UNL     1       3.175  -4.344   5.161  0.00  0.00    +0.043 A 
ATOM     14  N   UNL     1       3.016  -3.676   4.056  0.00  0.00    -0.375 N 
ATOM     15  C   UNL     1       1.896  -4.263   3.319  0.00  0.00    +0.131 C 
ATOM     16  C   UNL     1       0.782  -3.251   3.062  0.00  0.00    +0.137 C 
ATOM     17  H   UNL     1      -2.559  -5.007   1.764  0.00  0.00    +0.151 HD
ATOM     18  H   UNL     1       3.548  -2.917   3.770  0.00  0.00    +0.160 HD
ENDROOT
BRANCH  16  19
ATOM     19  C   UNL     1       1.187  -2.321   1.947  0.00  0.00    +0.010 A 
ATOM     20  C   UNL     1       2.189  -2.690   1.069  0.00  0.00    +0.008 A 
ATOM     21  C   UNL     1       2.561  -1.838   0.046  0.00  0.00    +0.000 A 
ATOM     22  C   UNL     1       1.931  -0.615  -0.100  0.00  0.00    +0.003 A 
ATOM     23  C   UNL     1       0.929  -0.245   0.777  0.00  0.00    +0.039 A 
ATOM     24  C   UNL     1       0.552  -1.100   1.798  0.00  0.00    +0.128 A 
ATOM     25  F   UNL     1      -0.431  -0.741   2.653  0.00  0.00    -0.205 F 
ENDBRANCH  16  19
BRANCH   1  26
ATOM     26  C   UNL     1      -2.836  -4.031  -0.101  0.00  0.00    +0.046 C 
ATOM     27  C   UNL     1      -4.167  -4.782  -0.181  0.00  0.00    +0.026 C 
ATOM     28  C   UNL     1      -5.056  -4.370   0.993  0.00  0.00    +0.002 C 
ATOM     29  C   UNL     1      -5.316  -2.863   0.932  0.00  0.00    +0.000 C 
ATOM     30  C   UNL     1      -3.985  -2.112   1.012  0.00  0.00    +0.002 C 
ATOM     31  C   UNL     1      -3.096  -2.524  -0.163  0.00  0.00    +0.026 C 
BRANCH  26  32
ATOM     32  C   UNL     1      -1.946  -4.443  -1.276  0.00  0.00    +0.146 C 
BRANCH  32  33
ATOM     33  C   UNL     1      -1.618  -5.910  -1.167  0.00  0.00    +0.309 C 
ATOM     34  O   UNL     1      -1.977  -6.539  -0.200  0.00  0.00    -0.251 OA
BRANCH  33  35
ATOM     35  O   UNL     1      -0.926  -6.517  -2.144  0.00  0.00    -0.465 OA
BRANCH  35  37
ATOM     36  C   UNL     1       0.141  -8.422  -3.180  0.00  0.00    +0.048 C 
ATOM     37  C   UNL     1      -0.650  -7.909  -1.975  0.00  0.00    +0.229 C 
ENDBRANCH  35  37
ENDBRANCH  33  35
ENDBRANCH  32  33
ENDBRANCH  26  32
ENDBRANCH   1  26
TORSDOF 6
