REMARK  Name = ZINC05650135
REMARK  2 active torsions:
REMARK  status: ('A' for Active; 'I' for Inactive)
REMARK    1  A    between atoms: C_4  and  C_7
REMARK    2  A    between atoms: C_19  and  C_22
REMARK                            x       y       z     vdW  Elec       q    Type
REMARK                         _______ _______ _______ _____ _____    ______ ____
ROOT
ATOM      1  C   UNL     1       4.218  -0.985   0.861  0.00  0.00    +0.082 C 
ATOM      2  C   UNL     1       4.603  -2.261   1.595  0.00  0.00    +0.055 C 
ATOM      3  C   UNL     1       5.802  -2.951   0.957  0.00  0.00    -0.022 A 
ATOM      4  C   UNL     1       6.607  -3.875   1.760  0.00  0.00    +0.049 A 
ATOM      5  C   UNL     1       6.387  -4.211   3.138  0.00  0.00    +0.129 A 
ATOM      6  N   UNL     1       7.237  -5.075   3.683  0.00  0.00    -0.208 NA
ATOM      7  C   UNL     1       8.256  -5.633   3.038  0.00  0.00    +0.180 A 
ATOM      8  N   UNL     1       8.530  -5.364   1.735  0.00  0.00    -0.328 N 
ATOM      9  C   UNL     1       7.694  -4.485   1.118  0.00  0.00    +0.091 A 
ATOM     10  S   UNL     1       7.625  -3.829  -0.514  0.00  0.00    -0.074 S 
ATOM     11  C   UNL     1       6.196  -2.781  -0.319  0.00  0.00    +0.013 A 
ATOM     12  C   UNL     1       5.625  -1.912  -1.405  0.00  0.00    +0.114 C 
ATOM     13  S   UNL     1       3.962  -1.374  -0.899  0.00  0.00    -0.139 S 
ATOM     14  S   UNL     1       9.264  -6.730   3.882  0.00  0.00    -0.011 S 
ATOM     15  N   UNL     1       5.350  -3.667   3.857  0.00  0.00    -0.343 N 
ATOM     16  H   UNL     1       4.528  -3.415   3.409  0.00  0.00    +0.144 HD
ATOM     17  H   UNL     1       5.440  -3.536   4.814  0.00  0.00    +0.144 HD
ATOM     18  H   UNL     1       9.277  -5.774   1.271  0.00  0.00    +0.168 HD
ENDROOT
BRANCH   1  22
ATOM     19  C   UNL     1       0.611   0.592   2.518  0.00  0.00    +0.000 A 
ATOM     20  C   UNL     1       1.767   1.350   2.533  0.00  0.00    +0.000 A 
ATOM     21  C   UNL     1       2.935   0.840   1.996  0.00  0.00    +0.005 A 
ATOM     22  C   UNL     1       2.946  -0.429   1.446  0.00  0.00    -0.034 A 
ATOM     23  C   UNL     1       1.790  -1.187   1.433  0.00  0.00    +0.005 A 
ATOM     24  C   UNL     1       0.622  -0.676   1.968  0.00  0.00    +0.000 A 
ENDBRANCH   1  22
BRANCH  12  25
ATOM     25  C   UNL     1       6.506  -0.706  -1.605  0.00  0.00    -0.030 A 
ATOM     26  C   UNL     1       6.924  -0.359  -2.877  0.00  0.00    +0.005 A 
ATOM     27  C   UNL     1       7.732   0.747  -3.061  0.00  0.00    +0.000 A 
ATOM     28  C   UNL     1       8.122   1.507  -1.974  0.00  0.00    +0.000 A 
ATOM     29  C   UNL     1       7.703   1.161  -0.703  0.00  0.00    +0.000 A 
ATOM     30  C   UNL     1       6.891   0.057  -0.519  0.00  0.00    +0.005 A 
ENDBRANCH  12  25
TORSDOF 2
