REMARK  Name = ZINC39140862
REMARK  10 active torsions:
REMARK  status: ('A' for Active; 'I' for Inactive)
REMARK    1  A    between atoms: C_1  and  C_2
REMARK    2  A    between atoms: C_4  and  C_16
REMARK    3  A    between atoms: C_6  and  C_14
REMARK    4  A    between atoms: C_7  and  N_13
REMARK    5  A    between atoms: C_19  and  O_34
REMARK    6  A    between atoms: C_20  and  C_22
REMARK    7  A    between atoms: C_22  and  O_23
REMARK    8  A    between atoms: O_23  and  C_24
REMARK    9  A    between atoms: C_28  and  C_30
REMARK   10  A    between atoms: O_34  and  C_35
REMARK                            x       y       z     vdW  Elec       q    Type
REMARK                         _______ _______ _______ _____ _____    ______ ____
ROOT
ATOM      1  C   UNL     1      -2.762   0.875  -0.717  0.00  0.00    -0.034 A 
ATOM      2  C   UNL     1      -2.274   1.168  -1.977  0.00  0.00    +0.008 A 
ATOM      3  C   UNL     1      -2.479   2.420  -2.524  0.00  0.00    +0.046 A 
ATOM      4  C   UNL     1      -3.175   3.383  -1.808  0.00  0.00    +0.126 A 
ATOM      5  C   UNL     1      -3.664   3.086  -0.544  0.00  0.00    +0.032 A 
ATOM      6  C   UNL     1      -3.461   1.831  -0.004  0.00  0.00    +0.015 A 
ENDROOT
BRANCH   1  10
ATOM      7  C   UNL     1      -0.018   1.503   0.010  0.00  0.00    +0.067 C 
ATOM      8  C   UNL     1       0.002  -0.004   0.002  0.00  0.00    +0.066 C 
ATOM      9  C   UNL     1      -1.064  -0.768   0.003  0.00  0.00    +0.030 C 
ATOM     10  C   UNL     1      -2.537  -0.492  -0.122  0.00  0.00    +0.098 C 
ATOM     11  C   UNL     1      -3.075  -1.565  -1.050  0.00  0.00    +0.097 C 
ATOM     12  C   UNL     1      -2.317  -2.612  -1.438  0.00  0.00    +0.195 C 
ATOM     13  O   UNL     1      -1.033  -2.841  -1.107  0.00  0.00    -0.448 OA
ATOM     14  C   UNL     1      -0.528  -2.199   0.066  0.00  0.00    +0.343 C 
ATOM     15  N   UNL     1       0.921  -1.985   0.002  0.00  0.00    -0.138 NA
ATOM     16  N   UNL     1       1.127  -0.765  -0.013  0.00  0.00    -0.155 NA
BRANCH  12  17
ATOM     17  N   UNL     1      -2.917  -3.538  -2.254  0.00  0.00    -0.329 N 
ATOM     18  H   UNL     1      -3.842  -3.421  -2.523  0.00  0.00    +0.145 HD
ATOM     19  H   UNL     1      -2.417  -4.310  -2.562  0.00  0.00    +0.145 HD
ENDBRANCH  12  17
BRANCH  11  20
ATOM     20  C   UNL     1      -4.422  -1.466  -1.525  0.00  0.00    +0.101 C 
ATOM     21  N   UNL     1      -5.491  -1.387  -1.903  0.00  0.00    -0.191 NA
ENDBRANCH  11  20
ENDBRANCH   1  10
BRANCH   4  22
ATOM     22  O   UNL     1      -3.378   4.616  -2.343  0.00  0.00    -0.495 OA
ATOM     23  C   UNL     1      -2.846   4.851  -3.649  0.00  0.00    +0.277 C 
ENDBRANCH   4  22
BRANCH   5  24
ATOM     24  C   UNL     1      -4.420   4.130   0.237  0.00  0.00    +0.268 C 
BRANCH  24  25
ATOM     25  O   UNL     1      -4.817   3.587   1.498  0.00  0.00    -0.487 OA
BRANCH  25  26
ATOM     26  C   UNL     1      -5.514   4.405   2.330  0.00  0.00    +0.122 A 
ATOM     27  C   UNL     1      -5.816   5.702   1.938  0.00  0.00    +0.046 A 
ATOM     28  C   UNL     1      -6.524   6.531   2.785  0.00  0.00    +0.004 A 
ATOM     29  C   UNL     1      -6.934   6.069   4.023  0.00  0.00    +0.012 A 
ATOM     30  C   UNL     1      -6.635   4.778   4.416  0.00  0.00    +0.058 A 
ATOM     31  C   UNL     1      -5.931   3.943   3.570  0.00  0.00    +0.058 A 
BRANCH  30  32
ATOM     32  C   UNL     1      -7.082   4.279   5.765  0.00  0.00    +0.418 C 
ATOM     33  F   UNL     1      -7.776   5.295   6.432  0.00  0.00    -0.166 F 
ATOM     34  F   UNL     1      -7.921   3.173   5.599  0.00  0.00    -0.166 F 
ATOM     35  F   UNL     1      -5.964   3.907   6.519  0.00  0.00    -0.166 F 
ENDBRANCH  30  32
ENDBRANCH  25  26
ENDBRANCH  24  25
ENDBRANCH   5  24
TORSDOF 8
