REMARK  Name = ZINC12402311
REMARK  9 active torsions:
REMARK  status: ('A' for Active; 'I' for Inactive)
REMARK    1  A    between atoms: C_1  and  C_2
REMARK    2  A    between atoms: C_2  and  C_33
REMARK    3  A    between atoms: C_6  and  C_22
REMARK    4  A    between atoms: C_8  and  C_20
REMARK    5  A    between atoms: C_9  and  N_19
REMARK    6  A    between atoms: N_10  and  C_11
REMARK    7  A    between atoms: C_14  and  O_17
REMARK    8  A    between atoms: O_17  and  C_18
REMARK    9  A    between atoms: C_25  and  N_27
REMARK                            x       y       z     vdW  Elec       q    Type
REMARK                         _______ _______ _______ _____ _____    ______ ____
ROOT
ATOM      1  C   UNL     1      -1.164   2.328   2.411  0.00  0.00    +0.011 C 
ATOM      2  C   UNL     1      -1.941   1.268   3.194  0.00  0.00    -0.023 C 
ATOM      3  C   UNL     1      -3.188   0.859   2.408  0.00  0.00    +0.058 C 
ATOM      4  C   UNL     1      -2.780   0.259   1.085  0.00  0.00    +0.025 C 
ATOM      5  C   UNL     1      -1.614  -0.410   0.955  0.00  0.00    +0.026 C 
ATOM      6  C   UNL     1      -1.210  -1.014  -0.366  0.00  0.00    +0.104 C 
ATOM      7  C   UNL     1      -2.388  -1.141  -1.287  0.00  0.00    +0.077 C 
ATOM      8  C   UNL     1      -3.528  -0.435  -1.069  0.00  0.00    +0.107 C 
ATOM      9  N   UNL     1      -3.623   0.406   0.015  0.00  0.00    -0.260 N 
ATOM     10  C   UNL     1      -0.741  -0.563   2.046  0.00  0.00    +0.162 C 
ATOM     11  O   UNL     1       0.293  -1.184   1.900  0.00  0.00    -0.292 OA
ATOM     12  C   UNL     1      -1.064   0.028   3.392  0.00  0.00    +0.086 C 
ATOM     13  C   UNL     1      -2.353   1.834   4.554  0.00  0.00    +0.011 C 
ENDROOT
BRANCH   9  14
ATOM     14  C   UNL     1      -4.589   1.421   0.026  0.00  0.00    +0.040 A 
ATOM     15  C   UNL     1      -5.858   1.167   0.531  0.00  0.00    +0.027 A 
ATOM     16  C   UNL     1      -6.808   2.168   0.546  0.00  0.00    +0.047 A 
ATOM     17  C   UNL     1      -6.499   3.425   0.046  0.00  0.00    +0.120 A 
ATOM     18  C   UNL     1      -5.234   3.678  -0.463  0.00  0.00    +0.047 A 
ATOM     19  C   UNL     1      -4.281   2.679  -0.473  0.00  0.00    +0.027 A 
BRANCH  17  20
ATOM     20  O   UNL     1      -7.437   4.409   0.056  0.00  0.00    -0.495 OA
ATOM     21  C   UNL     1      -8.719   4.079   0.594  0.00  0.00    +0.277 C 
ENDBRANCH  17  20
ENDBRANCH   9  14
BRANCH   6  22
ATOM     22  C   UNL     1      -0.169  -0.137  -1.012  0.00  0.00    +0.005 A 
ATOM     23  C   UNL     1       1.102  -0.443  -1.371  0.00  0.00    +0.014 A 
ATOM     24  C   UNL     1       1.886   0.533  -1.956  0.00  0.00    +0.041 A 
ATOM     25  C   UNL     1       1.362   1.767  -2.155  0.00  0.00    +0.164 A 
ATOM     26  S   UNL     1      -0.290   1.575  -1.505  0.00  0.00    -0.068 S 
BRANCH  25  27
ATOM     27  N   UNL     1       1.994   2.963  -2.757  0.00  0.00    +0.063 N 
ATOM     28  O   UNL     1       3.145   2.910  -3.151  0.00  0.00    -0.126 OA
ATOM     29  O   UNL     1       1.363   4.000  -2.857  0.00  0.00    -0.126 OA
ENDBRANCH  25  27
ENDBRANCH   6  22
BRANCH   8  30
ATOM     30  N   UNL     1      -4.589  -0.563  -1.934  0.00  0.00    -0.345 N 
ATOM     31  H   UNL     1      -5.372   0.001  -1.828  0.00  0.00    +0.144 HD
ATOM     32  H   UNL     1      -4.556  -1.216  -2.650  0.00  0.00    +0.144 HD
ENDBRANCH   8  30
BRANCH   7  33
ATOM     33  C   UNL     1      -2.308  -2.019  -2.415  0.00  0.00    +0.099 C 
ATOM     34  N   UNL     1      -2.244  -2.716  -3.310  0.00  0.00    -0.191 NA
ENDBRANCH   7  33
TORSDOF 6
