REMARK  Name = ZINC43554331
REMARK  12 active torsions:
REMARK  status: ('A' for Active; 'I' for Inactive)
REMARK    1  A    between atoms: C_1  and  C_2
REMARK    2  A    between atoms: C_2  and  C_3
REMARK    3  A    between atoms: C_3  and  C_4
REMARK    4  A    between atoms: C_4  and  C_5
REMARK    5  A    between atoms: C_5  and  C_6
REMARK    6  A    between atoms: C_17  and  C_38
REMARK    7  A    between atoms: C_18  and  C_20
REMARK    8  A    between atoms: C_20  and  C_21
REMARK    9  A    between atoms: C_31  and  O_37
REMARK   10  A    between atoms: C_33  and  C_34
REMARK   11  A    between atoms: C_33  and  C_35
REMARK   12  A    between atoms: C_35  and  O_36
REMARK                            x       y       z     vdW  Elec       q    Type
REMARK                         _______ _______ _______ _____ _____    ______ ____
ROOT
ATOM      1  C   UNL     1       1.770  -4.066  -2.005  0.00  0.00    +0.219 C 
ATOM      2  O   UNL     1       1.233  -4.774  -1.178  0.00  0.00    -0.275 OA
ATOM      3  N   UNL     1       2.323  -4.615  -3.104  0.00  0.00    -0.265 N 
ATOM      4  C   UNL     1       2.277  -5.992  -3.292  0.00  0.00    +0.165 A 
ATOM      5  N   UNL     1       2.758  -6.695  -4.295  0.00  0.00    -0.229 NA
ATOM      6  C   UNL     1       2.633  -8.015  -4.341  0.00  0.00    +0.058 A 
ATOM      7  C   UNL     1       1.988  -8.576  -3.288  0.00  0.00    +0.015 A 
ATOM      8  S   UNL     1       1.594  -7.164  -2.292  0.00  0.00    -0.057 S 
ATOM      9  C   UNL     1       1.702 -10.015  -3.053  0.00  0.00    +0.049 C 
ATOM     10  C   UNL     1       2.167 -10.903  -4.222  0.00  0.00    +0.011 C 
ATOM     11  C   UNL     1       3.407 -10.318  -4.887  0.00  0.00    -0.019 C 
ATOM     12  C   UNL     1       3.127  -8.921  -5.452  0.00  0.00    +0.054 C 
ATOM     13  C   UNL     1       4.554 -10.305  -3.884  0.00  0.00    +0.010 C 
ATOM     14  C   UNL     1       4.880 -11.740  -3.472  0.00  0.00    +0.032 C 
ATOM     15  C   UNL     1       3.680 -12.444  -2.866  0.00  0.00    +0.123 C 
ATOM     16  C   UNL     1       2.390 -12.305  -3.657  0.00  0.00    +0.021 C 
ATOM     17  C   UNL     1       2.318 -13.383  -4.747  0.00  0.00    +0.016 C 
ATOM     18  C   UNL     1       3.832 -11.147  -6.109  0.00  0.00    +0.012 C 
ATOM     19  H   UNL     1       2.752  -4.050  -3.765  0.00  0.00    +0.157 HD
ENDROOT
BRANCH  15  20
ATOM     20  O   UNL     1       3.484 -11.995  -1.520  0.00  0.00    -0.391 OA
ATOM     21  H   UNL     1       4.236 -12.164  -0.936  0.00  0.00    +0.210 HD
ENDBRANCH  15  20
BRANCH   1  22
ATOM     22  C   UNL     1       1.819  -2.574  -1.801  0.00  0.00    +0.096 C 
BRANCH  22  23
ATOM     23  C   UNL     1       1.126  -2.216  -0.485  0.00  0.00    +0.009 C 
BRANCH  23  24
ATOM     24  C   UNL     1       1.176  -0.700  -0.279  0.00  0.00    +0.000 C 
BRANCH  24  26
ATOM     25  C   UNL     1       0.533   1.173   1.244  0.00  0.00    +0.004 C 
ATOM     26  C   UNL     1       0.482  -0.342   1.037  0.00  0.00    -0.003 C 
ENDBRANCH  24  26
ENDBRANCH  23  24
ENDBRANCH  22  23
ENDBRANCH   1  22
BRANCH  12  27
ATOM     27  C   UNL     1       4.380  -8.340  -6.099  0.00  0.00    +0.106 C 
BRANCH  27  28
ATOM     28  C   UNL     1       4.030  -7.062  -6.816  0.00  0.00    +0.216 C 
ATOM     29  O   UNL     1       2.887  -6.657  -6.809  0.00  0.00    -0.276 OA
ATOM     30  N   UNL     1       4.986  -6.369  -7.465  0.00  0.00    -0.301 N 
ATOM     31  C   UNL     1       6.374  -6.851  -7.488  0.00  0.00    +0.108 C 
ATOM     32  C   UNL     1       6.843  -6.934  -8.944  0.00  0.00    +0.019 C 
ATOM     33  C   UNL     1       6.638  -5.577  -9.621  0.00  0.00    +0.003 C 
ATOM     34  C   UNL     1       5.149  -5.221  -9.612  0.00  0.00    +0.019 C 
ATOM     35  C   UNL     1       4.660  -5.122  -8.169  0.00  0.00    +0.108 C 
ENDBRANCH  27  28
ENDBRANCH  12  27
BRANCH  16  36
ATOM     36  C   UNL     1       1.223 -12.629  -2.687  0.00  0.00    +0.165 C 
BRANCH  36  37
ATOM     37  O   UNL     1       1.406 -13.938  -2.143  0.00  0.00    -0.394 OA
ATOM     38  H   UNL     1       0.711 -14.207  -1.526  0.00  0.00    +0.209 HD
ENDBRANCH  36  37
ENDBRANCH  16  36
TORSDOF 9
