REMARK  Name = ZINC17242536
REMARK  6 active torsions:
REMARK  status: ('A' for Active; 'I' for Inactive)
REMARK    1  A    between atoms: C_1  and  C_2
REMARK    2  A    between atoms: C_2  and  C_34
REMARK    3  A    between atoms: C_6  and  C_26
REMARK    4  A    between atoms: C_13  and  S_17
REMARK    5  A    between atoms: S_17  and  C_18
REMARK    6  A    between atoms: C_18  and  C_19
REMARK                            x       y       z     vdW  Elec       q    Type
REMARK                         _______ _______ _______ _____ _____    ______ ____
ROOT
ATOM      1  C   UNL     1       1.819  -1.653   3.064  0.00  0.00    +0.011 C 
ATOM      2  C   UNL     1       2.032  -2.504   1.810  0.00  0.00    -0.023 C 
ATOM      3  C   UNL     1       0.980  -2.141   0.759  0.00  0.00    +0.058 C 
ATOM      4  C   UNL     1       1.127  -0.689   0.375  0.00  0.00    +0.017 C 
ATOM      5  C   UNL     1       2.333  -0.084   0.394  0.00  0.00    +0.025 C 
ATOM      6  C   UNL     1       2.491   1.357  -0.019  0.00  0.00    +0.099 C 
ATOM      7  C   UNL     1       1.176   2.079   0.002  0.00  0.00    +0.069 A 
ATOM      8  C   UNL     1       1.136   3.478   0.012  0.00  0.00    +0.258 A 
ATOM      9  O   UNL     1       2.169   4.129   0.008  0.00  0.00    -0.267 OA
ATOM     10  N   UNL     1      -0.065   4.093   0.027  0.00  0.00    -0.302 N 
ATOM     11  H   UNL     1      -0.113   5.062   0.034  0.00  0.00    +0.171 HD
ATOM     12  C   UNL     1      -1.210   3.356   0.032  0.00  0.00    +0.171 A 
ATOM     13  N   UNL     1      -1.179   2.039   0.019  0.00  0.00    -0.208 NA
ATOM     14  C   UNL     1      -0.017   1.377   0.010  0.00  0.00    +0.135 A 
ATOM     15  N   UNL     1       0.002  -0.004   0.002  0.00  0.00    -0.302 N 
ATOM     16  C   UNL     1       3.486  -0.782   0.795  0.00  0.00    +0.162 C 
ATOM     17  O   UNL     1       4.558  -0.210   0.795  0.00  0.00    -0.292 OA
ATOM     18  C   UNL     1       3.419  -2.221   1.225  0.00  0.00    +0.086 C 
ATOM     19  C   UNL     1       1.911  -3.986   2.167  0.00  0.00    +0.011 C 
ATOM     20  H   UNL     1      -0.790  -0.493  -0.270  0.00  0.00    +0.153 HD
ENDROOT
BRANCH   6  21
ATOM     21  C   UNL     1       3.060   1.411  -1.414  0.00  0.00    +0.002 A 
ATOM     22  C   UNL     1       4.213   1.979  -1.844  0.00  0.00    +0.012 A 
ATOM     23  C   UNL     1       4.539   1.902  -3.185  0.00  0.00    +0.008 A 
ATOM     24  C   UNL     1       3.690   1.270  -4.032  0.00  0.00    +0.045 A 
ATOM     25  S   UNL     1       2.386   0.751  -2.929  0.00  0.00    -0.101 S 
ENDBRANCH   6  21
BRANCH  12  26
ATOM     26  S   UNL     1      -2.767   4.181   0.050  0.00  0.00    -0.083 S 
BRANCH  26  27
ATOM     27  C   UNL     1      -3.880   2.753   0.050  0.00  0.00    +0.115 C 
BRANCH  27  28
ATOM     28  C   UNL     1      -5.309   3.231   0.065  0.00  0.00    -0.002 A 
ATOM     29  C   UNL     1      -5.957   3.436   1.269  0.00  0.00    +0.007 A 
ATOM     30  C   UNL     1      -7.266   3.879   1.283  0.00  0.00    +0.000 A 
ATOM     31  C   UNL     1      -7.933   4.106   0.093  0.00  0.00    +0.003 A 
ATOM     32  C   UNL     1      -7.290   3.896  -1.111  0.00  0.00    +0.038 A 
ATOM     33  C   UNL     1      -5.976   3.458  -1.127  0.00  0.00    +0.127 A 
ATOM     34  F   UNL     1      -5.346   3.251  -2.304  0.00  0.00    -0.205 F 
ENDBRANCH  27  28
ENDBRANCH  26  27
ENDBRANCH  12  26
TORSDOF 4
