REMARK  Name = ZINC09873230
REMARK  9 active torsions:
REMARK  status: ('A' for Active; 'I' for Inactive)
REMARK    1  A    between atoms: C_1  and  C_2
REMARK    2  A    between atoms: C_2  and  C_3
REMARK    3  A    between atoms: C_12  and  C_13
REMARK    4  A    between atoms: C_13  and  C_15
REMARK    5  A    between atoms: C_15  and  S_16
REMARK    6  A    between atoms: S_16  and  C_17
REMARK    7  A    between atoms: C_20  and  C_28
REMARK    8  A    between atoms: N_21  and  C_22
REMARK    9  A    between atoms: C_28  and  N_59
REMARK                            x       y       z     vdW  Elec       q    Type
REMARK                         _______ _______ _______ _____ _____    ______ ____
ROOT
ATOM      1  C   UNL     1       6.506   3.784  -0.039  0.00  0.00    +0.196 A 
ATOM      2  N   UNL     1       5.713   4.830  -0.032  0.00  0.00    -0.122 NA
ATOM      3  N   UNL     1       6.411   5.909  -0.027  0.00  0.00    -0.135 NA
ATOM      4  C   UNL     1       7.682   5.621  -0.040  0.00  0.00    +0.122 A 
ATOM      5  N   UNL     1       7.790   4.255  -0.048  0.00  0.00    -0.276 N 
ENDROOT
BRANCH   5   6
ATOM      6  C   UNL     1       8.971   3.499  -0.064  0.00  0.00    +0.050 A 
ATOM      7  C   UNL     1       9.844   3.550   1.014  0.00  0.00    +0.026 A 
ATOM      8  C   UNL     1      11.004   2.800   0.998  0.00  0.00    +0.002 A 
ATOM      9  C   UNL     1      11.301   2.008  -0.095  0.00  0.00    +0.000 A 
ATOM     10  C   UNL     1      10.436   1.959  -1.173  0.00  0.00    +0.002 A 
ATOM     11  C   UNL     1       9.272   2.702  -1.160  0.00  0.00    +0.026 A 
ENDBRANCH   5   6
BRANCH   1  12
ATOM     12  S   UNL     1       6.011   2.093  -0.043  0.00  0.00    -0.078 S 
BRANCH  12  13
ATOM     13  C   UNL     1       4.212   2.292  -0.025  0.00  0.00    +0.157 C 
BRANCH  13  14
ATOM     14  C   UNL     1       3.556   0.935  -0.026  0.00  0.00    +0.175 C 
ATOM     15  O   UNL     1       4.239  -0.069  -0.038  0.00  0.00    -0.291 OA
BRANCH  14  25
ATOM     16  C   UNL     1      -1.002  -0.967   0.006  0.00  0.00    -0.024 A 
ATOM     17  C   UNL     1      -0.671  -2.305  -0.004  0.00  0.00    +0.005 A 
ATOM     18  C   UNL     1       0.657  -2.705  -0.018  0.00  0.00    +0.001 A 
ATOM     19  C   UNL     1       1.665  -1.766  -0.023  0.00  0.00    +0.011 A 
ATOM     20  C   UNL     1       1.345  -0.411  -0.013  0.00  0.00    +0.010 A 
ATOM     21  C   UNL     1       0.002  -0.004   0.002  0.00  0.00    +0.050 A 
ATOM     22  N   UNL     1      -0.017   1.376   0.010  0.00  0.00    -0.360 N 
ATOM     23  H   UNL     1      -0.822   1.917   0.017  0.00  0.00    +0.165 HD
ATOM     24  C   UNL     1       1.236   1.869   0.000  0.00  0.00    +0.095 A 
ATOM     25  C   UNL     1       2.143   0.831  -0.014  0.00  0.00    +0.043 A 
BRANCH  16  27
ATOM     26  C   UNL     1      -2.917  -0.278  -1.409  0.00  0.00    +0.009 C 
ATOM     27  C   UNL     1      -2.449  -0.548   0.022  0.00  0.00    +0.034 C 
ENDBRANCH  16  27
ENDBRANCH  14  25
ENDBRANCH  13  14
ENDBRANCH  12  13
ENDBRANCH   1  12
BRANCH   4  28
ATOM     28  C   UNL     1       8.821   6.607  -0.046  0.00  0.00    -0.001 C 
BRANCH  28  33
ATOM     29  C   UNL     1       7.983   7.368  -2.202  0.00  0.00    -0.078 C 
ATOM     30  C   UNL     1       8.592   8.147  -3.395  0.00  0.00    -0.020 C 
ATOM     31  C   UNL     1       9.794   8.877  -2.753  0.00  0.00    -0.020 C 
ATOM     32  C   UNL     1      10.123   8.072  -1.483  0.00  0.00    -0.078 C 
ATOM     33  N   UNL     1       9.180   6.952  -1.455  0.00  0.00    +0.384 N 
ATOM     34  H   UNL     1       9.602   6.132  -1.905  0.00  0.00    -0.081 HD
ENDBRANCH  28  33
ENDBRANCH   4  28
TORSDOF 8
