REMARK  Name = ZINC36504585
REMARK  16 active torsions:
REMARK  status: ('A' for Active; 'I' for Inactive)
REMARK    1  A    between atoms: C_1  and  C_2
REMARK    2  A    between atoms: C_2  and  C_3
REMARK    3  A    between atoms: C_2  and  C_4
REMARK    4  A    between atoms: C_2  and  C_5
REMARK    5  A    between atoms: C_5  and  C_6
REMARK    6  A    between atoms: C_6  and  C_7
REMARK    7  A    between atoms: C_6  and  C_8
REMARK    8  A    between atoms: C_6  and  N_9
REMARK    9  A    between atoms: C_10  and  C_12
REMARK   10  A    between atoms: C_12  and  C_14
REMARK   11  A    between atoms: C_12  and  N_26
REMARK   12  A    between atoms: C_23  and  O_24
REMARK   13  A    between atoms: O_24  and  C_25
REMARK   14  A    between atoms: N_26  and  C_27
REMARK   15  A    between atoms: C_27  and  C_28
REMARK   16  A    between atoms: C_33  and  C_35
REMARK                            x       y       z     vdW  Elec       q    Type
REMARK                         _______ _______ _______ _____ _____    ______ ____
ROOT
ATOM      1  C   UNL     1       5.210  -0.121  -4.469  0.00  0.00    +0.197 C 
ENDROOT
BRANCH   1   2
ATOM      2  C   UNL     1       4.447   0.584  -5.561  0.00  0.00    +0.031 A 
ATOM      3  C   UNL     1       3.553  -0.133  -6.373  0.00  0.00    -0.009 A 
ATOM      4  C   UNL     1       3.346  -1.511  -6.191  0.00  0.00    +0.009 A 
ATOM      5  C   UNL     1       2.471  -2.173  -6.995  0.00  0.00    +0.001 A 
ATOM      6  C   UNL     1       1.774  -1.505  -8.001  0.00  0.00    +0.001 A 
ATOM      7  C   UNL     1       1.949  -0.171  -8.206  0.00  0.00    +0.008 A 
ATOM      8  C   UNL     1       2.844   0.547  -7.395  0.00  0.00    -0.017 A 
ATOM      9  C   UNL     1       3.048   1.926  -7.578  0.00  0.00    +0.012 A 
ATOM     10  C   UNL     1       3.921   2.591  -6.776  0.00  0.00    +0.046 A 
ATOM     11  C   UNL     1       4.618   1.923  -5.763  0.00  0.00    +0.126 A 
BRANCH  11  12
ATOM     12  O   UNL     1       5.480   2.616  -4.974  0.00  0.00    -0.495 OA
ATOM     13  C   UNL     1       5.535   4.032  -5.159  0.00  0.00    +0.277 C 
ENDBRANCH  11  12
ENDBRANCH   1   2
BRANCH   1  15
ATOM     14  N   UNL     1       3.325  -0.254  -2.873  0.00  0.00    -0.308 N 
ATOM     15  C   UNL     1       4.573   0.180  -3.137  0.00  0.00    +0.239 C 
ATOM     16  O   UNL     1       5.185   0.813  -2.302  0.00  0.00    -0.273 OA
ATOM     17  H   UNL     1       2.836  -0.759  -3.541  0.00  0.00    +0.149 HD
BRANCH  14  18
ATOM     18  C   UNL     1       2.706   0.039  -1.578  0.00  0.00    +0.030 C 
ATOM     19  C   UNL     1       2.938   1.509  -1.222  0.00  0.00    +0.031 C 
ATOM     20  C   UNL     1       3.330  -0.851  -0.501  0.00  0.00    +0.031 C 
BRANCH  18  21
ATOM     21  C   UNL     1       1.203  -0.234  -1.658  0.00  0.00    +0.031 C 
BRANCH  21  23
ATOM     22  C   UNL     1       0.903  -0.591  -4.112  0.00  0.00    +0.010 C 
ATOM     23  C   UNL     1       0.642   0.367  -2.948  0.00  0.00    -0.036 C 
ATOM     24  C   UNL     1       1.328   1.706  -3.226  0.00  0.00    +0.010 C 
ATOM     25  C   UNL     1      -0.864   0.587  -2.796  0.00  0.00    +0.010 C 
ENDBRANCH  21  23
ENDBRANCH  18  21
ENDBRANCH  14  18
ENDBRANCH   1  15
BRANCH   1  26
ATOM     26  N   UNL     1       6.599   0.346  -4.463  0.00  0.00    -0.277 N 
ATOM     27  C   UNL     1       7.402   0.084  -5.513  0.00  0.00    +0.237 C 
ATOM     28  O   UNL     1       6.975  -0.538  -6.463  0.00  0.00    -0.274 OA
BRANCH  27  29
ATOM     29  C   UNL     1       8.830   0.565  -5.508  0.00  0.00    +0.159 C 
ATOM     30  C   UNL     1       8.896   2.051  -5.925  0.00  0.00    +0.041 C 
ATOM     31  C   UNL     1       9.148   1.940  -7.447  0.00  0.00    +0.098 C 
ATOM     32  C   UNL     1       9.803   0.587  -7.617  0.00  0.00    +0.214 C 
ATOM     33  O   UNL     1      10.410   0.228  -8.603  0.00  0.00    -0.276 OA
ATOM     34  N   UNL     1       9.614  -0.162  -6.514  0.00  0.00    -0.304 N 
ATOM     35  H   UNL     1       9.953  -1.063  -6.397  0.00  0.00    +0.149 HD
ENDBRANCH  27  29
BRANCH  26  36
ATOM     36  C   UNL     1       7.114   1.097  -3.316  0.00  0.00    +0.183 C 
BRANCH  36  37
ATOM     37  C   UNL     1       7.549   0.136  -2.240  0.00  0.00    +0.122 A 
ATOM     38  C   UNL     1       8.800  -0.321  -2.052  0.00  0.00    +0.046 A 
ATOM     39  C   UNL     1       8.755  -1.193  -0.940  0.00  0.00    +0.041 A 
ATOM     40  C   UNL     1       7.479  -1.216  -0.515  0.00  0.00    +0.195 A 
ATOM     41  O   UNL     1       6.754  -0.405  -1.303  0.00  0.00    -0.466 OA
ENDBRANCH  36  37
ENDBRANCH  26  36
ENDBRANCH   1  26
TORSDOF 10
