REMARK  Name = ZINC14470156
REMARK  7 active torsions:
REMARK  status: ('A' for Active; 'I' for Inactive)
REMARK    1  A    between atoms: C_1  and  C_2
REMARK    2  A    between atoms: C_2  and  C_3
REMARK    3  A    between atoms: C_2  and  C_4
REMARK    4  A    between atoms: C_11  and  C_20
REMARK    5  A    between atoms: C_23  and  O_26
REMARK    6  A    between atoms: O_26  and  C_27
REMARK    7  A    between atoms: C_27  and  C_28
REMARK                            x       y       z     vdW  Elec       q    Type
REMARK                         _______ _______ _______ _____ _____    ______ ____
ROOT
ATOM      1  C   UNL     1      -1.750   0.245  -1.363  0.00  0.00    -0.024 A 
ATOM      2  C   UNL     1      -2.623   0.544  -2.388  0.00  0.00    +0.006 A 
ATOM      3  C   UNL     1      -2.548   1.772  -3.017  0.00  0.00    +0.001 A 
ATOM      4  C   UNL     1      -1.603   2.696  -2.620  0.00  0.00    +0.006 A 
ATOM      5  C   UNL     1      -0.721   2.405  -1.588  0.00  0.00    -0.019 A 
ATOM      6  C   UNL     1      -0.793   1.176  -0.960  0.00  0.00    +0.035 A 
ATOM      7  N   UNL     1       0.065   0.823   0.081  0.00  0.00    -0.336 N 
ATOM      8  C   UNL     1       1.351   1.516  -0.022  0.00  0.00    +0.105 C 
ATOM      9  C   UNL     1       1.131   3.021   0.002  0.00  0.00    +0.029 C 
ATOM     10  C   UNL     1       0.282   3.462  -1.208  0.00  0.00    +0.049 C 
ATOM     11  C   UNL     1      -0.481   4.664  -0.676  0.00  0.00    -0.023 C 
ATOM     12  C   UNL     1      -0.535   4.633   0.631  0.00  0.00    -0.030 C 
ATOM     13  C   UNL     1       0.183   3.407   1.164  0.00  0.00    +0.033 C 
ATOM     14  H   UNL     1       0.196  -0.177   0.119  0.00  0.00    +0.147 HD
ENDROOT
BRANCH   8  15
ATOM     15  C   UNL     1       2.026   1.129  -1.312  0.00  0.00    -0.027 A 
ATOM     16  C   UNL     1       1.842  -0.138  -1.835  0.00  0.00    +0.009 A 
ATOM     17  C   UNL     1       2.455  -0.493  -3.020  0.00  0.00    +0.046 A 
ATOM     18  C   UNL     1       3.266   0.419  -3.681  0.00  0.00    +0.121 A 
ATOM     19  C   UNL     1       3.454   1.687  -3.151  0.00  0.00    +0.046 A 
ATOM     20  C   UNL     1       2.834   2.039  -1.968  0.00  0.00    +0.009 A 
BRANCH  18  21
ATOM     21  O   UNL     1       3.875   0.070  -4.844  0.00  0.00    -0.487 OA
BRANCH  21  22
ATOM     22  C   UNL     1       3.636  -1.253  -5.330  0.00  0.00    +0.264 C 
BRANCH  22  23
ATOM     23  C   UNL     1       4.388  -1.457  -6.620  0.00  0.00    -0.010 A 
ATOM     24  C   UNL     1       3.784  -1.159  -7.827  0.00  0.00    +0.007 A 
ATOM     25  C   UNL     1       4.475  -1.343  -9.010  0.00  0.00    +0.000 A 
ATOM     26  C   UNL     1       5.768  -1.833  -8.987  0.00  0.00    +0.000 A 
ATOM     27  C   UNL     1       6.370  -2.136  -7.780  0.00  0.00    +0.000 A 
ATOM     28  C   UNL     1       5.680  -1.948  -6.597  0.00  0.00    +0.007 A 
ENDBRANCH  22  23
ENDBRANCH  21  22
ENDBRANCH  18  21
ENDBRANCH   8  15
BRANCH   1  30
ATOM     29  C   UNL     1      -3.255  -1.319  -0.164  0.00  0.00    +0.012 C 
ATOM     30  C   UNL     1      -1.830  -1.093  -0.674  0.00  0.00    +0.015 C 
ATOM     31  C   UNL     1      -1.463  -2.199  -1.666  0.00  0.00    +0.012 C 
ENDBRANCH   1  30
TORSDOF 5
