REMARK  Name = ZINC21584954
REMARK  6 active torsions:
REMARK  status: ('A' for Active; 'I' for Inactive)
REMARK    1  A    between atoms: C_3  and  C_6
REMARK    2  A    between atoms: N_15  and  C_16
REMARK    3  A    between atoms: C_16  and  C_17
REMARK    4  A    between atoms: N_19  and  C_20
REMARK    5  A    between atoms: C_20  and  C_21
REMARK    6  A    between atoms: N_23  and  C_24
REMARK                            x       y       z     vdW  Elec       q    Type
REMARK                         _______ _______ _______ _____ _____    ______ ____
ROOT
ATOM      1  C   UNL     1       0.273   2.324  -0.394  0.00  0.00    +0.197 C 
ATOM      2  O   UNL     1       0.359   3.497  -0.098  0.00  0.00    -0.278 OA
ATOM      3  N   UNL     1      -0.918   1.698  -0.322  0.00  0.00    -0.308 N 
ATOM      4  H   UNL     1      -0.996   0.632  -0.585  0.00  0.00    +0.149 HD
ENDROOT
BRANCH   1   5
ATOM      5  C   UNL     1       1.496   1.567  -0.842  0.00  0.00    +0.020 C 
BRANCH   5  14
ATOM      6  C   UNL     1       3.016   3.013   0.368  0.00  0.00    +0.002 C 
ATOM      7  C   UNL     1       4.180   3.983   0.189  0.00  0.00    -0.046 A 
ATOM      8  C   UNL     1       5.031   4.374   1.220  0.00  0.00    +0.010 A 
ATOM      9  C   UNL     1       6.041   5.239   0.973  0.00  0.00    +0.045 A 
ATOM     10  S   UNL     1       5.838   5.555  -0.774  0.00  0.00    -0.101 S 
ATOM     11  C   UNL     1       4.429   4.516  -1.040  0.00  0.00    -0.010 A 
ATOM     12  C   UNL     1       3.663   4.257  -2.296  0.00  0.00    +0.024 C 
ATOM     13  C   UNL     1       2.342   3.572  -1.907  0.00  0.00    -0.072 C 
ATOM     14  N   UNL     1       2.632   2.493  -0.951  0.00  0.00    +0.393 N 
ATOM     15  H   UNL     1       3.495   1.935  -1.342  0.00  0.00    -0.080 HD
BRANCH   6  18
ATOM     16  C   UNL     1       3.669   0.544   3.194  0.00  0.00    +0.008 A 
ATOM     17  C   UNL     1       3.178   1.678   2.575  0.00  0.00    +0.010 A 
ATOM     18  C   UNL     1       3.435   1.872   1.259  0.00  0.00    -0.019 A 
ATOM     19  S   UNL     1       4.393   0.422   0.852  0.00  0.00    -0.103 S 
ATOM     20  C   UNL     1       4.394  -0.340   2.466  0.00  0.00    +0.045 A 
ENDBRANCH   6  18
ENDBRANCH   5  14
ENDBRANCH   1   5
BRANCH   3  21
ATOM     21  C   UNL     1      -2.109   2.435   0.108  0.00  0.00    +0.200 C 
BRANCH  21  22
ATOM     22  C   UNL     1      -3.302   1.513   0.096  0.00  0.00    +0.234 C 
ATOM     23  O   UNL     1      -3.170   0.355  -0.238  0.00  0.00    -0.274 OA
ATOM     24  N   UNL     1      -4.515   1.977   0.457  0.00  0.00    -0.284 N 
ATOM     25  H   UNL     1      -4.651   3.045   0.680  0.00  0.00    +0.155 HD
BRANCH  24  26
ATOM     26  C   UNL     1      -5.601   1.098   0.548  0.00  0.00    +0.036 A 
ATOM     27  C   UNL     1      -6.880   1.539   0.233  0.00  0.00    +0.026 A 
ATOM     28  C   UNL     1      -7.950   0.670   0.318  0.00  0.00    +0.043 A 
ATOM     29  C   UNL     1      -7.752  -0.638   0.728  0.00  0.00    +0.159 A 
ATOM     30  C   UNL     1      -6.477  -1.079   1.048  0.00  0.00    +0.160 A 
ATOM     31  C   UNL     1      -5.402  -0.213   0.959  0.00  0.00    +0.064 A 
ATOM     32  F   UNL     1      -6.284  -2.355   1.448  0.00  0.00    -0.202 F 
ATOM     33  F   UNL     1      -8.801  -1.484   0.815  0.00  0.00    -0.202 F 
ENDBRANCH  24  26
ENDBRANCH  21  22
ENDBRANCH   3  21
TORSDOF 6
