REMARK  Name = ZINC09190815
REMARK  6 active torsions:
REMARK  status: ('A' for Active; 'I' for Inactive)
REMARK    1  A    between atoms: C_1  and  C_2
REMARK    2  A    between atoms: C_5  and  C_8
REMARK    3  A    between atoms: C_10  and  C_13
REMARK    4  A    between atoms: C_13  and  N_14
REMARK    5  A    between atoms: N_14  and  C_15
REMARK    6  A    between atoms: N_18  and  C_19
REMARK                            x       y       z     vdW  Elec       q    Type
REMARK                         _______ _______ _______ _____ _____    ______ ____
ROOT
ATOM      1  C   UNL     1       2.405   1.164   0.324  0.00  0.00    +0.207 C 
ENDROOT
BRANCH   1   2
ATOM      2  N   UNL     1       1.139   1.884   0.160  0.00  0.00    -0.279 N 
ATOM      3  C   UNL     1       1.141   3.338  -0.019  0.00  0.00    +0.134 C 
ATOM      4  C   UNL     1      -0.027   1.208   0.174  0.00  0.00    +0.307 C 
ATOM      5  O   UNL     1      -0.028   0.002   0.323  0.00  0.00    -0.252 OA
ATOM      6  N   UNL     1      -1.191   1.870   0.018  0.00  0.00    -0.269 N 
ATOM      7  H   UNL     1      -1.196   2.839  -0.023  0.00  0.00    +0.156 HD
BRANCH   6   8
ATOM      8  C   UNL     1      -2.392   1.158  -0.086  0.00  0.00    +0.035 A 
ATOM      9  C   UNL     1      -2.412  -0.086  -0.704  0.00  0.00    +0.025 A 
ATOM     10  C   UNL     1      -3.597  -0.788  -0.800  0.00  0.00    +0.022 A 
ATOM     11  C   UNL     1      -4.766  -0.249  -0.291  0.00  0.00    +0.041 A 
ATOM     12  C   UNL     1      -4.749   0.992   0.320  0.00  0.00    +0.022 A 
ATOM     13  C   UNL     1      -3.566   1.697   0.423  0.00  0.00    +0.025 A 
ATOM     14 CL   UNL     1      -6.255  -1.132  -0.419  0.00  0.00    -0.084 Cl
ENDBRANCH   6   8
ENDBRANCH   1   2
BRANCH   1  17
ATOM     15  C   UNL     1       3.910   0.669  -2.903  0.00  0.00    +0.202 A 
ATOM     16  N   UNL     1       3.717   1.436  -1.806  0.00  0.00    -0.190 NA
ATOM     17  C   UNL     1       2.922   0.744  -1.028  0.00  0.00    +0.245 A 
ATOM     18  O   UNL     1       2.662  -0.407  -1.655  0.00  0.00    -0.336 OA
ATOM     19  N   UNL     1       3.228  -0.433  -2.727  0.00  0.00    -0.056 NA
BRANCH  15  24
ATOM     20  C   UNL     1       7.127   2.006  -7.489  0.00  0.00    +0.044 C 
ATOM     21  C   UNL     1       6.286   1.656  -6.289  0.00  0.00    -0.050 A 
ATOM     22  C   UNL     1       5.619   0.444  -6.244  0.00  0.00    +0.004 A 
ATOM     23  C   UNL     1       4.847   0.119  -5.147  0.00  0.00    +0.012 A 
ATOM     24  C   UNL     1       4.739   1.013  -4.084  0.00  0.00    +0.022 A 
ATOM     25  C   UNL     1       5.409   2.234  -4.137  0.00  0.00    +0.012 A 
ATOM     26  C   UNL     1       6.182   2.547  -5.236  0.00  0.00    +0.004 A 
ENDBRANCH  15  24
ENDBRANCH   1  17
TORSDOF 4
