REMARK  Name = ZINC15707302
REMARK  3 active torsions:
REMARK  status: ('A' for Active; 'I' for Inactive)
REMARK    1  A    between atoms: C_6  and  N_7
REMARK    2  A    between atoms: C_19  and  C_21
REMARK    3  A    between atoms: C_23  and  C_26
REMARK                            x       y       z     vdW  Elec       q    Type
REMARK                         _______ _______ _______ _____ _____    ______ ____
ROOT
ATOM      1  N   UNL     1      -1.200  -0.722   0.012  0.00  0.00    -0.269 N 
ATOM      2  C   UNL     1      -1.184  -2.065  -0.099  0.00  0.00    +0.307 C 
ATOM      3  O   UNL     1      -0.124  -2.661  -0.115  0.00  0.00    -0.252 OA
ATOM      4  N   UNL     1      -2.342  -2.748  -0.193  0.00  0.00    -0.267 N 
ATOM      5  C   UNL     1      -3.630  -2.038  -0.294  0.00  0.00    +0.165 C 
ATOM      6  C   UNL     1      -4.597  -2.729   0.638  0.00  0.00    +0.054 A 
ATOM      7  C   UNL     1      -4.350  -3.919   1.228  0.00  0.00    +0.040 A 
ATOM      8  N   UNL     1      -5.441  -4.221   1.984  0.00  0.00    -0.349 N 
ATOM      9  H   UNL     1      -5.564  -5.016   2.527  0.00  0.00    +0.166 HD
ATOM     10  C   UNL     1      -6.321  -3.204   1.836  0.00  0.00    +0.171 A 
ATOM     11  N   UNL     1      -5.805  -2.316   1.028  0.00  0.00    -0.348 N 
ATOM     12  C   UNL     1      -3.085  -4.719   1.054  0.00  0.00    +0.087 C 
ATOM     13  C   UNL     1      -2.351  -4.218  -0.203  0.00  0.00    +0.172 C 
ATOM     14  H   UNL     1      -2.038  -0.258   0.164  0.00  0.00    +0.156 HD
ATOM     15  H   UNL     1      -6.231  -1.488   0.755  0.00  0.00    +0.166 HD
ENDROOT
BRANCH   1  21
ATOM     16  C   UNL     1      -0.023   1.300  -0.589  0.00  0.00    +0.025 A 
ATOM     17  C   UNL     1       1.155   2.014  -0.690  0.00  0.00    +0.022 A 
ATOM     18  C   UNL     1       2.350   1.438  -0.296  0.00  0.00    +0.041 A 
ATOM     19  C   UNL     1       2.369   0.146   0.200  0.00  0.00    +0.022 A 
ATOM     20  C   UNL     1       1.193  -0.572   0.303  0.00  0.00    +0.025 A 
ATOM     21  C   UNL     1      -0.007   0.004  -0.092  0.00  0.00    +0.035 A 
ATOM     22 CL   UNL     1       3.829   2.338  -0.424  0.00  0.00    -0.084 Cl
ENDBRANCH   1  21
BRANCH  13  23
ATOM     23  C   UNL     1      -3.063  -4.709  -1.436  0.00  0.00    +0.249 A 
ATOM     24  N   UNL     1      -2.658  -5.669  -2.218  0.00  0.00    -0.190 NA
ATOM     25  C   UNL     1      -3.534  -5.846  -3.223  0.00  0.00    +0.202 A 
ATOM     26  N   UNL     1      -4.513  -4.987  -3.080  0.00  0.00    -0.056 NA
ATOM     27  O   UNL     1      -4.223  -4.237  -1.911  0.00  0.00    -0.336 OA
BRANCH  25  28
ATOM     28  C   UNL     1      -3.412  -6.847  -4.311  0.00  0.00    +0.024 A 
ATOM     29  C   UNL     1      -2.319  -7.711  -4.347  0.00  0.00    +0.014 A 
ATOM     30  C   UNL     1      -2.209  -8.641  -5.360  0.00  0.00    +0.040 A 
ATOM     31  C   UNL     1      -3.184  -8.717  -6.342  0.00  0.00    +0.142 A 
ATOM     32  C   UNL     1      -4.273  -7.859  -6.311  0.00  0.00    +0.077 A 
ATOM     33  C   UNL     1      -4.393  -6.930  -5.297  0.00  0.00    +0.034 A 
ATOM     34 CL   UNL     1      -5.490  -7.959  -7.545  0.00  0.00    -0.081 Cl
ATOM     35  F   UNL     1      -3.072  -9.629  -7.333  0.00  0.00    -0.204 F 
ENDBRANCH  25  28
ENDBRANCH  13  23
TORSDOF 3
