REMARK  Name = ZINC11788998
REMARK  12 active torsions:
REMARK  status: ('A' for Active; 'I' for Inactive)
REMARK    1  A    between atoms: C_1  and  O_2
REMARK    2  A    between atoms: O_2  and  C_3
REMARK    3  A    between atoms: C_3  and  C_4
REMARK    4  A    between atoms: C_4  and  N_5
REMARK    5  A    between atoms: C_6  and  C_8
REMARK    6  A    between atoms: C_11  and  S_25
REMARK    7  A    between atoms: C_14  and  C_15
REMARK    8  A    between atoms: C_14  and  N_63
REMARK    9  A    between atoms: C_20  and  O_21
REMARK   10  A    between atoms: O_21  and  C_22
REMARK   11  A    between atoms: C_22  and  C_23
REMARK   12  A    between atoms: S_25  and  C_26
REMARK                            x       y       z     vdW  Elec       q    Type
REMARK                         _______ _______ _______ _____ _____    ______ ____
ROOT
ATOM      1  C   UNL     1      -0.776  10.223  -0.801  0.00  0.00    +0.021 C 
ATOM      2  C   UNL     1      -1.756   9.409   0.063  0.00  0.00    +0.006 C 
ATOM      3  C   UNL     1      -1.329   7.934  -0.123  0.00  0.00    +0.037 C 
ATOM      4  C   UNL     1      -0.556   7.964  -1.466  0.00  0.00    -0.063 C 
ATOM      5  N   UNL     1       0.148   9.250  -1.395  0.00  0.00    +0.391 N 
ATOM      6  H   UNL     1       0.981   9.155  -0.802  0.00  0.00    -0.080 HD
ENDROOT
BRANCH   1   8
ATOM      7  N   UNL     1      -0.689  12.161   0.733  0.00  0.00    -0.314 N 
ATOM      8  C   UNL     1      -0.022  11.202   0.061  0.00  0.00    +0.200 C 
ATOM      9  O   UNL     1       1.185  11.127   0.151  0.00  0.00    -0.278 OA
ATOM     10  H   UNL     1      -1.655  12.221   0.662  0.00  0.00    +0.149 HD
BRANCH   7  11
ATOM     11  C   UNL     1       0.043  13.113   1.572  0.00  0.00    +0.132 C 
BRANCH  11  12
ATOM     12  C   UNL     1      -0.943  14.088   2.218  0.00  0.00    +0.178 C 
BRANCH  12  14
ATOM     13  C   UNL     1      -2.764  14.199   3.773  0.00  0.00    +0.194 C 
ATOM     14  O   UNL     1      -1.799  13.376   3.114  0.00  0.00    -0.381 OA
ENDBRANCH  12  14
ENDBRANCH  11  12
ENDBRANCH   7  11
ENDBRANCH   1   8
BRANCH   5  15
ATOM     15  C   UNL     1       0.565   9.697  -2.758  0.00  0.00    -0.038 C 
BRANCH  15  16
ATOM     16  C   UNL     1       1.439   8.643  -3.389  0.00  0.00    -0.022 A 
ATOM     17  C   UNL     1       0.931   7.829  -4.383  0.00  0.00    +0.005 A 
ATOM     18  C   UNL     1       1.732   6.863  -4.963  0.00  0.00    +0.000 A 
ATOM     19  C   UNL     1       3.043   6.709  -4.550  0.00  0.00    +0.004 A 
ATOM     20  C   UNL     1       3.555   7.520  -3.556  0.00  0.00    +0.046 A 
ATOM     21  C   UNL     1       2.754   8.494  -2.976  0.00  0.00    +0.122 A 
BRANCH  21  22
ATOM     22  O   UNL     1       3.258   9.297  -2.002  0.00  0.00    -0.488 OA
BRANCH  22  23
ATOM     23  C   UNL     1       4.620   9.086  -1.627  0.00  0.00    +0.256 C 
BRANCH  23  24
ATOM     24  C   UNL     1       4.999  10.061  -0.542  0.00  0.00    +0.006 C 
ATOM     25  C   UNL     1       5.670   9.648   0.505  0.00  0.00    +0.007 C 
ENDBRANCH  23  24
ENDBRANCH  22  23
ENDBRANCH  21  22
ENDBRANCH  15  16
ENDBRANCH   5  15
BRANCH   3  26
ATOM     26  S   UNL     1      -2.780   6.858  -0.244  0.00  0.00    -0.086 S 
BRANCH  26  27
ATOM     27  C   UNL     1      -1.990   5.284  -0.293  0.00  0.00    +0.167 A 
ATOM     28  N   UNL     1      -2.636   4.084  -0.385  0.00  0.00    -0.333 N 
ATOM     29  H   UNL     1      -3.625   3.945  -0.436  0.00  0.00    +0.168 HD
ATOM     30  C   UNL     1      -1.666   3.095  -0.396  0.00  0.00    +0.067 A 
ATOM     31  C   UNL     1      -1.704   1.711  -0.477  0.00  0.00    +0.028 A 
ATOM     32  C   UNL     1      -0.528   0.989  -0.459  0.00  0.00    +0.002 A 
ATOM     33  C   UNL     1       0.694   1.639  -0.370  0.00  0.00    +0.002 A 
ATOM     34  C   UNL     1       0.751   3.013  -0.295  0.00  0.00    +0.030 A 
ATOM     35  C   UNL     1      -0.431   3.758  -0.306  0.00  0.00    +0.090 A 
ATOM     36  N   UNL     1      -0.695   5.090  -0.247  0.00  0.00    -0.222 NA
ENDBRANCH  26  27
ENDBRANCH   3  26
TORSDOF 11
