REMARK  Name = ZINC54641458
REMARK  12 active torsions:
REMARK  status: ('A' for Active; 'I' for Inactive)
REMARK    1  A    between atoms: C_1  and  C_2
REMARK    2  A    between atoms: C_2  and  C_3
REMARK    3  A    between atoms: C_3  and  C_4
REMARK    4  A    between atoms: C_4  and  O_5
REMARK    5  A    between atoms: O_5  and  C_6
REMARK    6  A    between atoms: C_7  and  O_33
REMARK    7  A    between atoms: C_9  and  C_13
REMARK    8  A    between atoms: C_15  and  C_24
REMARK    9  A    between atoms: C_16  and  C_23
REMARK   10  A    between atoms: C_24  and  O_26
REMARK   11  A    between atoms: O_26  and  C_27
REMARK   12  A    between atoms: O_33  and  C_34
REMARK                            x       y       z     vdW  Elec       q    Type
REMARK                         _______ _______ _______ _____ _____    ______ ____
ROOT
ATOM      1  C   UNL     1       1.932  -8.010   2.936  0.00  0.00    +0.181 C 
ATOM      2  C   UNL     1       2.028  -8.571   1.541  0.00  0.00    +0.082 C 
ATOM      3  C   UNL     1       3.121  -9.197   1.077  0.00  0.00    +0.020 C 
ATOM      4  N   UNL     1       4.241  -9.386   1.848  0.00  0.00    -0.286 N 
ATOM      5  C   UNL     1       4.127  -9.142   3.209  0.00  0.00    +0.240 A 
ATOM      6  N   UNL     1       3.049  -8.502   3.734  0.00  0.00    -0.201 N 
ATOM      7  N   UNL     1       3.278  -8.447   5.107  0.00  0.00    -0.042 NA
ATOM      8  N   UNL     1       4.420  -9.021   5.312  0.00  0.00    -0.021 NA
ATOM      9  N   UNL     1       4.924  -9.430   4.197  0.00  0.00    -0.092 NA
ATOM     10  C   UNL     1       3.118  -9.710  -0.340  0.00  0.00    +0.061 C 
ATOM     11  H   UNL     1       5.079  -9.679   1.457  0.00  0.00    +0.155 HD
ENDROOT
BRANCH   1  15
ATOM     12  C   UNL     1       2.075  -3.739   2.767  0.00  0.00    +0.176 A 
ATOM     13  C   UNL     1       0.965  -4.377   3.311  0.00  0.00    +0.163 A 
ATOM     14  C   UNL     1       0.922  -5.761   3.364  0.00  0.00    +0.055 A 
ATOM     15  C   UNL     1       1.981  -6.505   2.877  0.00  0.00    -0.014 A 
ATOM     16  C   UNL     1       3.084  -5.872   2.337  0.00  0.00    +0.025 A 
ATOM     17  C   UNL     1       3.131  -4.490   2.275  0.00  0.00    +0.063 A 
ATOM     18 BR   UNL     1       4.638  -3.628   1.528  0.00  0.00    -0.046 Br
BRANCH  13  19
ATOM     19  O   UNL     1      -0.076  -3.645   3.790  0.00  0.00    -0.491 OA
ATOM     20  C   UNL     1      -1.182  -4.367   4.334  0.00  0.00    +0.277 C 
ENDBRANCH  13  19
BRANCH  12  21
ATOM     21  O   UNL     1       2.122  -2.381   2.713  0.00  0.00    -0.487 OA
BRANCH  21  22
ATOM     22  C   UNL     1       1.591  -1.760   1.540  0.00  0.00    +0.229 C 
BRANCH  22  23
ATOM     23  C   UNL     1       1.730  -0.241   1.661  0.00  0.00    +0.041 C 
BRANCH  23  25
ATOM     24  C   UNL     1       1.301   1.943   0.525  0.00  0.00    +0.004 C 
ATOM     25  C   UNL     1       1.162   0.424   0.405  0.00  0.00    -0.000 C 
ENDBRANCH  23  25
ENDBRANCH  22  23
ENDBRANCH  21  22
ENDBRANCH  12  21
ENDBRANCH   1  15
BRANCH   2  26
ATOM     26  C   UNL     1       0.916  -8.432   0.682  0.00  0.00    +0.339 C 
ATOM     27  O   UNL     1      -0.069  -9.128   0.843  0.00  0.00    -0.245 OA
BRANCH  26  28
ATOM     28  O   UNL     1       0.945  -7.526  -0.319  0.00  0.00    -0.458 OA
BRANCH  28  29
ATOM     29  C   UNL     1      -0.215  -7.439  -1.149  0.00  0.00    +0.177 C 
ATOM     30  C   UNL     1      -0.070  -8.402  -2.329  0.00  0.00    +0.044 C 
ATOM     31  C   UNL     1      -1.312  -8.309  -3.219  0.00  0.00    +0.004 C 
ATOM     32  C   UNL     1      -1.458  -6.879  -3.742  0.00  0.00    +0.000 C 
ATOM     33  C   UNL     1      -1.602  -5.916  -2.562  0.00  0.00    +0.004 C 
ATOM     34  C   UNL     1      -0.361  -6.009  -1.673  0.00  0.00    +0.044 C 
ENDBRANCH  28  29
ENDBRANCH  26  28
ENDBRANCH   2  26
TORSDOF 9
