REMARK  Name = ZINC36528627
REMARK  11 active torsions:
REMARK  status: ('A' for Active; 'I' for Inactive)
REMARK    1  A    between atoms: C_1  and  C_2
REMARK    2  A    between atoms: C_2  and  C_3
REMARK    3  A    between atoms: C_2  and  C_4
REMARK    4  A    between atoms: C_2  and  N_5
REMARK    5  A    between atoms: C_6  and  C_8
REMARK    6  A    between atoms: C_8  and  C_10
REMARK    7  A    between atoms: C_8  and  N_17
REMARK    8  A    between atoms: C_15  and  O_16
REMARK    9  A    between atoms: N_17  and  C_18
REMARK   10  A    between atoms: C_19  and  C_21
REMARK   11  A    between atoms: C_26  and  O_27
REMARK                            x       y       z     vdW  Elec       q    Type
REMARK                         _______ _______ _______ _____ _____    ______ ____
ROOT
ATOM      1  C   UNL     1       2.694  -0.818  -2.970  0.00  0.00    +0.196 C 
ENDROOT
BRANCH   1   2
ATOM      2  C   UNL     1       2.499  -2.249  -3.400  0.00  0.00    +0.023 A 
ATOM      3  C   UNL     1       2.274  -3.231  -2.455  0.00  0.00    +0.009 A 
ATOM      4  C   UNL     1       2.095  -4.544  -2.849  0.00  0.00    +0.001 A 
ATOM      5  C   UNL     1       2.140  -4.878  -4.190  0.00  0.00    +0.004 A 
ATOM      6  C   UNL     1       2.365  -3.901  -5.139  0.00  0.00    +0.046 A 
ATOM      7  C   UNL     1       2.539  -2.581  -4.747  0.00  0.00    +0.122 A 
BRANCH   7   8
ATOM      8  O   UNL     1       2.755  -1.616  -5.679  0.00  0.00    -0.506 OA
ATOM      9  H   UNL     1       3.688  -1.474  -5.889  0.00  0.00    +0.292 HD
ENDBRANCH   7   8
ENDBRANCH   1   2
BRANCH   1  11
ATOM     10  N   UNL     1       0.942  -0.917  -1.227  0.00  0.00    -0.309 N 
ATOM     11  C   UNL     1       2.224  -0.653  -1.548  0.00  0.00    +0.239 C 
ATOM     12  O   UNL     1       3.000  -0.282  -0.692  0.00  0.00    -0.273 OA
ATOM     13  H   UNL     1       0.322  -1.214  -1.911  0.00  0.00    +0.149 HD
BRANCH  10  15
ATOM     14  C   UNL     1       0.684   0.696   0.593  0.00  0.00    +0.031 C 
ATOM     15  C   UNL     1       0.486  -0.756   0.156  0.00  0.00    +0.026 C 
ATOM     16  C   UNL     1       1.294  -1.679   1.071  0.00  0.00    +0.031 C 
ATOM     17  C   UNL     1      -0.998  -1.119   0.248  0.00  0.00    +0.031 C 
ENDBRANCH  10  15
ENDBRANCH   1  11
BRANCH   1  18
ATOM     18  N   UNL     1       4.115  -0.471  -3.059  0.00  0.00    -0.285 N 
ATOM     19  C   UNL     1       5.114  -1.293  -2.370  0.00  0.00    +0.133 C 
ATOM     20  C   UNL     1       4.503   0.604  -3.773  0.00  0.00    +0.251 C 
ATOM     21  O   UNL     1       3.684   1.238  -4.410  0.00  0.00    -0.270 OA
BRANCH  20  22
ATOM     22  C   UNL     1       5.921   1.011  -3.782  0.00  0.00    +0.078 A 
ATOM     23  C   UNL     1       6.924   0.059  -3.978  0.00  0.00    +0.017 A 
ATOM     24  C   UNL     1       8.246   0.446  -3.986  0.00  0.00    +0.001 A 
ATOM     25  C   UNL     1       8.587   1.776  -3.799  0.00  0.00    +0.004 A 
ATOM     26  C   UNL     1       7.605   2.727  -3.603  0.00  0.00    +0.046 A 
ATOM     27  C   UNL     1       6.269   2.356  -3.598  0.00  0.00    +0.129 A 
BRANCH  27  28
ATOM     28  O   UNL     1       5.303   3.290  -3.412  0.00  0.00    -0.506 OA
ATOM     29  H   UNL     1       5.066   3.431  -2.485  0.00  0.00    +0.292 HD
ENDBRANCH  27  28
ENDBRANCH  20  22
ENDBRANCH   1  18
TORSDOF 7
