REMARK  Name = ZINC64392517
REMARK  8 active torsions:
REMARK  status: ('A' for Active; 'I' for Inactive)
REMARK    1  A    between atoms: C_1  and  C_2
REMARK    2  A    between atoms: C_2  and  C_3
REMARK    3  A    between atoms: C_6  and  C_9
REMARK    4  A    between atoms: C_11  and  C_15
REMARK    5  A    between atoms: N_25  and  C_28
REMARK    6  A    between atoms: C_28  and  C_29
REMARK    7  A    between atoms: C_32  and  O_35
REMARK    8  A    between atoms: O_35  and  C_36
REMARK                            x       y       z     vdW  Elec       q    Type
REMARK                         _______ _______ _______ _____ _____    ______ ____
ROOT
ATOM      1  C   UNL     1       3.544  -4.435   6.676  0.00  0.00    +0.006 A 
ATOM      2  C   UNL     1       3.420  -5.217   5.537  0.00  0.00    +0.009 A 
ATOM      3  C   UNL     1       3.671  -6.572   5.591  0.00  0.00    +0.016 A 
ATOM      4  C   UNL     1       4.050  -7.153   6.799  0.00  0.00    +0.063 A 
ATOM      5  C   UNL     1       4.175  -6.359   7.952  0.00  0.00    +0.056 A 
ATOM      6  C   UNL     1       3.925  -4.997   7.878  0.00  0.00    +0.034 A 
ATOM      7  N   UNL     1       4.555  -6.965   9.141  0.00  0.00    -0.307 N 
ATOM      8  H   UNL     1       4.645  -6.430   9.945  0.00  0.00    +0.170 HD
ATOM      9  C   UNL     1       4.799  -8.286   9.190  0.00  0.00    +0.330 A 
ATOM     10  O   UNL     1       5.129  -8.778  10.251  0.00  0.00    -0.246 OA
ATOM     11  N   UNL     1       4.692  -9.085   8.117  0.00  0.00    -0.256 N 
ATOM     12  C   UNL     1       4.329  -8.595   6.911  0.00  0.00    +0.265 A 
ATOM     13  O   UNL     1       4.236  -9.326   5.944  0.00  0.00    -0.267 OA
ENDROOT
BRANCH   1  16
ATOM     14  C   UNL     1       2.786  -1.911   4.666  0.00  0.00    +0.134 C 
ATOM     15  N   UNL     1       2.259  -2.681   5.567  0.00  0.00    -0.339 N 
ATOM     16  C   UNL     1       3.267  -2.956   6.599  0.00  0.00    +0.274 C 
ATOM     17  O   UNL     1       4.445  -2.249   6.181  0.00  0.00    -0.243 OA
ATOM     18  N   UNL     1       4.094  -1.615   4.961  0.00  0.00    -0.247 N 
ATOM     19  H   UNL     1       4.681  -1.060   4.425  0.00  0.00    +0.196 HD
ATOM     20  H   UNL     1       1.350  -3.018   5.561  0.00  0.00    +0.164 HD
BRANCH  14  24
ATOM     21  C   UNL     1       0.731  -0.503   1.223  0.00  0.00    -0.048 A 
ATOM     22  C   UNL     1       2.098  -0.709   1.173  0.00  0.00    +0.004 A 
ATOM     23  C   UNL     1       2.771  -1.166   2.288  0.00  0.00    +0.012 A 
ATOM     24  C   UNL     1       2.070  -1.421   3.466  0.00  0.00    +0.017 A 
ATOM     25  C   UNL     1       0.692  -1.212   3.510  0.00  0.00    +0.012 A 
ATOM     26  C   UNL     1       0.031  -0.749   2.391  0.00  0.00    +0.004 A 
BRANCH  21  28
ATOM     27  C   UNL     1      -0.019   1.526   0.010  0.00  0.00    +0.009 C 
ATOM     28  C   UNL     1       0.002  -0.004   0.002  0.00  0.00    +0.032 C 
ENDBRANCH  21  28
ENDBRANCH  14  24
ENDBRANCH   1  16
BRANCH  11  29
ATOM     29  C   UNL     1       4.976 -10.515   8.255  0.00  0.00    +0.165 C 
BRANCH  29  30
ATOM     30  C   UNL     1       3.708 -11.246   8.617  0.00  0.00    -0.027 A 
ATOM     31  C   UNL     1       3.364 -11.415   9.945  0.00  0.00    +0.009 A 
ATOM     32  C   UNL     1       2.203 -12.085  10.279  0.00  0.00    +0.046 A 
ATOM     33  C   UNL     1       1.382 -12.588   9.280  0.00  0.00    +0.120 A 
ATOM     34  C   UNL     1       1.729 -12.416   7.948  0.00  0.00    +0.046 A 
ATOM     35  C   UNL     1       2.889 -11.741   7.619  0.00  0.00    +0.009 A 
BRANCH  33  36
ATOM     36  O   UNL     1       0.239 -13.247   9.606  0.00  0.00    -0.495 OA
ATOM     37  C   UNL     1      -0.558 -13.737   8.525  0.00  0.00    +0.277 C 
ENDBRANCH  33  36
ENDBRANCH  29  30
ENDBRANCH  11  29
TORSDOF 6
