REMARK  Name = ZINC22838620
REMARK  9 active torsions:
REMARK  status: ('A' for Active; 'I' for Inactive)
REMARK    1  A    between atoms: C_1  and  C_2
REMARK    2  A    between atoms: C_2  and  O_3
REMARK    3  A    between atoms: O_3  and  C_4
REMARK    4  A    between atoms: C_4  and  C_6
REMARK    5  A    between atoms: C_12  and  C_14
REMARK    6  A    between atoms: C_14  and  C_16
REMARK    7  A    between atoms: C_14  and  S_17
REMARK    8  A    between atoms: S_17  and  C_18
REMARK    9  A    between atoms: C_28  and  C_32
REMARK                            x       y       z     vdW  Elec       q    Type
REMARK                         _______ _______ _______ _____ _____    ______ ____
ROOT
ATOM      1  C   UNL     1       2.273   1.405   0.372  0.00  0.00    +0.192 A 
ATOM      2  N   UNL     1       1.099   2.026   0.374  0.00  0.00    -0.207 NA
ATOM      3  C   UNL     1      -0.017   1.419   0.010  0.00  0.00    +0.129 A 
ATOM      4  C   UNL     1       0.033   0.056  -0.397  0.00  0.00    +0.051 A 
ATOM      5  C   UNL     1      -1.065  -0.809  -0.836  0.00  0.00    -0.025 A 
ATOM      6  C   UNL     1      -0.749  -2.075  -1.172  0.00  0.00    -0.004 A 
ATOM      7  S   UNL     1       1.004  -2.195  -0.928  0.00  0.00    -0.073 S 
ATOM      8  C   UNL     1       1.310  -0.538  -0.374  0.00  0.00    +0.115 A 
ATOM      9  N   UNL     1       2.380   0.136   0.003  0.00  0.00    -0.214 NA
ATOM     10  C   UNL     1      -1.681  -3.148  -1.647  0.00  0.00    +0.046 C 
ATOM     11  C   UNL     1      -3.008  -2.492  -2.053  0.00  0.00    -0.009 C 
ATOM     12  C   UNL     1      -3.440  -1.530  -0.943  0.00  0.00    +0.008 C 
ATOM     13  C   UNL     1      -2.508  -0.318  -0.914  0.00  0.00    +0.037 C 
ATOM     14  C   UNL     1      -4.077  -3.570  -2.243  0.00  0.00    +0.008 C 
ATOM     15  N   UNL     1      -1.220   2.102   0.019  0.00  0.00    -0.343 N 
ATOM     16  H   UNL     1      -2.145   1.591  -0.285  0.00  0.00    +0.144 HD
ATOM     17  H   UNL     1      -1.251   3.157   0.331  0.00  0.00    +0.144 HD
ENDROOT
BRANCH   1  18
ATOM     18  S   UNL     1       3.717   2.284   0.871  0.00  0.00    -0.073 S 
BRANCH  18  19
ATOM     19  C   UNL     1       2.988   3.898   1.246  0.00  0.00    +0.137 C 
ATOM     20  C   UNL     1       2.034   3.763   2.435  0.00  0.00    +0.029 C 
BRANCH  19  27
ATOM     21  C   UNL     1       3.724   8.771   0.335  0.00  0.00    +0.101 C 
ATOM     22  C   UNL     1       5.077   8.135   0.665  0.00  0.00    +0.033 C 
ATOM     23  C   UNL     1       4.908   7.167   1.840  0.00  0.00    +0.108 C 
ATOM     24  N   UNL     1       3.851   6.201   1.510  0.00  0.00    -0.301 N 
ATOM     25  C   UNL     1       2.538   6.708   1.086  0.00  0.00    +0.108 C 
ATOM     26  C   UNL     1       2.732   7.681  -0.075  0.00  0.00    +0.033 C 
ATOM     27  C   UNL     1       4.082   4.876   1.589  0.00  0.00    +0.229 C 
ATOM     28  O   UNL     1       5.172   4.470   1.935  0.00  0.00    -0.274 OA
BRANCH  21  29
ATOM     29  C   UNL     1       3.893   9.749  -0.799  0.00  0.00    +0.310 C 
ATOM     30  O   UNL     1       4.983   9.920  -1.292  0.00  0.00    -0.251 OA
BRANCH  29  31
ATOM     31  O   UNL     1       2.833  10.431  -1.260  0.00  0.00    -0.465 OA
BRANCH  31  33
ATOM     32  C   UNL     1       1.754  12.035  -2.742  0.00  0.00    +0.048 C 
ATOM     33  C   UNL     1       3.070  11.356  -2.354  0.00  0.00    +0.229 C 
ENDBRANCH  31  33
ENDBRANCH  29  31
ENDBRANCH  21  29
ENDBRANCH  19  27
ENDBRANCH  18  19
ENDBRANCH   1  18
TORSDOF 6
