REMARK  Name = ZINC04680573
REMARK  4 active torsions:
REMARK  status: ('A' for Active; 'I' for Inactive)
REMARK    1  A    between atoms: C_4  and  O_26
REMARK    2  A    between atoms: C_5  and  C_7
REMARK    3  A    between atoms: N_8  and  N_9
REMARK    4  A    between atoms: C_12  and  C_19
REMARK                            x       y       z     vdW  Elec       q    Type
REMARK                         _______ _______ _______ _____ _____    ______ ____
ROOT
ATOM      1  N   UNL     1       2.405  -4.197  -0.170  0.00  0.00    -0.220 N 
ATOM      2  C   UNL     1       3.616  -4.865  -0.174  0.00  0.00    +0.150 A 
ATOM      3  C   UNL     1       3.659  -6.277  -0.023  0.00  0.00    +0.057 A 
ATOM      4  C   UNL     1       2.566  -7.228   0.150  0.00  0.00    +0.002 A 
ATOM      5  C   UNL     1       2.861  -8.544   0.274  0.00  0.00    +0.056 A 
ATOM      6  S   UNL     1       4.640  -8.584   0.165  0.00  0.00    -0.076 S 
ATOM      7  C   UNL     1       4.947  -6.850  -0.043  0.00  0.00    +0.114 A 
ATOM      8  N   UNL     1       6.027  -6.107  -0.193  0.00  0.00    -0.228 NA
ATOM      9  C   UNL     1       5.924  -4.799  -0.328  0.00  0.00    +0.224 A 
ATOM     10  N   UNL     1       4.749  -4.197  -0.325  0.00  0.00    -0.219 NA
ATOM     11  H   UNL     1       1.638  -4.586   0.279  0.00  0.00    +0.176 HD
ENDROOT
BRANCH   4  12
ATOM     12  C   UNL     1       1.159  -6.763   0.190  0.00  0.00    -0.017 A 
ATOM     13  C   UNL     1       0.629  -6.046  -0.882  0.00  0.00    +0.010 A 
ATOM     14  C   UNL     1      -0.681  -5.616  -0.840  0.00  0.00    +0.020 A 
ATOM     15  C   UNL     1      -1.469  -5.895   0.264  0.00  0.00    +0.041 A 
ATOM     16  C   UNL     1      -0.948  -6.606   1.331  0.00  0.00    +0.020 A 
ATOM     17  C   UNL     1       0.360  -7.046   1.296  0.00  0.00    +0.010 A 
ATOM     18 CL   UNL     1      -3.117  -5.350   0.310  0.00  0.00    -0.084 Cl
ENDBRANCH   4  12
BRANCH   1  20
ATOM     19  C   UNL     1       1.149  -2.332  -0.811  0.00  0.00    +0.141 C 
ATOM     20  N   UNL     1       2.285  -2.959  -0.815  0.00  0.00    -0.189 NA
BRANCH  19  25
ATOM     21  C   UNL     1      -0.309   0.866  -2.125  0.00  0.00    +0.001 A 
ATOM     22  C   UNL     1       0.785   1.421  -2.766  0.00  0.00    +0.004 A 
ATOM     23  C   UNL     1       1.999   0.760  -2.775  0.00  0.00    +0.046 A 
ATOM     24  C   UNL     1       2.128  -0.464  -2.140  0.00  0.00    +0.125 A 
ATOM     25  C   UNL     1       1.023  -1.029  -1.489  0.00  0.00    +0.036 A 
ATOM     26  C   UNL     1      -0.198  -0.352  -1.488  0.00  0.00    +0.013 A 
BRANCH  24  27
ATOM     27  O   UNL     1       3.321  -1.115  -2.148  0.00  0.00    -0.506 OA
ATOM     28  H   UNL     1       3.896  -0.891  -1.403  0.00  0.00    +0.292 HD
ENDBRANCH  24  27
ENDBRANCH  19  25
ENDBRANCH   1  20
TORSDOF 4
