REMARK  Name = ZINC39711056
REMARK  13 active torsions:
REMARK  status: ('A' for Active; 'I' for Inactive)
REMARK    1  A    between atoms: C_1  and  C_2
REMARK    2  A    between atoms: C_4  and  C_40
REMARK    3  A    between atoms: C_9  and  C_14
REMARK    4  A    between atoms: C_14  and  C_16
REMARK    5  A    between atoms: C_14  and  N_26
REMARK    6  A    between atoms: N_21  and  C_22
REMARK    7  A    between atoms: C_22  and  C_23
REMARK    8  A    between atoms: C_22  and  C_24
REMARK    9  A    between atoms: C_22  and  C_25
REMARK   10  A    between atoms: N_26  and  C_27
REMARK   11  A    between atoms: N_26  and  C_34
REMARK   12  A    between atoms: C_27  and  C_28
REMARK   13  A    between atoms: C_34  and  C_35
REMARK                            x       y       z     vdW  Elec       q    Type
REMARK                         _______ _______ _______ _____ _____    ______ ____
ROOT
ATOM      1  C   UNL     1       2.144  -4.726   2.935  0.00  0.00    -0.010 C 
ENDROOT
BRANCH   1  10
ATOM      2  C   UNL     1       7.175   0.340   2.745  0.00  0.00    +0.044 C 
ATOM      3  C   UNL     1       5.976  -0.389   2.192  0.00  0.00    -0.050 A 
ATOM      4  C   UNL     1       5.704  -0.317   0.826  0.00  0.00    +0.008 A 
ATOM      5  C   UNL     1       4.643  -0.947   0.256  0.00  0.00    -0.028 A 
ATOM      6  C   UNL     1       3.761  -1.712   1.041  0.00  0.00    +0.043 A 
ATOM      7  N   UNL     1       2.724  -2.326   0.471  0.00  0.00    -0.284 N 
ATOM      8  C   UNL     1       1.858  -3.060   1.149  0.00  0.00    +0.223 C 
ATOM      9  O   UNL     1       0.930  -3.597   0.574  0.00  0.00    -0.275 OA
ATOM     10  C   UNL     1       2.025  -3.229   2.643  0.00  0.00    +0.088 C 
ATOM     11  C   UNL     1       3.203  -2.533   3.296  0.00  0.00    -0.006 C 
ATOM     12  C   UNL     1       4.025  -1.806   2.487  0.00  0.00    -0.007 A 
ATOM     13  C   UNL     1       5.188  -1.106   3.034  0.00  0.00    +0.012 A 
ATOM     14  C   UNL     1       4.410  -0.825  -1.228  0.00  0.00    +0.046 C 
ATOM     15  H   UNL     1       2.600  -2.231  -0.486  0.00  0.00    +0.155 HD
ENDBRANCH   1  10
BRANCH   1  16
ATOM     16  C   UNL     1       3.289  -5.317   2.110  0.00  0.00    +0.183 C 
ATOM     17  N   UNL     1       2.845  -5.605   0.733  0.00  0.00    -0.229 N 
ATOM     18  N   UNL     1       2.991  -6.987   0.564  0.00  0.00    -0.064 NA
ATOM     19  N   UNL     1       3.427  -7.543   1.568  0.00  0.00    -0.061 NA
ATOM     20  N   UNL     1       3.669  -6.647   2.622  0.00  0.00    -0.211 N 
ATOM     21  H   UNL     1       2.520  -4.967   0.078  0.00  0.00    +0.172 HD
BRANCH  20  22
ATOM     22  C   UNL     1       4.189  -6.965   3.954  0.00  0.00    +0.047 C 
ATOM     23  C   UNL     1       3.035  -7.000   4.958  0.00  0.00    +0.033 C 
ATOM     24  C   UNL     1       4.878  -8.331   3.920  0.00  0.00    +0.033 C 
ATOM     25  C   UNL     1       5.199  -5.895   4.375  0.00  0.00    +0.033 C 
ENDBRANCH  20  22
ENDBRANCH   1  16
BRANCH   1  26
ATOM     26  N   UNL     1       0.886  -5.396   2.578  0.00  0.00    +0.392 N 
ATOM     27  H   UNL     1       0.755  -5.355   1.579  0.00  0.00    -0.080 HD
BRANCH  26  28
ATOM     28  C   UNL     1       0.941  -6.801   3.007  0.00  0.00    -0.042 C 
BRANCH  28  29
ATOM     29  C   UNL     1      -0.266  -7.534   2.482  0.00  0.00    -0.064 A 
ATOM     30  C   UNL     1      -1.425  -7.585   3.233  0.00  0.00    +0.002 A 
ATOM     31  C   UNL     1      -2.532  -8.257   2.751  0.00  0.00    +0.000 A 
ATOM     32  C   UNL     1      -2.481  -8.878   1.517  0.00  0.00    +0.000 A 
ATOM     33  C   UNL     1      -1.322  -8.826   0.765  0.00  0.00    +0.000 A 
ATOM     34  C   UNL     1      -0.216  -8.150   1.245  0.00  0.00    +0.002 A 
ENDBRANCH  28  29
ENDBRANCH  26  28
BRANCH  26  35
ATOM     35  C   UNL     1      -0.234  -4.723   3.248  0.00  0.00    -0.002 C 
BRANCH  35  36
ATOM     36  C   UNL     1      -1.076  -4.008   2.223  0.00  0.00    +0.089 A 
ATOM     37  C   UNL     1      -2.050  -4.562   1.480  0.00  0.00    +0.042 A 
ATOM     38  C   UNL     1      -2.572  -3.537   0.657  0.00  0.00    +0.041 A 
ATOM     39  C   UNL     1      -1.885  -2.417   0.948  0.00  0.00    +0.195 A 
ATOM     40  O   UNL     1      -0.984  -2.707   1.901  0.00  0.00    -0.470 OA
ENDBRANCH  35  36
ENDBRANCH  26  35
ENDBRANCH   1  26
TORSDOF 8
