REMARK  Name = ZINC36740719
REMARK  6 active torsions:
REMARK  status: ('A' for Active; 'I' for Inactive)
REMARK    1  A    between atoms: C_1  and  C_2
REMARK    2  A    between atoms: C_2  and  C_25
REMARK    3  A    between atoms: N_5  and  C_9
REMARK    4  A    between atoms: C_9  and  C_10
REMARK    5  A    between atoms: N_12  and  C_13
REMARK    6  A    between atoms: C_14  and  C_23
REMARK                            x       y       z     vdW  Elec       q    Type
REMARK                         _______ _______ _______ _____ _____    ______ ____
ROOT
ATOM      1  C   UNL     1       2.871  -1.896  -1.406  0.00  0.00    +0.214 C 
ENDROOT
BRANCH   1   6
ATOM      2  C   UNL     1      -0.019   1.526   0.010  0.00  0.00    +0.047 C 
ATOM      3  C   UNL     1       0.002  -0.004   0.002  0.00  0.00    +0.135 C 
ATOM      4  C   UNL     1       0.815  -0.520  -1.169  0.00  0.00    +0.251 C 
ATOM      5  O   UNL     1       0.595  -0.342  -2.348  0.00  0.00    -0.272 OA
ATOM      6  N   UNL     1       1.833  -1.217  -0.627  0.00  0.00    -0.215 N 
ATOM      7  C   UNL     1       1.777  -1.214   0.710  0.00  0.00    +0.310 C 
ATOM      8  O   UNL     1       2.586  -1.776   1.421  0.00  0.00    -0.252 OA
ATOM      9  N   UNL     1       0.724  -0.519   1.178  0.00  0.00    -0.281 N 
ATOM     10  H   UNL     1       0.487  -0.383   2.109  0.00  0.00    +0.152 HD
BRANCH   3  11
ATOM     11  C   UNL     1      -1.401  -0.551  -0.040  0.00  0.00    -0.016 A 
ATOM     12  C   UNL     1      -2.005  -0.815  -1.256  0.00  0.00    +0.006 A 
ATOM     13  C   UNL     1      -3.292  -1.317  -1.294  0.00  0.00    +0.000 A 
ATOM     14  C   UNL     1      -3.976  -1.556  -0.117  0.00  0.00    +0.000 A 
ATOM     15  C   UNL     1      -3.372  -1.294   1.099  0.00  0.00    +0.000 A 
ATOM     16  C   UNL     1      -2.083  -0.796   1.137  0.00  0.00    +0.006 A 
ENDBRANCH   3  11
ENDBRANCH   1   6
BRANCH   1  17
ATOM     17  C   UNL     1       4.020  -0.950  -1.644  0.00  0.00    +0.236 C 
ATOM     18  O   UNL     1       3.975   0.180  -1.206  0.00  0.00    -0.274 OA
ATOM     19  N   UNL     1       5.097  -1.360  -2.343  0.00  0.00    -0.278 N 
ATOM     20  H   UNL     1       5.133  -2.264  -2.693  0.00  0.00    +0.155 HD
BRANCH  19  21
ATOM     21  C   UNL     1       6.155  -0.488  -2.562  0.00  0.00    +0.090 A 
ATOM     22  C   UNL     1       7.327  -0.730  -3.255  0.00  0.00    +0.084 A 
ATOM     23  C   UNL     1       8.290   0.357  -3.344  0.00  0.00    -0.018 A 
ATOM     24  C   UNL     1       7.900   1.487  -2.716  0.00  0.00    -0.004 A 
ATOM     25  S   UNL     1       6.302   1.104  -2.053  0.00  0.00    -0.077 S 
ATOM     26  C   UNL     1       8.653   2.775  -2.597  0.00  0.00    +0.043 C 
ATOM     27  C   UNL     1       9.165   3.187  -3.984  0.00  0.00    +0.005 C 
ATOM     28  C   UNL     1      10.542   2.567  -4.199  0.00  0.00    +0.001 C 
ATOM     29  C   UNL     1      10.627   1.214  -3.497  0.00  0.00    +0.005 C 
ATOM     30  C   UNL     1       9.612   0.241  -4.090  0.00  0.00    +0.037 C 
BRANCH  22  31
ATOM     31  C   UNL     1       7.584  -2.002  -3.861  0.00  0.00    +0.102 C 
ATOM     32  N   UNL     1       7.787  -3.011  -4.341  0.00  0.00    -0.191 NA
ENDBRANCH  22  31
ENDBRANCH  19  21
ENDBRANCH   1  17
TORSDOF 5
