REMARK  Name = ZINC06949601
REMARK  11 active torsions:
REMARK  status: ('A' for Active; 'I' for Inactive)
REMARK    1  A    between atoms: C_4  and  C_7
REMARK    2  A    between atoms: C_7  and  C_9
REMARK    3  A    between atoms: C_7  and  C_24
REMARK    4  A    between atoms: C_9  and  N_55
REMARK    5  A    between atoms: C_10  and  C_11
REMARK    6  A    between atoms: C_10  and  N_55
REMARK    7  A    between atoms: C_11  and  C_13
REMARK    8  A    between atoms: C_11  and  O_23
REMARK    9  A    between atoms: C_13  and  O_14
REMARK   10  A    between atoms: O_14  and  C_15
REMARK   11  A    between atoms: C_18  and  C_21
REMARK                            x       y       z     vdW  Elec       q    Type
REMARK                         _______ _______ _______ _____ _____    ______ ____
ROOT
ATOM      1  C   UNL     1       3.753   3.057   1.228  0.00  0.00    -0.070 C 
ENDROOT
BRANCH   1   2
ATOM      2  N   UNL     1       3.820   2.190   2.420  0.00  0.00    +0.381 N 
ATOM      3  H   UNL     1       4.652   1.591   2.358  0.00  0.00    -0.086 HD
ATOM      4  H   UNL     1       2.978   1.603   2.459  0.00  0.00    -0.086 HD
BRANCH   2   5
ATOM      5  C   UNL     1       3.899   3.008   3.645  0.00  0.00    -0.047 C 
BRANCH   5   6
ATOM      6  C   UNL     1       3.966   2.083   4.862  0.00  0.00    +0.135 C 
BRANCH   6   7
ATOM      7  O   UNL     1       2.795   1.266   4.905  0.00  0.00    -0.390 OA
ATOM      8  H   UNL     1       1.969   1.766   4.971  0.00  0.00    +0.210 HD
ENDBRANCH   6   7
BRANCH   6   9
ATOM      9  C   UNL     1       4.049   2.924   6.137  0.00  0.00    +0.258 C 
BRANCH   9  10
ATOM     10  O   UNL     1       4.229   2.064   7.264  0.00  0.00    -0.489 OA
BRANCH  10  11
ATOM     11  C   UNL     1       4.322   2.655   8.482  0.00  0.00    +0.121 A 
ATOM     12  C   UNL     1       4.247   4.039   8.588  0.00  0.00    +0.047 A 
ATOM     13  C   UNL     1       4.336   4.643   9.823  0.00  0.00    +0.022 A 
ATOM     14  C   UNL     1       4.512   3.863  10.969  0.00  0.00    +0.052 A 
ATOM     15  C   UNL     1       4.592   2.472  10.858  0.00  0.00    +0.022 A 
ATOM     16  C   UNL     1       4.498   1.876   9.620  0.00  0.00    +0.047 A 
BRANCH  14  17
ATOM     17  C   UNL     1       4.609   4.487  12.255  0.00  0.00    +0.099 C 
ATOM     18  N   UNL     1       4.686   4.982  13.274  0.00  0.00    -0.191 NA
ENDBRANCH  14  17
ENDBRANCH  10  11
ENDBRANCH   9  10
ENDBRANCH   6   9
ENDBRANCH   5   6
ENDBRANCH   2   5
ENDBRANCH   1   2
BRANCH   1  19
ATOM     19  C   UNL     1       3.672   2.182  -0.024  0.00  0.00    +0.034 C 
BRANCH  19  20
ATOM     20  C   UNL     1       3.728   3.055  -1.251  0.00  0.00    -0.017 A 
ATOM     21  C   UNL     1       2.864   4.029  -1.578  0.00  0.00    +0.087 A 
ATOM     22  N   UNL     1       3.236   4.604  -2.763  0.00  0.00    -0.360 N 
ATOM     23  H   UNL     1       2.765   5.331  -3.201  0.00  0.00    +0.165 HD
ATOM     24  C   UNL     1       4.377   4.000  -3.239  0.00  0.00    +0.047 A 
ATOM     25  C   UNL     1       4.739   3.006  -2.310  0.00  0.00    +0.003 A 
ATOM     26  C   UNL     1       5.875   2.226  -2.532  0.00  0.00    +0.010 A 
ATOM     27  C   UNL     1       6.633   2.433  -3.650  0.00  0.00    +0.001 A 
ATOM     28  C   UNL     1       6.282   3.414  -4.568  0.00  0.00    +0.002 A 
ATOM     29  C   UNL     1       5.161   4.191  -4.372  0.00  0.00    +0.026 A 
ENDBRANCH  19  20
BRANCH  19  33
ATOM     30  C   UNL     1       0.002  -0.004   0.002  0.00  0.00    +0.000 A 
ATOM     31  C   UNL     1      -0.017   1.378   0.010  0.00  0.00    +0.000 A 
ATOM     32  C   UNL     1       1.171   2.086   0.002  0.00  0.00    +0.004 A 
ATOM     33  C   UNL     1       2.377   1.411  -0.015  0.00  0.00    -0.042 A 
ATOM     34  C   UNL     1       2.396   0.029  -0.022  0.00  0.00    +0.004 A 
ATOM     35  C   UNL     1       1.208  -0.679  -0.013  0.00  0.00    +0.000 A 
ENDBRANCH  19  33
ENDBRANCH   1  19
TORSDOF 11
