REMARK  Name = ZINC20696633
REMARK  11 active torsions:
REMARK  status: ('A' for Active; 'I' for Inactive)
REMARK    1  A    between atoms: C_1  and  C_2
REMARK    2  A    between atoms: C_2  and  N_3
REMARK    3  A    between atoms: N_3  and  C_4
REMARK    4  A    between atoms: N_3  and  C_6
REMARK    5  A    between atoms: C_4  and  C_5
REMARK    6  A    between atoms: C_9  and  C_12
REMARK    7  A    between atoms: C_23  and  S_28
REMARK    8  A    between atoms: S_28  and  N_31
REMARK    9  A    between atoms: N_31  and  C_32
REMARK   10  A    between atoms: C_35  and  O_38
REMARK   11  A    between atoms: O_38  and  C_39
REMARK                            x       y       z     vdW  Elec       q    Type
REMARK                         _______ _______ _______ _____ _____    ______ ____
ROOT
ATOM      1  C   UNL     1       1.737   4.510   0.723  0.00  0.00    +0.105 C 
ATOM      2  C   UNL     1       1.403   3.123   1.243  0.00  0.00    +0.029 C 
ATOM      3  C   UNL     1       2.281   1.963   0.755  0.00  0.00    +0.033 C 
ATOM      4  C   UNL     1       1.300   0.790   0.807  0.00  0.00    -0.030 C 
ATOM      5  C   UNL     1       0.055   1.234   0.678  0.00  0.00    -0.023 C 
ATOM      6  C   UNL     1       0.093   2.709   0.508  0.00  0.00    +0.049 C 
ATOM      7  C   UNL     1      -1.000   3.571   1.006  0.00  0.00    -0.018 A 
ATOM      8  C   UNL     1      -2.293   3.116   1.153  0.00  0.00    +0.034 A 
ATOM      9  C   UNL     1      -3.284   3.965   1.611  0.00  0.00    +0.109 A 
ATOM     10  C   UNL     1      -2.979   5.277   1.924  0.00  0.00    +0.030 A 
ATOM     11  C   UNL     1      -1.687   5.740   1.787  0.00  0.00    +0.025 A 
ATOM     12  C   UNL     1      -0.682   4.894   1.333  0.00  0.00    +0.031 A 
ATOM     13  N   UNL     1       0.626   5.381   1.222  0.00  0.00    -0.336 N 
ATOM     14  H   UNL     1       0.830   6.423   1.508  0.00  0.00    +0.147 HD
ENDROOT
BRANCH   1  18
ATOM     15  C   UNL     1       1.887   4.489  -3.549  0.00  0.00    +0.030 A 
ATOM     16  C   UNL     1       3.034   4.223  -2.811  0.00  0.00    +0.023 A 
ATOM     17  C   UNL     1       2.982   4.231  -1.431  0.00  0.00    +0.007 A 
ATOM     18  C   UNL     1       1.790   4.502  -0.783  0.00  0.00    -0.027 A 
ATOM     19  C   UNL     1       0.646   4.761  -1.515  0.00  0.00    +0.007 A 
ATOM     20  C   UNL     1       0.692   4.761  -2.895  0.00  0.00    +0.023 A 
BRANCH  15  21
ATOM     21  N   UNL     1       1.936   4.481  -4.944  0.00  0.00    -0.330 N 
BRANCH  21  23
ATOM     22  C   UNL     1       0.627   6.265  -5.988  0.00  0.00    +0.024 C 
ATOM     23  C   UNL     1       0.726   4.761  -5.721  0.00  0.00    +0.102 C 
ENDBRANCH  21  23
BRANCH  21  24
ATOM     24  C   UNL     1       3.197   4.194  -5.632  0.00  0.00    +0.102 C 
ATOM     25  C   UNL     1       3.314   2.687  -5.875  0.00  0.00    +0.024 C 
ENDBRANCH  21  24
ENDBRANCH  15  21
ENDBRANCH   1  18
BRANCH   9  26
ATOM     26  S   UNL     1      -4.934   3.376   1.794  0.00  0.00    +0.072 S 
ATOM     27  O   UNL     1      -4.840   1.987   2.081  0.00  0.00    -0.150 OA
ATOM     28  O   UNL     1      -5.598   4.289   2.658  0.00  0.00    -0.150 OA
BRANCH  26  29
ATOM     29  N   UNL     1      -5.668   3.505   0.315  0.00  0.00    -0.216 N 
ATOM     30  H   UNL     1      -6.038   2.603  -0.195  0.00  0.00    +0.174 HD
BRANCH  29  31
ATOM     31  C   UNL     1      -5.816   4.760  -0.285  0.00  0.00    +0.048 A 
ATOM     32  C   UNL     1      -6.293   5.832   0.456  0.00  0.00    +0.028 A 
ATOM     33  C   UNL     1      -6.434   7.072  -0.136  0.00  0.00    +0.047 A 
ATOM     34  C   UNL     1      -6.109   7.244  -1.474  0.00  0.00    +0.120 A 
ATOM     35  C   UNL     1      -5.638   6.171  -2.216  0.00  0.00    +0.047 A 
ATOM     36  C   UNL     1      -5.491   4.932  -1.625  0.00  0.00    +0.028 A 
BRANCH  34  37
ATOM     37  O   UNL     1      -6.253   8.463  -2.057  0.00  0.00    -0.495 OA
ATOM     38  C   UNL     1      -6.744   9.523  -1.233  0.00  0.00    +0.277 C 
ENDBRANCH  34  37
ENDBRANCH  29  31
ENDBRANCH  26  29
ENDBRANCH   9  26
TORSDOF 8
