REMARK  Name = ZINC16809445
REMARK  10 active torsions:
REMARK  status: ('A' for Active; 'I' for Inactive)
REMARK    1  A    between atoms: C_1  and  C_2
REMARK    2  A    between atoms: C_5  and  C_9
REMARK    3  A    between atoms: C_6  and  C_8
REMARK    4  A    between atoms: C_9  and  C_10
REMARK    5  A    between atoms: C_11  and  C_37
REMARK    6  A    between atoms: C_24  and  C_28
REMARK    7  A    between atoms: C_25  and  C_27
REMARK    8  A    between atoms: C_28  and  C_29
REMARK    9  A    between atoms: C_32  and  C_36
REMARK   10  A    between atoms: C_34  and  C_35
REMARK                            x       y       z     vdW  Elec       q    Type
REMARK                         _______ _______ _______ _____ _____    ______ ____
ROOT
ATOM      1  C   UNL     1       2.961   6.182   0.272  0.00  0.00    +0.042 A 
ATOM      2  C   UNL     1       1.633   6.440   0.445  0.00  0.00    +0.050 A 
ATOM      3  N   UNL     1       0.756   5.439   0.471  0.00  0.00    -0.221 NA
ATOM      4  C   UNL     1       1.141   4.187   0.333  0.00  0.00    +0.202 A 
ATOM      5  N   UNL     1       2.452   3.868   0.163  0.00  0.00    -0.295 N 
ATOM      6  H   UNL     1       2.719   2.941   0.066  0.00  0.00    +0.172 HD
ATOM      7  C   UNL     1       3.381   4.848   0.123  0.00  0.00    +0.256 A 
ATOM      8  O   UNL     1       4.561   4.580  -0.033  0.00  0.00    -0.267 OA
ATOM      9  N   UNL     1       0.201   3.184   0.366  0.00  0.00    -0.255 N 
ATOM     10  C   UNL     1      -1.127   3.493   0.537  0.00  0.00    +0.202 A 
ATOM     11  N   UNL     1      -2.048   2.492   0.557  0.00  0.00    -0.295 N 
ATOM     12  H   UNL     1      -1.767   1.570   0.451  0.00  0.00    +0.172 HD
ATOM     13  C   UNL     1      -3.354   2.786   0.730  0.00  0.00    +0.256 A 
ATOM     14  O   UNL     1      -4.193   1.901   0.755  0.00  0.00    -0.267 OA
ATOM     15  C   UNL     1      -3.730   4.134   0.875  0.00  0.00    +0.042 A 
ATOM     16  C   UNL     1      -2.762   5.095   0.841  0.00  0.00    +0.050 A 
ATOM     17  N   UNL     1      -1.486   4.752   0.673  0.00  0.00    -0.221 NA
ATOM     18  C   UNL     1      -3.137   6.547   0.994  0.00  0.00    +0.066 C 
ATOM     19  C   UNL     1       1.157   7.861   0.606  0.00  0.00    +0.066 C 
ATOM     20  H   UNL     1       0.475   2.259   0.265  0.00  0.00    +0.158 HD
ENDROOT
BRANCH   1  21
ATOM     21  C   UNL     1       3.963   7.308   0.241  0.00  0.00    +0.077 C 
BRANCH  21  26
ATOM     22  C   UNL     1       6.149   8.086   5.533  0.00  0.00    +0.044 C 
ATOM     23  C   UNL     1       5.579   7.883   4.153  0.00  0.00    -0.050 A 
ATOM     24  C   UNL     1       4.724   6.825   3.907  0.00  0.00    +0.003 A 
ATOM     25  C   UNL     1       4.201   6.639   2.642  0.00  0.00    +0.004 A 
ATOM     26  C   UNL     1       4.533   7.511   1.621  0.00  0.00    -0.040 A 
ATOM     27  C   UNL     1       5.391   8.566   1.866  0.00  0.00    -0.047 A 
ATOM     28  C   UNL     1       5.910   8.756   3.134  0.00  0.00    +0.007 A 
ATOM     29  C   UNL     1       5.758   9.514   0.753  0.00  0.00    +0.044 C 
ENDBRANCH  21  26
ENDBRANCH   1  21
BRANCH  15  30
ATOM     30  C   UNL     1      -5.177   4.511   1.063  0.00  0.00    +0.077 C 
BRANCH  30  31
ATOM     31  C   UNL     1      -5.840   4.646  -0.283  0.00  0.00    -0.040 A 
ATOM     32  C   UNL     1      -5.147   4.315  -1.432  0.00  0.00    +0.004 A 
ATOM     33  C   UNL     1      -5.755   4.439  -2.667  0.00  0.00    +0.003 A 
ATOM     34  C   UNL     1      -7.058   4.895  -2.753  0.00  0.00    -0.050 A 
ATOM     35  C   UNL     1      -7.751   5.227  -1.604  0.00  0.00    +0.007 A 
ATOM     36  C   UNL     1      -7.144   5.097  -0.368  0.00  0.00    -0.047 A 
ATOM     37  C   UNL     1      -7.902   5.452   0.884  0.00  0.00    +0.044 C 
ATOM     38  C   UNL     1      -7.721   5.030  -4.099  0.00  0.00    +0.044 C 
ENDBRANCH  30  31
ENDBRANCH  15  30
TORSDOF 4
