REMARK  Name = ZINC09071085
REMARK  7 active torsions:
REMARK  status: ('A' for Active; 'I' for Inactive)
REMARK    1  A    between atoms: C_1  and  C_2
REMARK    2  A    between atoms: C_2  and  N_3
REMARK    3  A    between atoms: C_4  and  C_26
REMARK    4  A    between atoms: C_7  and  S_8
REMARK    5  A    between atoms: S_8  and  C_9
REMARK    6  A    between atoms: C_9  and  C_10
REMARK    7  A    between atoms: N_15  and  C_16
REMARK                            x       y       z     vdW  Elec       q    Type
REMARK                         _______ _______ _______ _____ _____    ______ ____
ROOT
ATOM      1  C   UNL     1      -7.404   1.811   1.997  0.00  0.00    +0.231 C 
ATOM      2  O   UNL     1      -7.002   2.399   2.978  0.00  0.00    -0.274 OA
ATOM      3  N   UNL     1      -6.635   1.739   0.892  0.00  0.00    -0.239 N 
ATOM      4  C   UNL     1      -5.419   2.320   0.879  0.00  0.00    +0.306 C 
ATOM      5  O   UNL     1      -5.016   2.909   1.862  0.00  0.00    -0.252 OA
ATOM      6  N   UNL     1      -4.650   2.248  -0.226  0.00  0.00    -0.294 N 
ATOM      7  H   UNL     1      -6.957   1.269   0.107  0.00  0.00    +0.159 HD
ATOM      8  H   UNL     1      -4.972   1.777  -1.011  0.00  0.00    +0.151 HD
ENDROOT
BRANCH   6   9
ATOM      9  C   UNL     1      -3.328   2.879  -0.241  0.00  0.00    +0.037 C 
ATOM     10  C   UNL     1      -2.670   2.651  -1.603  0.00  0.00    +0.029 C 
ATOM     11  C   UNL     1      -1.289   3.311  -1.619  0.00  0.00    -0.008 C 
ATOM     12  C   UNL     1      -0.418   2.697  -0.521  0.00  0.00    +0.007 C 
ATOM     13  C   UNL     1      -1.077   2.925   0.841  0.00  0.00    -0.008 C 
ATOM     14  C   UNL     1      -2.457   2.265   0.857  0.00  0.00    +0.029 C 
ATOM     15  C   UNL     1      -1.227   4.428   1.089  0.00  0.00    +0.007 C 
ATOM     16  C   UNL     1      -2.098   5.041  -0.009  0.00  0.00    -0.008 C 
ATOM     17  C   UNL     1      -1.439   4.813  -1.370  0.00  0.00    +0.007 C 
ATOM     18  C   UNL     1      -3.478   4.382   0.007  0.00  0.00    +0.029 C 
ENDBRANCH   6   9
BRANCH   1  19
ATOM     19  C   UNL     1      -8.763   1.161   2.013  0.00  0.00    +0.173 C 
BRANCH  19  20
ATOM     20  S   UNL     1      -9.543   1.432   3.624  0.00  0.00    -0.077 S 
BRANCH  20  25
ATOM     21  N   UNL     1     -12.084   0.461   4.275  0.00  0.00    -0.302 N 
ATOM     22  C   UNL     1     -13.063  -0.263   3.635  0.00  0.00    +0.165 A 
ATOM     23  N   UNL     1     -12.618  -0.532   2.430  0.00  0.00    -0.128 NA
ATOM     24  N   UNL     1     -11.446  -0.029   2.273  0.00  0.00    -0.122 NA
ATOM     25  C   UNL     1     -11.071   0.592   3.369  0.00  0.00    +0.192 A 
BRANCH  22  26
ATOM     26  C   UNL     1     -14.369  -0.667   4.200  0.00  0.00    +0.019 A 
ATOM     27  C   UNL     1     -15.092  -1.708   3.617  0.00  0.00    +0.013 A 
ATOM     28  C   UNL     1     -16.308  -2.083   4.151  0.00  0.00    +0.021 A 
ATOM     29  C   UNL     1     -16.815  -1.422   5.257  0.00  0.00    +0.041 A 
ATOM     30  C   UNL     1     -16.104  -0.384   5.837  0.00  0.00    +0.021 A 
ATOM     31  C   UNL     1     -14.885  -0.004   5.314  0.00  0.00    +0.013 A 
ATOM     32 CL   UNL     1     -18.348  -1.895   5.919  0.00  0.00    -0.084 Cl
ENDBRANCH  22  26
BRANCH  21  34
ATOM     33  C   UNL     1     -12.641   2.423   5.625  0.00  0.00    +0.027 C 
ATOM     34  C   UNL     1     -12.121   0.984   5.643  0.00  0.00    +0.122 C 
ENDBRANCH  21  34
ENDBRANCH  20  25
ENDBRANCH  19  20
ENDBRANCH   1  19
TORSDOF 6
