REMARK  Name = ZINC36550901
REMARK  5 active torsions:
REMARK  status: ('A' for Active; 'I' for Inactive)
REMARK    1  A    between atoms: C_1  and  N_2
REMARK    2  A    between atoms: C_4  and  C_27
REMARK    3  A    between atoms: C_6  and  C_19
REMARK    4  A    between atoms: C_19  and  C_21
REMARK    5  A    between atoms: C_30  and  N_33
REMARK                            x       y       z     vdW  Elec       q    Type
REMARK                         _______ _______ _______ _____ _____    ______ ____
ROOT
ATOM      1  C   UNL     1       0.058   1.528   0.159  0.00  0.00    +0.106 C 
ATOM      2  N   UNL     1       0.027   0.060   0.118  0.00  0.00    -0.287 NA
ATOM      3  C   UNL     1       0.696  -0.453  -1.107  0.00  0.00    +0.094 C 
ATOM      4  C   UNL     1       1.056  -1.914  -0.734  0.00  0.00    +0.046 C 
ATOM      5  C   UNL     1       1.449  -1.802   0.759  0.00  0.00    +0.103 C 
ATOM      6  C   UNL     1       0.774  -0.515   1.248  0.00  0.00    +0.136 C 
ATOM      7  C   UNL     1       1.790   0.459   1.781  0.00  0.00    +0.006 A 
ATOM      8  C   UNL     1       2.875   1.094   1.218  0.00  0.00    +0.046 A 
ATOM      9  C   UNL     1       3.644   1.958   1.981  0.00  0.00    +0.124 A 
ATOM     10  C   UNL     1       3.317   2.179   3.309  0.00  0.00    +0.040 A 
ATOM     11  C   UNL     1       2.231   1.545   3.874  0.00  0.00    +0.026 A 
ATOM     12  C   UNL     1       1.453   0.675   3.112  0.00  0.00    +0.039 A 
ATOM     13  N   UNL     1       0.322  -0.072   3.451  0.00  0.00    -0.283 N 
ATOM     14  C   UNL     1      -0.139  -0.796   2.414  0.00  0.00    +0.243 C 
ATOM     15  O   UNL     1      -1.102  -1.532   2.417  0.00  0.00    -0.273 OA
ATOM     16  F   UNL     1       4.709   2.581   1.432  0.00  0.00    -0.205 F 
ATOM     17  H   UNL     1      -0.085  -0.069   4.332  0.00  0.00    +0.155 HD
ENDROOT
BRANCH   4  18
ATOM     18  C   UNL     1       2.217  -2.404  -1.559  0.00  0.00    -0.042 A 
ATOM     19  C   UNL     1       3.428  -1.738  -1.514  0.00  0.00    +0.006 A 
ATOM     20  C   UNL     1       4.493  -2.188  -2.271  0.00  0.00    +0.033 A 
ATOM     21  C   UNL     1       4.348  -3.304  -3.074  0.00  0.00    +0.126 A 
ATOM     22  C   UNL     1       3.138  -3.971  -3.118  0.00  0.00    +0.033 A 
ATOM     23  C   UNL     1       2.074  -3.524  -2.358  0.00  0.00    +0.006 A 
BRANCH  21  24
ATOM     24  N   UNL     1       5.488  -3.786  -3.885  0.00  0.00    +0.056 N 
ATOM     25  O   UNL     1       6.547  -3.203  -3.847  0.00  0.00    -0.126 OA
ATOM     26  O   UNL     1       5.362  -4.762  -4.587  0.00  0.00    -0.126 OA
ENDBRANCH  21  24
ENDBRANCH   4  18
BRANCH   5  27
ATOM     27  C   UNL     1       0.933  -2.992   1.527  0.00  0.00    +0.169 C 
ATOM     28  O   UNL     1      -0.045  -3.591   1.132  0.00  0.00    -0.292 OA
BRANCH  27  29
ATOM     29  C   UNL     1       1.615  -3.426   2.757  0.00  0.00    +0.018 A 
ATOM     30  C   UNL     1       2.739  -2.734   3.219  0.00  0.00    +0.011 A 
ATOM     31  C   UNL     1       3.372  -3.147   4.372  0.00  0.00    +0.001 A 
ATOM     32  C   UNL     1       2.899  -4.243   5.072  0.00  0.00    +0.000 A 
ATOM     33  C   UNL     1       1.787  -4.933   4.621  0.00  0.00    +0.001 A 
ATOM     34  C   UNL     1       1.139  -4.529   3.472  0.00  0.00    +0.011 A 
ENDBRANCH  27  29
ENDBRANCH   5  27
TORSDOF 4
