REMARK  Name = ZINC63122353
REMARK  10 active torsions:
REMARK  status: ('A' for Active; 'I' for Inactive)
REMARK    1  A    between atoms: C_1  and  C_2
REMARK    2  A    between atoms: C_4  and  C_12
REMARK    3  A    between atoms: C_18  and  C_20
REMARK    4  A    between atoms: C_20  and  C_21
REMARK    5  A    between atoms: C_21  and  C_22
REMARK    6  A    between atoms: C_23  and  C_33
REMARK    7  A    between atoms: N_25  and  C_29
REMARK    8  A    between atoms: C_26  and  C_28
REMARK    9  A    between atoms: C_29  and  C_30
REMARK   10  A    between atoms: C_30  and  C_31
REMARK                            x       y       z     vdW  Elec       q    Type
REMARK                         _______ _______ _______ _____ _____    ______ ____
ROOT
ATOM      1  C   UNL     1      -2.428  -0.332  -0.918  0.00  0.00    +0.079 A 
ATOM      2  C   UNL     1      -3.655  -0.973  -0.806  0.00  0.00    +0.076 A 
ATOM      3  S   UNL     1      -4.489  -0.400  -2.151  0.00  0.00    -0.060 S 
ATOM      4  C   UNL     1      -3.216   0.656  -2.818  0.00  0.00    +0.165 A 
ATOM      5  N   UNL     1      -2.238   0.496  -1.953  0.00  0.00    -0.225 NA
ATOM      6  N   UNL     1      -3.251   1.448  -3.956  0.00  0.00    -0.265 N 
ATOM      7  C   UNL     1      -4.361   1.483  -4.720  0.00  0.00    +0.219 C 
ATOM      8  O   UNL     1      -5.330   0.822  -4.412  0.00  0.00    -0.275 OA
ATOM      9  H   UNL     1      -2.476   1.978  -4.202  0.00  0.00    +0.157 HD
ENDROOT
BRANCH   1  12
ATOM     10  C   UNL     1      -1.552  -2.958   0.649  0.00  0.00    +0.035 C 
ATOM     11  C   UNL     1      -1.424  -1.530   1.184  0.00  0.00    +0.109 C 
ATOM     12  C   UNL     1      -1.411  -0.544   0.036  0.00  0.00    +0.009 C 
ATOM     13  C   UNL     1      -0.185   0.110   0.119  0.00  0.00    +0.005 A 
ATOM     14  C   UNL     1       0.408   1.127  -0.663  0.00  0.00    +0.010 A 
ATOM     15  C   UNL     1       1.645   1.586  -0.344  0.00  0.00    +0.001 A 
ATOM     16  C   UNL     1       2.356   1.077   0.745  0.00  0.00    +0.002 A 
ATOM     17  C   UNL     1       1.849   0.102   1.538  0.00  0.00    +0.026 A 
ATOM     18  C   UNL     1       0.561  -0.429   1.268  0.00  0.00    +0.043 A 
ATOM     19  N   UNL     1      -0.144  -1.364   1.878  0.00  0.00    -0.377 N 
ATOM     20  H   UNL     1       0.140  -1.862   2.660  0.00  0.00    +0.160 HD
ENDBRANCH   1  12
BRANCH   7  21
ATOM     21  C   UNL     1      -4.398   2.344  -5.956  0.00  0.00    +0.100 C 
BRANCH  21  22
ATOM     22  C   UNL     1      -5.762   2.202  -6.635  0.00  0.00    +0.043 C 
BRANCH  22  23
ATOM     23  C   UNL     1      -5.799   3.063  -7.871  0.00  0.00    -0.033 C 
ATOM     24  C   UNL     1      -5.543   2.678  -9.105  0.00  0.00    +0.017 C 
ATOM     25  N   UNL     1      -5.669   3.719 -10.003  0.00  0.00    -0.281 N 
ATOM     26  N   UNL     1      -6.028   4.874  -9.368  0.00  0.00    -0.222 NA
ATOM     27  C   UNL     1      -6.145   4.535  -7.936  0.00  0.00    +0.100 C 
ATOM     28  C   UNL     1      -5.151   5.355  -7.111  0.00  0.00    +0.030 C 
ATOM     29  C   UNL     1      -5.158   1.272  -9.489  0.00  0.00    +0.062 C 
ATOM     30  H   UNL     1      -5.522   3.640 -10.958  0.00  0.00    +0.166 HD
BRANCH  26  31
ATOM     31  C   UNL     1      -7.301   5.387  -9.890  0.00  0.00    +0.121 C 
BRANCH  31  32
ATOM     32  C   UNL     1      -7.128   5.787 -11.357  0.00  0.00    +0.135 C 
BRANCH  32  33
ATOM     33  C   UNL     1      -8.405   6.301 -11.879  0.00  0.00    +0.064 C 
ATOM     34  N   UNL     1      -9.390   6.698 -12.282  0.00  0.00    -0.197 NA
ENDBRANCH  32  33
ENDBRANCH  31  32
ENDBRANCH  26  31
ENDBRANCH  22  23
ENDBRANCH  21  22
ENDBRANCH   7  21
TORSDOF 7
