REMARK  Name = ZINC04070211
REMARK  3 active torsions:
REMARK  status: ('A' for Active; 'I' for Inactive)
REMARK    1  A    between atoms: C_5  and  C_6
REMARK    2  A    between atoms: N_8  and  C_9
REMARK    3  A    between atoms: C_10  and  C_18
REMARK                            x       y       z     vdW  Elec       q    Type
REMARK                         _______ _______ _______ _____ _____    ______ ____
ROOT
ATOM      1  C   UNL     1      -1.225   2.020   0.019  0.00  0.00    +0.085 A 
ATOM      2  C   UNL     1      -1.447   3.390   0.033  0.00  0.00    +0.068 A 
ATOM      3  C   UNL     1      -2.826   3.847   0.037  0.00  0.00    -0.023 A 
ATOM      4  C   UNL     1      -3.756   2.868   0.037  0.00  0.00    -0.004 A 
ATOM      5  S   UNL     1      -2.827   1.361   0.023  0.00  0.00    -0.077 S 
ATOM      6  C   UNL     1      -5.245   3.035   0.046  0.00  0.00    +0.043 C 
ATOM      7  C   UNL     1      -5.565   4.486   0.434  0.00  0.00    +0.005 C 
ATOM      8  C   UNL     1      -4.691   5.425  -0.402  0.00  0.00    +0.005 C 
ATOM      9  C   UNL     1      -3.233   5.315   0.047  0.00  0.00    +0.037 C 
ENDROOT
BRANCH   2  10
ATOM     10  C   UNL     1      -0.331   4.341   0.040  0.00  0.00    +0.244 C 
ATOM     11  O   UNL     1       0.129   4.746  -1.012  0.00  0.00    -0.270 OA
ATOM     12  N   UNL     1       0.185   4.766   1.210  0.00  0.00    -0.325 N 
ATOM     13  H   UNL     1      -0.181   4.443   2.047  0.00  0.00    +0.145 HD
ATOM     14  H   UNL     1       0.923   5.395   1.214  0.00  0.00    +0.145 HD
ENDBRANCH   2  10
BRANCH   1  17
ATOM     15  C   UNL     1       0.002  -0.004   0.002  0.00  0.00    +0.255 C 
ATOM     16  O   UNL     1      -1.044  -0.627   0.009  0.00  0.00    -0.269 OA
ATOM     17  N   UNL     1      -0.016   1.344   0.009  0.00  0.00    -0.275 N 
ATOM     18  H   UNL     1       0.817   1.840   0.004  0.00  0.00    +0.156 HD
BRANCH  15  23
ATOM     19  C   UNL     1       1.517  -2.085  -0.024  0.00  0.00    +0.022 A 
ATOM     20  C   UNL     1       2.827  -2.492  -0.039  0.00  0.00    +0.024 A 
ATOM     21  C   UNL     1       3.813  -1.555  -0.044  0.00  0.00    +0.056 A 
ATOM     22  S   UNL     1       2.937  -0.059  -0.034  0.00  0.00    -0.077 S 
ATOM     23  C   UNL     1       1.280  -0.719  -0.014  0.00  0.00    +0.075 A 
ATOM     24 BR   UNL     1       5.686  -1.820  -0.065  0.00  0.00    -0.043 Br
ENDBRANCH  15  23
ENDBRANCH   1  17
TORSDOF 3
