REMARK  Name = ZINC67348844
REMARK  9 active torsions:
REMARK  status: ('A' for Active; 'I' for Inactive)
REMARK    1  A    between atoms: C_1  and  C_2
REMARK    2  A    between atoms: N_8  and  C_9
REMARK    3  A    between atoms: C_12  and  C_15
REMARK    4  A    between atoms: C_15  and  C_17
REMARK    5  A    between atoms: C_15  and  N_18
REMARK    6  A    between atoms: N_21  and  C_22
REMARK    7  A    between atoms: C_25  and  C_28
REMARK    8  A    between atoms: C_28  and  S_29
REMARK    9  A    between atoms: S_29  and  C_30
REMARK                            x       y       z     vdW  Elec       q    Type
REMARK                         _______ _______ _______ _____ _____    ______ ____
ROOT
ATOM      1  C   UNL     1      -0.614   0.351   6.596  0.00  0.00    +0.102 C 
ATOM      2  C   UNL     1       0.259   1.474   7.159  0.00  0.00    +0.033 C 
ENDROOT
BRANCH   1   6
ATOM      3  C   UNL     1       0.385  -0.310   2.494  0.00  0.00    +0.038 A 
ATOM      4  C   UNL     1      -0.734   0.442   2.825  0.00  0.00    +0.024 A 
ATOM      5  C   UNL     1      -1.054   0.654   4.152  0.00  0.00    +0.007 A 
ATOM      6  C   UNL     1      -0.262   0.118   5.150  0.00  0.00    -0.027 A 
ATOM      7  C   UNL     1       0.854  -0.632   4.823  0.00  0.00    +0.007 A 
ATOM      8  C   UNL     1       1.176  -0.852   3.498  0.00  0.00    +0.024 A 
BRANCH   3  15
ATOM      9  C   UNL     1      -0.053   1.519   0.004  0.00  0.00    +0.030 C 
ATOM     10  C   UNL     1      -0.040  -0.011  -0.004  0.00  0.00    +0.097 C 
ATOM     11  C   UNL     1       0.740  -0.539  -1.223  0.00  0.00    +0.128 C 
ATOM     12  N   UNL     1       1.852  -1.296  -0.629  0.00  0.00    -0.297 N 
ATOM     13  C   UNL     1       1.761  -1.237   0.706  0.00  0.00    +0.307 C 
ATOM     14  O   UNL     1       2.556  -1.779   1.450  0.00  0.00    -0.252 OA
ATOM     15  N   UNL     1       0.712  -0.527   1.150  0.00  0.00    -0.251 N 
ATOM     16  H   UNL     1       2.542  -1.764  -1.125  0.00  0.00    +0.150 HD
ENDBRANCH   3  15
ENDBRANCH   1   6
BRANCH   1  17
ATOM     17  N   UNL     1      -0.382  -0.878   7.359  0.00  0.00    -0.293 N 
ATOM     18  C   UNL     1      -1.060  -1.100   8.503  0.00  0.00    +0.304 C 
ATOM     19  O   UNL     1      -1.865  -0.280   8.901  0.00  0.00    -0.252 OA
ATOM     20  N   UNL     1      -0.846  -2.230   9.205  0.00  0.00    -0.269 N 
ATOM     21  H   UNL     1       0.260  -1.532   7.042  0.00  0.00    +0.151 HD
ATOM     22  H   UNL     1      -0.255  -2.914   8.854  0.00  0.00    +0.156 HD
BRANCH  20  23
ATOM     23  C   UNL     1      -1.477  -2.416  10.440  0.00  0.00    +0.035 A 
ATOM     24  C   UNL     1      -0.817  -3.082  11.465  0.00  0.00    +0.023 A 
ATOM     25  C   UNL     1      -1.442  -3.264  12.683  0.00  0.00    +0.006 A 
ATOM     26  C   UNL     1      -2.724  -2.784  12.883  0.00  0.00    -0.037 A 
ATOM     27  C   UNL     1      -3.384  -2.121  11.864  0.00  0.00    +0.006 A 
ATOM     28  C   UNL     1      -2.762  -1.931  10.646  0.00  0.00    +0.023 A 
BRANCH  26  29
ATOM     29  C   UNL     1      -3.403  -2.984  14.213  0.00  0.00    +0.104 C 
BRANCH  29  30
ATOM     30  S   UNL     1      -3.033  -1.578  15.298  0.00  0.00    -0.159 S 
ATOM     31  C   UNL     1      -3.912  -1.968  16.837  0.00  0.00    +0.084 C 
ENDBRANCH  29  30
ENDBRANCH  26  29
ENDBRANCH  20  23
ENDBRANCH   1  17
TORSDOF 6
