REMARK  Name = ZINC39280179
REMARK  4 active torsions:
REMARK  status: ('A' for Active; 'I' for Inactive)
REMARK    1  A    between atoms: C_4  and  N_7
REMARK    2  A    between atoms: C_17  and  C_25
REMARK    3  A    between atoms: C_19  and  C_23
REMARK    4  A    between atoms: C_20  and  N_22
REMARK                            x       y       z     vdW  Elec       q    Type
REMARK                         _______ _______ _______ _____ _____    ______ ____
ROOT
ATOM      1  N   UNL     1       3.600  -0.631  -0.036  0.00  0.00    -0.226 NA
ATOM      2  C   UNL     1       3.792  -1.658   0.761  0.00  0.00    +0.157 C 
ATOM      3  N   UNL     1       2.906  -2.214   1.676  0.00  0.00    -0.304 N 
ATOM      4  C   UNL     1       3.049  -3.683   1.801  0.00  0.00    +0.181 C 
ATOM      5  C   UNL     1       4.553  -3.952   2.052  0.00  0.00    +0.158 C 
ATOM      6  S   UNL     1       5.253  -2.679   0.923  0.00  0.00    -0.076 S 
ATOM      7  C   UNL     1       4.979  -5.324   1.633  0.00  0.00    +0.133 C 
ATOM      8  C   UNL     1       4.342  -5.979   0.652  0.00  0.00    +0.066 C 
ATOM      9  C   UNL     1       4.760  -7.361   0.226  0.00  0.00    +0.103 C 
ATOM     10  C   UNL     1       6.156  -7.650   0.707  0.00  0.00    +0.098 C 
ATOM     11  C   UNL     1       6.704  -6.902   1.696  0.00  0.00    +0.198 C 
ATOM     12  O   UNL     1       6.024  -5.897   2.270  0.00  0.00    -0.444 OA
ATOM     13  C   UNL     1       3.220  -5.328  -0.024  0.00  0.00    +0.246 C 
ATOM     14  O   UNL     1       2.836  -5.743  -1.102  0.00  0.00    -0.270 OA
ATOM     15  N   UNL     1       2.596  -4.263   0.540  0.00  0.00    -0.292 N 
ATOM     16  H   UNL     1       1.823  -3.872   0.105  0.00  0.00    +0.151 HD
ATOM     17  H   UNL     1       2.260  -1.694   2.180  0.00  0.00    +0.150 HD
ENDROOT
BRANCH   9  18
ATOM     18  C   UNL     1       3.812  -8.373   0.815  0.00  0.00    -0.034 A 
ATOM     19  C   UNL     1       3.667  -8.468   2.187  0.00  0.00    +0.005 A 
ATOM     20  C   UNL     1       2.797  -9.396   2.728  0.00  0.00    +0.015 A 
ATOM     21  C   UNL     1       2.071 -10.230   1.896  0.00  0.00    +0.018 A 
ATOM     22  C   UNL     1       2.216 -10.134   0.524  0.00  0.00    +0.015 A 
ATOM     23  C   UNL     1       3.082  -9.202  -0.016  0.00  0.00    +0.005 A 
ATOM     24 BR   UNL     1       0.881 -11.500   2.636  0.00  0.00    -0.050 Br
ENDBRANCH   9  18
BRANCH   1  28
ATOM     25  C   UNL     1      -0.017   1.379   0.010  0.00  0.00    +0.000 A 
ATOM     26  C   UNL     1       1.168   2.094   0.002  0.00  0.00    +0.002 A 
ATOM     27  C   UNL     1       2.377   1.430  -0.013  0.00  0.00    +0.028 A 
ATOM     28  C   UNL     1       2.404   0.034  -0.021  0.00  0.00    +0.066 A 
ATOM     29  C   UNL     1       1.204  -0.681  -0.013  0.00  0.00    +0.028 A 
ATOM     30  C   UNL     1       0.002  -0.004   0.002  0.00  0.00    +0.002 A 
ENDBRANCH   1  28
BRANCH  11  31
ATOM     31  N   UNL     1       7.981  -7.178   2.119  0.00  0.00    -0.328 N 
ATOM     32  H   UNL     1       8.481  -7.902   1.710  0.00  0.00    +0.145 HD
ATOM     33  H   UNL     1       8.383  -6.649   2.826  0.00  0.00    +0.145 HD
ENDBRANCH  11  31
BRANCH  10  34
ATOM     34  C   UNL     1       6.907  -8.717   0.118  0.00  0.00    +0.101 C 
ATOM     35  N   UNL     1       7.503  -9.564  -0.349  0.00  0.00    -0.191 NA
ENDBRANCH  10  34
TORSDOF 4
