REMARK  Name = ZINC05354793
REMARK  4 active torsions:
REMARK  status: ('A' for Active; 'I' for Inactive)
REMARK    1  A    between atoms: C_1  and  C_2
REMARK    2  A    between atoms: C_2  and  C_3
REMARK    3  A    between atoms: C_2  and  C_4
REMARK    4  A    between atoms: C_2  and  C_5
REMARK                            x       y       z     vdW  Elec       q    Type
REMARK                         _______ _______ _______ _____ _____    ______ ____
ROOT
ATOM      1  C   UNL     1      -1.285  -0.041   2.567  0.00  0.00    +0.012 C 
ATOM      2  C   UNL     1      -2.070   0.837   1.591  0.00  0.00    -0.025 C 
ATOM      3  C   UNL     1      -3.083   1.681   2.366  0.00  0.00    +0.012 C 
ATOM      4  C   UNL     1      -2.808  -0.051   0.587  0.00  0.00    +0.012 C 
ENDROOT
BRANCH   2   5
ATOM      5  C   UNL     1      -1.104   1.758   0.844  0.00  0.00    +0.062 C 
ATOM      6  C   UNL     1      -0.013   1.086   0.008  0.00  0.00    +0.084 C 
ATOM      7  S   UNL     1      -1.325   1.894  -0.949  0.00  0.00    -0.155 S 
ENDBRANCH   2   5
TORSDOF 1
