REMARK  Name = ZINC09298698
REMARK  11 active torsions:
REMARK  status: ('A' for Active; 'I' for Inactive)
REMARK    1  A    between atoms: C_1  and  C_2
REMARK    2  A    between atoms: C_5  and  C_37
REMARK    3  A    between atoms: N_8  and  S_10
REMARK    4  A    between atoms: S_10  and  C_13
REMARK    5  A    between atoms: C_16  and  C_19
REMARK    6  A    between atoms: C_19  and  N_21
REMARK    7  A    between atoms: N_23  and  C_31
REMARK    8  A    between atoms: C_31  and  C_32
REMARK    9  A    between atoms: C_32  and  C_33
REMARK   10  A    between atoms: C_33  and  O_35
REMARK   11  A    between atoms: O_35  and  C_36
REMARK                            x       y       z     vdW  Elec       q    Type
REMARK                         _______ _______ _______ _____ _____    ______ ____
ROOT
ATOM      1  C   UNL     1      -2.502   1.681  -6.553  0.00  0.00    +0.269 C 
ATOM      2  O   UNL     1      -1.869   2.031  -7.534  0.00  0.00    -0.268 OA
ENDROOT
BRANCH   1   3
ATOM      3  N   UNL     1      -3.792   2.011  -6.438  0.00  0.00    -0.152 NA
ATOM      4  C   UNL     1      -4.384   2.721  -7.392  0.00  0.00    +0.167 A 
ATOM      5  N   UNL     1      -5.676   3.142  -7.452  0.00  0.00    -0.321 N 
ATOM      6  C   UNL     1      -6.115   3.882  -8.534  0.00  0.00    +0.058 A 
ATOM      7  C   UNL     1      -7.396   4.405  -8.770  0.00  0.00    +0.027 A 
ATOM      8  C   UNL     1      -7.664   5.120  -9.913  0.00  0.00    +0.002 A 
ATOM      9  C   UNL     1      -6.683   5.347 -10.864  0.00  0.00    +0.001 A 
ATOM     10  C   UNL     1      -5.411   4.843 -10.657  0.00  0.00    +0.017 A 
ATOM     11  C   UNL     1      -5.142   4.128  -9.514  0.00  0.00    +0.039 A 
ATOM     12  S   UNL     1      -3.698   3.327  -8.865  0.00  0.00    -0.052 S 
BRANCH   5  13
ATOM     13  C   UNL     1      -6.603   2.816  -6.365  0.00  0.00    +0.135 C 
BRANCH  13  14
ATOM     14  C   UNL     1      -6.560   3.921  -5.308  0.00  0.00    +0.142 C 
BRANCH  14  15
ATOM     15  C   UNL     1      -7.514   3.585  -4.191  0.00  0.00    +0.309 C 
ATOM     16  O   UNL     1      -8.161   2.566  -4.235  0.00  0.00    -0.251 OA
BRANCH  15  17
ATOM     17  O   UNL     1      -7.644   4.418  -3.146  0.00  0.00    -0.468 OA
ATOM     18  C   UNL     1      -8.580   4.030  -2.107  0.00  0.00    +0.280 C 
ENDBRANCH  15  17
ENDBRANCH  14  15
ENDBRANCH  13  14
ENDBRANCH   5  13
ENDBRANCH   1   3
BRANCH   1  22
ATOM     19  C   UNL     1      -0.609  -0.592  -3.501  0.00  0.00    +0.106 A 
ATOM     20  C   UNL     1      -1.946  -0.256  -3.381  0.00  0.00    +0.029 A 
ATOM     21  C   UNL     1      -2.564   0.487  -4.366  0.00  0.00    +0.015 A 
ATOM     22  C   UNL     1      -1.842   0.889  -5.489  0.00  0.00    +0.039 A 
ATOM     23  C   UNL     1      -0.496   0.543  -5.607  0.00  0.00    +0.015 A 
ATOM     24  C   UNL     1       0.113  -0.195  -4.613  0.00  0.00    +0.029 A 
BRANCH  19  25
ATOM     25  S   UNL     1       0.176  -1.534  -2.236  0.00  0.00    +0.061 S 
ATOM     26  O   UNL     1       1.282  -2.187  -2.843  0.00  0.00    -0.153 OA
ATOM     27  O   UNL     1      -0.853  -2.246  -1.562  0.00  0.00    -0.153 OA
BRANCH  25  33
ATOM     28  C   UNL     1      -0.734   2.022   1.270  0.00  0.00    +0.009 C 
ATOM     29  C   UNL     1      -0.019   1.528   0.010  0.00  0.00    +0.002 C 
ATOM     30  C   UNL     1       1.419   2.053  -0.001  0.00  0.00    +0.009 C 
ATOM     31  C   UNL     1       2.124   1.587  -1.276  0.00  0.00    +0.002 C 
ATOM     32  C   UNL     1       2.170   0.056  -1.299  0.00  0.00    +0.112 C 
ATOM     33  N   UNL     1       0.803  -0.460  -1.143  0.00  0.00    -0.176 NA
ATOM     34  C   UNL     1       0.002  -0.004   0.002  0.00  0.00    +0.112 C 
ATOM     35  C   UNL     1       3.551   2.140  -1.301  0.00  0.00    +0.009 C 
ENDBRANCH  25  33
ENDBRANCH  19  25
ENDBRANCH   1  22
TORSDOF 8
