REMARK  Name = ZINC08567050
REMARK  6 active torsions:
REMARK  status: ('A' for Active; 'I' for Inactive)
REMARK    1  A    between atoms: C_1  and  C_2
REMARK    2  A    between atoms: C_2  and  C_3
REMARK    3  A    between atoms: C_2  and  C_4
REMARK    4  A    between atoms: C_6  and  C_10
REMARK    5  A    between atoms: N_12  and  N_13
REMARK    6  A    between atoms: C_14  and  C_15
REMARK                            x       y       z     vdW  Elec       q    Type
REMARK                         _______ _______ _______ _____ _____    ______ ____
ROOT
ATOM      1  C   UNL     1      -4.187  -2.753  -0.759  0.00  0.00    +0.283 C 
ATOM      2  O   UNL     1      -3.797  -3.666  -1.460  0.00  0.00    -0.267 OA
ATOM      3  N   UNL     1      -5.483  -2.691  -0.392  0.00  0.00    -0.202 N 
ATOM      4  H   UNL     1      -5.794  -1.962   0.168  0.00  0.00    +0.178 HD
ENDROOT
BRANCH   1   7
ATOM      5  C   UNL     1      -1.412  -0.526   0.013  0.00  0.00    +0.039 A 
ATOM      6  C   UNL     1      -1.861  -1.641  -0.610  0.00  0.00    +0.057 A 
ATOM      7  C   UNL     1      -3.242  -1.711  -0.309  0.00  0.00    +0.149 A 
ATOM      8  N   UNL     1      -3.524  -0.670   0.449  0.00  0.00    -0.169 NA
ATOM      9  N   UNL     1      -2.465   0.029   0.650  0.00  0.00    -0.281 N 
ATOM     10  H   UNL     1      -2.429   0.840   1.181  0.00  0.00    +0.189 HD
BRANCH   5  12
ATOM     11  C   UNL     1      -0.019   1.526   0.010  0.00  0.00    +0.014 C 
ATOM     12  C   UNL     1       0.002  -0.004   0.002  0.00  0.00    +0.031 C 
ATOM     13  C   UNL     1       0.742  -0.511   1.242  0.00  0.00    +0.014 C 
ENDBRANCH   5  12
ENDBRANCH   1   7
BRANCH   3  14
ATOM     14  N   UNL     1      -6.379  -3.679  -0.819  0.00  0.00    -0.187 NA
ATOM     15  C   UNL     1      -7.627  -3.620  -0.466  0.00  0.00    +0.138 C 
BRANCH  15  16
ATOM     16  C   UNL     1      -8.571  -4.660  -0.915  0.00  0.00    -0.005 A 
ATOM     17  C   UNL     1      -8.124  -5.713  -1.716  0.00  0.00    +0.010 A 
ATOM     18  C   UNL     1      -9.012  -6.683  -2.133  0.00  0.00    +0.016 A 
ATOM     19  C   UNL     1     -10.344  -6.613  -1.759  0.00  0.00    +0.018 A 
ATOM     20  C   UNL     1     -10.793  -5.571  -0.965  0.00  0.00    +0.016 A 
ATOM     21  C   UNL     1      -9.914  -4.599  -0.537  0.00  0.00    +0.010 A 
ATOM     22 BR   UNL     1     -11.554  -7.947  -2.336  0.00  0.00    -0.050 Br
ENDBRANCH  15  16
ENDBRANCH   3  14
TORSDOF 4
