REMARK  Name = ZINC12002597
REMARK  11 active torsions:
REMARK  status: ('A' for Active; 'I' for Inactive)
REMARK    1  A    between atoms: C_1  and  C_2
REMARK    2  A    between atoms: C_3  and  C_4
REMARK    3  A    between atoms: C_4  and  N_5
REMARK    4  A    between atoms: C_8  and  C_12
REMARK    5  A    between atoms: C_8  and  C_20
REMARK    6  A    between atoms: C_12  and  C_13
REMARK    7  A    between atoms: C_13  and  C_14
REMARK    8  A    between atoms: C_25  and  C_26
REMARK    9  A    between atoms: C_25  and  N_69
REMARK   10  A    between atoms: C_26  and  C_28
REMARK   11  A    between atoms: C_26  and  C_29
REMARK                            x       y       z     vdW  Elec       q    Type
REMARK                         _______ _______ _______ _____ _____    ______ ____
ROOT
ATOM      1  N   UNL     1      -9.506  -1.620  -2.992  0.00  0.00    -0.212 N 
ATOM      2  C   UNL     1      -9.513  -0.481  -2.272  0.00  0.00    +0.248 C 
ATOM      3  O   UNL     1     -10.097   0.548  -2.537  0.00  0.00    -0.273 OA
ATOM      4  C   UNL     1      -8.642  -0.755  -1.063  0.00  0.00    +0.115 C 
ATOM      5  N   UNL     1      -8.203  -2.147  -1.260  0.00  0.00    -0.285 N 
ATOM      6  C   UNL     1      -8.759  -2.566  -2.412  0.00  0.00    +0.310 C 
ATOM      7  O   UNL     1      -8.599  -3.679  -2.873  0.00  0.00    -0.252 OA
ATOM      8  H   UNL     1      -7.627  -2.662  -0.674  0.00  0.00    +0.151 HD
ENDROOT
BRANCH   4   9
ATOM      9  C   UNL     1      -7.439   0.190  -1.041  0.00  0.00    +0.018 C 
ATOM     10  C   UNL     1      -6.676   0.078  -2.365  0.00  0.00    -0.013 C 
ATOM     11  C   UNL     1      -5.442   0.981  -2.314  0.00  0.00    -0.078 C 
ATOM     12  C   UNL     1      -5.276   0.717   0.089  0.00  0.00    -0.078 C 
ATOM     13  C   UNL     1      -6.505  -0.194   0.110  0.00  0.00    -0.013 C 
ATOM     14  N   UNL     1      -4.573   0.544  -1.200  0.00  0.00    +0.380 N 
ATOM     15  H   UNL     1      -4.346  -0.449  -1.325  0.00  0.00    -0.082 HD
BRANCH  14  16
ATOM     16  C   UNL     1      -3.320   1.327  -1.201  0.00  0.00    -0.071 C 
BRANCH  16  17
ATOM     17  C   UNL     1      -2.490   0.939   0.024  0.00  0.00    -0.001 C 
ATOM     18  C   UNL     1      -1.202   1.766   0.050  0.00  0.00    +0.010 C 
BRANCH  17  19
ATOM     19  C   UNL     1      -2.145  -0.526  -0.046  0.00  0.00    -0.046 A 
ATOM     20  C   UNL     1      -2.560  -1.383   0.957  0.00  0.00    +0.004 A 
ATOM     21  C   UNL     1      -2.248  -2.728   0.889  0.00  0.00    +0.000 A 
ATOM     22  C   UNL     1      -1.517  -3.215  -0.178  0.00  0.00    +0.000 A 
ATOM     23  C   UNL     1      -1.098  -2.358  -1.177  0.00  0.00    +0.000 A 
ATOM     24  C   UNL     1      -1.409  -1.013  -1.110  0.00  0.00    +0.004 A 
ENDBRANCH  17  19
ENDBRANCH  16  17
ENDBRANCH  14  16
ENDBRANCH   4   9
BRANCH   1  25
ATOM     25  C   UNL     1     -10.228  -1.801  -4.254  0.00  0.00    +0.206 C 
BRANCH  25  28
ATOM     26  C   UNL     1     -14.013  -3.227  -3.478  0.00  0.00    +0.106 C 
ATOM     27  C   UNL     1     -12.660  -2.717  -3.756  0.00  0.00    -0.104 C 
ATOM     28  C   UNL     1     -11.581  -2.311  -3.977  0.00  0.00    -0.083 C 
ENDBRANCH  25  28
ENDBRANCH   1  25
BRANCH   4  29
ATOM     29  C   UNL     1      -9.451  -0.623   0.229  0.00  0.00    +0.040 C 
BRANCH  29  30
ATOM     30  C   UNL     1     -10.573  -1.664   0.236  0.00  0.00    +0.038 C 
BRANCH  30  31
ATOM     31  C   UNL     1     -11.370  -1.534   1.508  0.00  0.00    -0.047 A 
ATOM     32  C   UNL     1     -11.009  -2.262   2.627  0.00  0.00    +0.003 A 
ATOM     33  C   UNL     1     -11.737  -2.139   3.796  0.00  0.00    +0.000 A 
ATOM     34  C   UNL     1     -12.833  -1.297   3.842  0.00  0.00    +0.000 A 
ATOM     35  C   UNL     1     -13.196  -0.573   2.722  0.00  0.00    +0.000 A 
ATOM     36  C   UNL     1     -12.465  -0.692   1.555  0.00  0.00    +0.003 A 
ENDBRANCH  30  31
ENDBRANCH  29  30
ENDBRANCH   4  29
TORSDOF 9
