REMARK  Name = ZINC35711809
REMARK  12 active torsions:
REMARK  status: ('A' for Active; 'I' for Inactive)
REMARK    1  A    between atoms: C_1  and  C_2
REMARK    2  A    between atoms: C_2  and  C_3
REMARK    3  A    between atoms: C_3  and  N_4
REMARK    4  A    between atoms: C_5  and  C_36
REMARK    5  A    between atoms: C_6  and  C_30
REMARK    6  A    between atoms: C_7  and  C_12
REMARK    7  A    between atoms: C_15  and  N_18
REMARK    8  A    between atoms: N_21  and  C_22
REMARK    9  A    between atoms: C_30  and  O_32
REMARK   10  A    between atoms: O_32  and  C_33
REMARK   11  A    between atoms: C_33  and  C_34
REMARK   12  A    between atoms: C_33  and  C_35
REMARK                            x       y       z     vdW  Elec       q    Type
REMARK                         _______ _______ _______ _____ _____    ______ ____
ROOT
ATOM      1  C   UNL     1       0.312  -5.462  -0.269  0.00  0.00    -0.022 A 
ATOM      2  C   UNL     1      -0.474  -4.936   0.740  0.00  0.00    +0.007 A 
ATOM      3  C   UNL     1      -0.848  -5.727   1.808  0.00  0.00    +0.024 A 
ATOM      4  C   UNL     1      -0.435  -7.051   1.869  0.00  0.00    +0.035 A 
ATOM      5  C   UNL     1       0.354  -7.577   0.853  0.00  0.00    +0.024 A 
ATOM      6  C   UNL     1       0.721  -6.782  -0.215  0.00  0.00    +0.007 A 
ENDROOT
BRANCH   1  10
ATOM      7  N   UNL     1       0.603  -1.835  -1.530  0.00  0.00    -0.259 N 
ATOM      8  C   UNL     1       1.758  -2.402  -1.072  0.00  0.00    +0.024 C 
ATOM      9  C   UNL     1       1.892  -3.744  -0.995  0.00  0.00    +0.078 C 
ATOM     10  C   UNL     1       0.719  -4.596  -1.434  0.00  0.00    +0.143 C 
ATOM     11  N   UNL     1      -0.479  -3.887  -1.912  0.00  0.00    -0.288 N 
ATOM     12  C   UNL     1      -0.464  -2.539  -1.926  0.00  0.00    +0.307 C 
ATOM     13  O   UNL     1      -1.450  -1.944  -2.315  0.00  0.00    -0.252 OA
ATOM     14  C   UNL     1       2.900  -1.517  -0.645  0.00  0.00    +0.061 C 
ATOM     15  H   UNL     1      -1.262  -4.378  -2.207  0.00  0.00    +0.151 HD
BRANCH   9  16
ATOM     16  C   UNL     1       3.088  -4.333  -0.521  0.00  0.00    +0.339 C 
ATOM     17  O   UNL     1       4.017  -3.628  -0.174  0.00  0.00    -0.245 OA
BRANCH  16  18
ATOM     18  O   UNL     1       3.197  -5.676  -0.453  0.00  0.00    -0.459 OA
BRANCH  18  19
ATOM     19  C   UNL     1       4.433  -6.202   0.035  0.00  0.00    +0.171 C 
ATOM     20  C   UNL     1       4.177  -7.539   0.734  0.00  0.00    +0.052 C 
ATOM     21  C   UNL     1       5.395  -6.415  -1.136  0.00  0.00    +0.052 C 
ENDBRANCH  18  19
ENDBRANCH  16  18
ENDBRANCH   9  16
BRANCH   7  22
ATOM     22  C   UNL     1       0.527  -0.373  -1.587  0.00  0.00    +0.114 C 
BRANCH  22  24
ATOM     23  C   UNL     1       1.075   1.647  -2.951  0.00  0.00    +0.005 C 
ATOM     24  C   UNL     1       1.155   0.121  -2.892  0.00  0.00    +0.016 C 
ENDBRANCH  22  24
ENDBRANCH   7  22
ENDBRANCH   1  10
BRANCH   4  25
ATOM     25  N   UNL     1      -0.813  -7.855   2.950  0.00  0.00    -0.269 N 
ATOM     26  C   UNL     1      -2.025  -7.696   3.518  0.00  0.00    +0.308 C 
ATOM     27  O   UNL     1      -2.759  -6.803   3.141  0.00  0.00    -0.252 OA
ATOM     28  N   UNL     1      -2.422  -8.526   4.502  0.00  0.00    -0.268 N 
ATOM     29  H   UNL     1      -0.202  -8.527   3.292  0.00  0.00    +0.156 HD
ATOM     30  H   UNL     1      -1.807  -9.185   4.859  0.00  0.00    +0.156 HD
BRANCH  28  31
ATOM     31  C   UNL     1      -3.725  -8.437   5.009  0.00  0.00    +0.053 A 
ATOM     32  C   UNL     1      -4.776  -8.091   4.170  0.00  0.00    +0.026 A 
ATOM     33  C   UNL     1      -6.059  -8.005   4.673  0.00  0.00    +0.022 A 
ATOM     34  C   UNL     1      -6.299  -8.262   6.011  0.00  0.00    +0.042 A 
ATOM     35  C   UNL     1      -5.254  -8.606   6.850  0.00  0.00    +0.041 A 
ATOM     36  C   UNL     1      -3.969  -8.701   6.351  0.00  0.00    +0.064 A 
ATOM     37 CL   UNL     1      -2.659  -9.141   7.402  0.00  0.00    -0.082 Cl
ATOM     38 CL   UNL     1      -7.914  -8.151   6.639  0.00  0.00    -0.083 Cl
ENDBRANCH  28  31
ENDBRANCH   4  25
TORSDOF 8
