REMARK  Name = ZINC08017883
REMARK  2 active torsions:
REMARK  status: ('A' for Active; 'I' for Inactive)
REMARK    1  A    between atoms: C_4  and  N_7
REMARK    2  A    between atoms: C_8  and  C_10
REMARK                            x       y       z     vdW  Elec       q    Type
REMARK                         _______ _______ _______ _____ _____    ______ ____
ROOT
ATOM      1  C   UNL     1       2.551   0.005  -0.692  0.00  0.00    +0.122 C 
ATOM      2  C   UNL     1       1.350  -0.549   0.076  0.00  0.00    +0.114 C 
ATOM      3  C   UNL     1       0.171   0.372  -0.093  0.00  0.00    +0.219 C 
ATOM      4  O   UNL     1      -0.944  -0.093  -0.201  0.00  0.00    -0.275 OA
ATOM      5  N   UNL     1       0.340   1.705  -0.128  0.00  0.00    -0.270 N 
ATOM      6  C   UNL     1       1.608   2.260  -0.131  0.00  0.00    +0.138 A 
ATOM      7  C   UNL     1       2.715   1.470  -0.385  0.00  0.00    +0.069 A 
ATOM      8  C   UNL     1       3.987   2.050  -0.355  0.00  0.00    +0.258 A 
ATOM      9  O   UNL     1       4.983   1.377  -0.570  0.00  0.00    -0.267 OA
ATOM     10  N   UNL     1       4.091   3.369  -0.084  0.00  0.00    -0.295 N 
ATOM     11  H   UNL     1       4.991   3.802  -0.050  0.00  0.00    +0.172 HD
ATOM     12  C   UNL     1       2.971   4.108   0.141  0.00  0.00    +0.200 A 
ATOM     13  N   UNL     1       1.772   3.565   0.116  0.00  0.00    -0.200 NA
ATOM     14  N   UNL     1       3.094   5.447   0.401  0.00  0.00    -0.296 N 
ATOM     15  C   UNL     1       1.790   6.042   0.733  0.00  0.00    +0.113 C 
ATOM     16  C   UNL     1       2.029   7.416   1.360  0.00  0.00    +0.054 C 
ATOM     17  C   UNL     1       2.958   8.223   0.491  0.00  0.00    -0.041 A 
ATOM     18  C   UNL     1       3.021   9.595   0.687  0.00  0.00    +0.004 A 
ATOM     19  C   UNL     1       3.862  10.371  -0.085  0.00  0.00    +0.000 A 
ATOM     20  C   UNL     1       4.646   9.779  -1.058  0.00  0.00    +0.000 A 
ATOM     21  C   UNL     1       4.583   8.414  -1.254  0.00  0.00    +0.005 A 
ATOM     22  C   UNL     1       3.737   7.632  -0.480  0.00  0.00    -0.027 A 
ATOM     23  C   UNL     1       3.697   6.149  -0.737  0.00  0.00    +0.143 C 
ATOM     24  H   UNL     1      -0.436   2.286  -0.156  0.00  0.00    +0.156 HD
ENDROOT
BRANCH   1  26
ATOM     25  N   UNL     1       2.158  -1.412  -2.680  0.00  0.00    -0.285 N 
ATOM     26  C   UNL     1       2.328  -0.176  -2.171  0.00  0.00    +0.225 C 
ATOM     27  O   UNL     1       2.302   0.791  -2.903  0.00  0.00    -0.275 OA
ATOM     28  H   UNL     1       2.254  -2.189  -2.109  0.00  0.00    +0.155 HD
BRANCH  25  32
ATOM     29  C   UNL     1       1.214  -1.892  -6.710  0.00  0.00    +0.000 A 
ATOM     30  C   UNL     1       1.993  -2.836  -6.066  0.00  0.00    +0.002 A 
ATOM     31  C   UNL     1       2.308  -2.679  -4.731  0.00  0.00    +0.023 A 
ATOM     32  C   UNL     1       1.841  -1.573  -4.034  0.00  0.00    +0.033 A 
ATOM     33  C   UNL     1       1.054  -0.630  -4.681  0.00  0.00    +0.023 A 
ATOM     34  C   UNL     1       0.747  -0.789  -6.019  0.00  0.00    +0.002 A 
ENDBRANCH  25  32
ENDBRANCH   1  26
TORSDOF 2
