REMARK  Name = ZINC35744354
REMARK  11 active torsions:
REMARK  status: ('A' for Active; 'I' for Inactive)
REMARK    1  A    between atoms: C_4  and  C_7
REMARK    2  A    between atoms: C_7  and  O_8
REMARK    3  A    between atoms: O_8  and  C_9
REMARK    4  A    between atoms: C_9  and  C_10
REMARK    5  A    between atoms: C_10  and  C_12
REMARK    6  A    between atoms: C_10  and  O_35
REMARK    7  A    between atoms: C_12  and  N_13
REMARK    8  A    between atoms: N_13  and  C_14
REMARK    9  A    between atoms: N_13  and  C_20
REMARK   10  A    between atoms: C_14  and  C_15
REMARK   11  A    between atoms: C_20  and  C_21
REMARK                            x       y       z     vdW  Elec       q    Type
REMARK                         _______ _______ _______ _____ _____    ______ ____
ROOT
ATOM      1  N   UNL     1       7.065  -2.706   4.184  0.00  0.00    +0.391 N 
ATOM      2  H   UNL     1       6.917  -1.837   4.676  0.00  0.00    -0.080 HD
ENDROOT
BRANCH   1   3
ATOM      3  C   UNL     1       7.018  -2.463   2.736  0.00  0.00    -0.044 C 
BRANCH   3   4
ATOM      4  C   UNL     1       5.699  -1.776   2.376  0.00  0.00    +0.124 C 
BRANCH   4   5
ATOM      5  O   UNL     1       5.657  -0.481   2.978  0.00  0.00    -0.391 OA
ATOM      6  H   UNL     1       6.372   0.107   2.696  0.00  0.00    +0.210 HD
ENDBRANCH   4   5
BRANCH   4   7
ATOM      7  C   UNL     1       5.595  -1.636   0.856  0.00  0.00    +0.189 C 
BRANCH   7   8
ATOM      8  O   UNL     1       4.315  -1.101   0.514  0.00  0.00    -0.373 OA
BRANCH   8   9
ATOM      9  C   UNL     1       4.114  -0.929  -0.890  0.00  0.00    +0.195 C 
BRANCH   9  13
ATOM     10  C   UNL     1       0.217   0.676  -1.586  0.00  0.00    +0.000 A 
ATOM     11  C   UNL     1       1.291   1.526  -1.401  0.00  0.00    +0.000 A 
ATOM     12  C   UNL     1       2.552   1.006  -1.175  0.00  0.00    +0.006 A 
ATOM     13  C   UNL     1       2.739  -0.363  -1.135  0.00  0.00    -0.022 A 
ATOM     14  C   UNL     1       1.664  -1.213  -1.320  0.00  0.00    +0.006 A 
ATOM     15  C   UNL     1       0.403  -0.693  -1.546  0.00  0.00    +0.000 A 
ENDBRANCH   9  13
ENDBRANCH   8   9
ENDBRANCH   7   8
ENDBRANCH   4   7
ENDBRANCH   3   4
ENDBRANCH   1   3
BRANCH   1  16
ATOM     16  C   UNL     1       6.015  -3.664   4.554  0.00  0.00    -0.002 C 
BRANCH  16  17
ATOM     17  C   UNL     1       5.978  -3.814   6.053  0.00  0.00    +0.089 A 
ATOM     18  C   UNL     1       5.320  -3.011   6.908  0.00  0.00    +0.042 A 
ATOM     19  C   UNL     1       5.556  -3.516   8.208  0.00  0.00    +0.041 A 
ATOM     20  C   UNL     1       6.344  -4.597   8.069  0.00  0.00    +0.195 A 
ATOM     21  O   UNL     1       6.591  -4.776   6.761  0.00  0.00    -0.470 OA
ENDBRANCH  16  17
ENDBRANCH   1  16
BRANCH   1  22
ATOM     22  C   UNL     1       8.379  -3.256   4.546  0.00  0.00    -0.003 C 
BRANCH  22  23
ATOM     23  C   UNL     1       9.439  -2.208   4.326  0.00  0.00    +0.094 A 
ATOM     24  N   UNL     1      10.747  -2.542   4.478  0.00  0.00    -0.312 N 
ATOM     25  H   UNL     1      10.980  -3.450   4.726  0.00  0.00    +0.170 HD
ATOM     26  C   UNL     1      11.727  -1.637   4.292  0.00  0.00    +0.260 A 
ATOM     27  O   UNL     1      12.896  -1.951   4.432  0.00  0.00    -0.267 OA
ATOM     28  C   UNL     1      11.369  -0.299   3.925  0.00  0.00    +0.075 A 
ATOM     29  C   UNL     1      12.262   0.841   3.671  0.00  0.00    -0.023 A 
ATOM     30  C   UNL     1      11.680   2.006   3.340  0.00  0.00    -0.004 A 
ATOM     31  S   UNL     1       9.935   1.665   3.339  0.00  0.00    -0.073 S 
ATOM     32  C   UNL     1       9.997  -0.049   3.790  0.00  0.00    +0.116 A 
ATOM     33  N   UNL     1       9.084  -0.998   3.986  0.00  0.00    -0.229 NA
ATOM     34  C   UNL     1      12.688   3.100   3.110  0.00  0.00    +0.043 C 
ATOM     35  C   UNL     1      13.985   2.575   3.764  0.00  0.00    +0.010 C 
ATOM     36  C   UNL     1      13.779   1.049   3.688  0.00  0.00    +0.037 C 
ENDBRANCH  22  23
ENDBRANCH   1  22
TORSDOF 11
