REMARK  Name = ZINC37390088
REMARK  2 active torsions:
REMARK  status: ('A' for Active; 'I' for Inactive)
REMARK    1  A    between atoms: C_1  and  C_2
REMARK    2  A    between atoms: C_5  and  C_7
REMARK                            x       y       z     vdW  Elec       q    Type
REMARK                         _______ _______ _______ _____ _____    ______ ____
ROOT
ATOM      1  C   UNL     1      -0.018   1.503   0.010  0.00  0.00    +0.051 C 
ATOM      2  C   UNL     1       0.002  -0.004   0.002  0.00  0.00    -0.013 A 
ATOM      3  C   UNL     1      -1.039  -0.872   0.002  0.00  0.00    +0.011 A 
ATOM      4  C   UNL     1      -0.780  -2.230  -0.007  0.00  0.00    +0.012 A 
ATOM      5  C   UNL     1       0.507  -2.653  -0.016  0.00  0.00    +0.005 A 
ATOM      6  S   UNL     1       1.404  -1.109  -0.018  0.00  0.00    -0.097 S 
ENDROOT
BRANCH   5   7
ATOM      7  C   UNL     1       1.043  -4.062  -0.027  0.00  0.00    +0.151 C 
ATOM      8 CL   UNL     1       1.249  -4.613  -1.731  0.00  0.00    -0.120 Cl
ENDBRANCH   5   7
TORSDOF 1
