REMARK  Name = ZINC06409844
REMARK  9 active torsions:
REMARK  status: ('A' for Active; 'I' for Inactive)
REMARK    1  A    between atoms: C_1  and  C_2
REMARK    2  A    between atoms: C_7  and  C_14
REMARK    3  A    between atoms: C_14  and  C_16
REMARK    4  A    between atoms: C_14  and  N_70
REMARK    5  A    between atoms: N_20  and  C_21
REMARK    6  A    between atoms: C_27  and  C_28
REMARK    7  A    between atoms: C_27  and  N_70
REMARK    8  A    between atoms: C_34  and  C_35
REMARK    9  A    between atoms: C_34  and  N_70
REMARK                            x       y       z     vdW  Elec       q    Type
REMARK                         _______ _______ _______ _____ _____    ______ ____
ROOT
ATOM      1  C   UNL     1      -2.248   1.218  -0.207  0.00  0.00    +0.040 C 
ENDROOT
BRANCH   1   8
ATOM      2  C   UNL     1      -2.150  -5.734   3.703  0.00  0.00    +0.044 C 
ATOM      3  C   UNL     1      -2.271  -4.540   2.792  0.00  0.00    -0.048 A 
ATOM      4  C   UNL     1      -2.851  -4.688   1.539  0.00  0.00    +0.004 A 
ATOM      5  C   UNL     1      -2.970  -3.619   0.697  0.00  0.00    +0.010 A 
ATOM      6  C   UNL     1      -2.505  -2.363   1.102  0.00  0.00    -0.001 A 
ATOM      7  C   UNL     1      -2.622  -1.194   0.227  0.00  0.00    +0.017 A 
ATOM      8  C   UNL     1      -2.148  -0.004   0.671  0.00  0.00    +0.011 A 
ATOM      9  C   UNL     1      -1.568   0.098   1.953  0.00  0.00    +0.251 A 
ATOM     10  O   UNL     1      -1.152   1.178   2.333  0.00  0.00    -0.268 OA
ATOM     11  N   UNL     1      -1.461  -0.969   2.765  0.00  0.00    -0.322 N 
ATOM     12  H   UNL     1      -1.056  -0.864   3.640  0.00  0.00    +0.169 HD
ATOM     13  C   UNL     1      -1.918  -2.208   2.371  0.00  0.00    +0.049 A 
ATOM     14  C   UNL     1      -1.806  -3.312   3.211  0.00  0.00    +0.029 A 
ENDBRANCH   1   8
BRANCH   1  15
ATOM     15  C   UNL     1      -2.979   2.309   0.533  0.00  0.00    +0.143 A 
ATOM     16  N   UNL     1      -2.459   3.169   1.373  0.00  0.00    -0.115 NA
ATOM     17  N   UNL     1      -3.404   3.938   1.793  0.00  0.00    -0.023 NA
ATOM     18  N   UNL     1      -4.514   3.590   1.241  0.00  0.00    -0.044 NA
ATOM     19  N   UNL     1      -4.293   2.593   0.453  0.00  0.00    -0.227 N 
BRANCH  19  20
ATOM     20  C   UNL     1      -5.285   1.897  -0.370  0.00  0.00    +0.111 C 
ATOM     21  C   UNL     1      -5.896   2.880  -1.371  0.00  0.00    +0.027 C 
ATOM     22  C   UNL     1      -6.933   2.154  -2.231  0.00  0.00    +0.002 C 
ATOM     23  C   UNL     1      -8.035   1.589  -1.333  0.00  0.00    +0.000 C 
ATOM     24  C   UNL     1      -7.424   0.607  -0.332  0.00  0.00    +0.002 C 
ATOM     25  C   UNL     1      -6.388   1.333   0.528  0.00  0.00    +0.027 C 
ENDBRANCH  19  20
ENDBRANCH   1  15
BRANCH   1  26
ATOM     26  N   UNL     1      -0.887   1.693  -0.532  0.00  0.00    +0.395 N 
ATOM     27  H   UNL     1      -0.467   2.103   0.310  0.00  0.00    -0.079 HD
BRANCH  26  28
ATOM     28  C   UNL     1      -0.952   2.726  -1.587  0.00  0.00    -0.041 C 
BRANCH  28  29
ATOM     29  C   UNL     1      -1.423   4.018  -0.971  0.00  0.00    -0.064 A 
ATOM     30  C   UNL     1      -2.755   4.378  -1.054  0.00  0.00    +0.002 A 
ATOM     31  C   UNL     1      -3.188   5.561  -0.484  0.00  0.00    +0.000 A 
ATOM     32  C   UNL     1      -2.287   6.388   0.159  0.00  0.00    +0.000 A 
ATOM     33  C   UNL     1      -0.954   6.031   0.237  0.00  0.00    +0.000 A 
ATOM     34  C   UNL     1      -0.522   4.846  -0.328  0.00  0.00    +0.002 A 
ENDBRANCH  28  29
ENDBRANCH  26  28
BRANCH  26  35
ATOM     35  C   UNL     1      -0.051   0.561  -0.984  0.00  0.00    -0.034 C 
BRANCH  35  36
ATOM     36  C   UNL     1       0.545  -0.109   0.228  0.00  0.00    -0.027 A 
ATOM     37  C   UNL     1       0.410  -1.391   0.647  0.00  0.00    +0.009 A 
ATOM     38  C   UNL     1       1.057  -1.790   1.802  0.00  0.00    +0.008 A 
ATOM     39  C   UNL     1       1.808  -0.887   2.480  0.00  0.00    +0.045 A 
ATOM     40  S   UNL     1       1.619   0.578   1.478  0.00  0.00    -0.103 S 
ENDBRANCH  35  36
ENDBRANCH  26  35
ENDBRANCH   1  26
TORSDOF 8
