REMARK  Name = ZINC39668650
REMARK  10 active torsions:
REMARK  status: ('A' for Active; 'I' for Inactive)
REMARK    1  A    between atoms: C_1  and  C_2
REMARK    2  A    between atoms: C_2  and  C_3
REMARK    3  A    between atoms: C_3  and  C_5
REMARK    4  A    between atoms: C_3  and  C_11
REMARK    5  A    between atoms: C_15  and  C_24
REMARK    6  A    between atoms: N_26  and  C_27
REMARK    7  A    between atoms: C_27  and  C_28
REMARK    8  A    between atoms: C_28  and  C_30
REMARK    9  A    between atoms: C_28  and  O_31
REMARK   10  A    between atoms: O_31  and  C_32
REMARK                            x       y       z     vdW  Elec       q    Type
REMARK                         _______ _______ _______ _____ _____    ______ ____
ROOT
ATOM      1  C   UNL     1      -1.411  -2.052   0.121  0.00  0.00    +0.223 C 
ATOM      2  O   UNL     1      -1.915  -2.728  -0.750  0.00  0.00    -0.275 OA
ATOM      3  N   UNL     1      -0.845  -2.645   1.191  0.00  0.00    -0.300 N 
ATOM      4  C   UNL     1      -0.191  -1.993   2.350  0.00  0.00    +0.121 C 
ATOM      5  C   UNL     1      -0.630  -2.834   3.570  0.00  0.00    +0.100 C 
ATOM      6  C   UNL     1      -0.985  -4.213   2.988  0.00  0.00    -0.004 C 
ATOM      7  C   UNL     1      -0.741  -4.096   1.477  0.00  0.00    +0.115 C 
ATOM      8  C   UNL     1      -2.451  -4.539   3.257  0.00  0.00    -0.010 C 
ATOM      9  C   UNL     1      -2.764  -5.938   2.720  0.00  0.00    -0.082 C 
ATOM     10  N   UNL     1      -1.895  -6.923   3.377  0.00  0.00    +0.379 N 
ATOM     11  C   UNL     1      -0.492  -6.657   3.038  0.00  0.00    -0.082 C 
ATOM     12  C   UNL     1      -0.083  -5.288   3.588  0.00  0.00    -0.010 C 
ATOM     13  H   UNL     1      -2.016  -6.861   4.377  0.00  0.00    -0.086 HD
ATOM     14  H   UNL     1      -2.145  -7.850   3.067  0.00  0.00    -0.086 HD
ENDROOT
BRANCH   5  15
ATOM     15  C   UNL     1      -1.836  -2.214   4.228  0.00  0.00    +0.218 C 
ATOM     16  O   UNL     1      -2.584  -1.511   3.583  0.00  0.00    -0.275 OA
ATOM     17  N   UNL     1      -2.082  -2.441   5.533  0.00  0.00    -0.312 N 
ATOM     18  H   UNL     1      -1.483  -3.003   6.049  0.00  0.00    +0.149 HD
BRANCH  17  19
ATOM     19  C   UNL     1      -3.254  -1.838   6.173  0.00  0.00    +0.148 C 
BRANCH  19  20
ATOM     20  C   UNL     1      -3.300  -2.251   7.646  0.00  0.00    +0.187 C 
ATOM     21  C   UNL     1      -4.524  -1.621   8.314  0.00  0.00    +0.053 C 
BRANCH  20  22
ATOM     22  O   UNL     1      -3.386  -3.674   7.739  0.00  0.00    -0.486 OA
BRANCH  22  23
ATOM     23  C   UNL     1      -2.922  -4.247   8.881  0.00  0.00    +0.139 A 
ATOM     24  C   UNL     1      -2.503  -3.456   9.947  0.00  0.00    +0.049 A 
ATOM     25  C   UNL     1      -2.039  -4.086  11.091  0.00  0.00    +0.023 A 
ATOM     26  C   UNL     1      -2.008  -5.467  11.135  0.00  0.00    +0.111 A 
ATOM     27  N   UNL     1      -2.413  -6.187  10.108  0.00  0.00    -0.260 NA
ATOM     28  C   UNL     1      -2.867  -5.627   9.004  0.00  0.00    +0.156 A 
ENDBRANCH  22  23
ENDBRANCH  20  22
ENDBRANCH  19  20
ENDBRANCH  17  19
ENDBRANCH   5  15
BRANCH   1  29
ATOM     29  C   UNL     1      -1.418  -0.549   0.008  0.00  0.00    +0.105 C 
BRANCH  29  30
ATOM     30  C   UNL     1      -2.106  -0.145  -1.270  0.00  0.00    -0.036 A 
ATOM     31  C   UNL     1      -1.610  -0.574  -2.487  0.00  0.00    +0.004 A 
ATOM     32  C   UNL     1      -2.241  -0.202  -3.660  0.00  0.00    +0.000 A 
ATOM     33  C   UNL     1      -3.368   0.597  -3.615  0.00  0.00    +0.000 A 
ATOM     34  C   UNL     1      -3.864   1.026  -2.398  0.00  0.00    +0.000 A 
ATOM     35  C   UNL     1      -3.235   0.651  -1.225  0.00  0.00    +0.004 A 
ENDBRANCH  29  30
BRANCH  29  37
ATOM     36  C   UNL     1       0.015   1.498   0.009  0.00  0.00    +0.005 C 
ATOM     37  C   UNL     1       0.022  -0.032  -0.002  0.00  0.00    +0.014 C 
ENDBRANCH  29  37
ENDBRANCH   1  29
TORSDOF 8
