REMARK  Name = ZINC64985290
REMARK  7 active torsions:
REMARK  status: ('A' for Active; 'I' for Inactive)
REMARK    1  A    between atoms: C_1  and  O_2
REMARK    2  A    between atoms: O_2  and  C_3
REMARK    3  A    between atoms: C_3  and  C_5
REMARK    4  A    between atoms: C_10  and  N_11
REMARK    5  A    between atoms: C_12  and  C_14
REMARK    6  A    between atoms: N_17  and  S_25
REMARK    7  A    between atoms: S_25  and  C_28
REMARK                            x       y       z     vdW  Elec       q    Type
REMARK                         _______ _______ _______ _____ _____    ______ ____
ROOT
ATOM      1  C   UNL     1       3.504  -1.958   5.151  0.00  0.00    +0.278 C 
ATOM      2  C   UNL     1       4.536  -0.967   4.594  0.00  0.00    +0.186 C 
ATOM      3  N   UNL     1       5.168  -0.292   5.740  0.00  0.00    -0.195 N 
ATOM      4  C   UNL     1       5.506  -1.076   6.854  0.00  0.00    +0.093 A 
ATOM      5  C   UNL     1       6.349  -0.569   7.831  0.00  0.00    +0.028 A 
ATOM      6  C   UNL     1       6.676  -1.344   8.928  0.00  0.00    +0.002 A 
ATOM      7  C   UNL     1       6.162  -2.622   9.052  0.00  0.00    +0.004 A 
ATOM      8  C   UNL     1       5.322  -3.132   8.080  0.00  0.00    +0.047 A 
ATOM      9  C   UNL     1       4.990  -2.364   6.975  0.00  0.00    +0.144 A 
ATOM     10  O   UNL     1       4.167  -2.877   6.022  0.00  0.00    -0.476 OA
ENDROOT
BRANCH   1  12
ATOM     11  N   UNL     1       2.099  -2.058   3.117  0.00  0.00    -0.282 N 
ATOM     12  C   UNL     1       2.863  -2.712   4.014  0.00  0.00    +0.260 C 
ATOM     13  O   UNL     1       3.035  -3.908   3.907  0.00  0.00    -0.271 OA
ATOM     14  H   UNL     1       2.024  -1.092   3.157  0.00  0.00    +0.155 HD
BRANCH  11  20
ATOM     15  C   UNL     1       1.247  -2.216   0.854  0.00  0.00    +0.080 A 
ATOM     16  C   UNL     1       0.566  -2.942  -0.127  0.00  0.00    +0.017 A 
ATOM     17  C   UNL     1       0.065  -4.191   0.168  0.00  0.00    +0.001 A 
ATOM     18  C   UNL     1       0.231  -4.732   1.432  0.00  0.00    +0.002 A 
ATOM     19  C   UNL     1       0.901  -4.027   2.412  0.00  0.00    +0.024 A 
ATOM     20  C   UNL     1       1.418  -2.769   2.132  0.00  0.00    +0.048 A 
BRANCH  15  21
ATOM     21  C   UNL     1       1.786  -0.879   0.546  0.00  0.00    +0.341 C 
ATOM     22  O   UNL     1       2.302  -0.215   1.423  0.00  0.00    -0.245 OA
BRANCH  21  24
ATOM     23  C   UNL     1       2.251   0.909  -0.935  0.00  0.00    +0.280 C 
ATOM     24  O   UNL     1       1.708  -0.394  -0.709  0.00  0.00    -0.464 OA
ENDBRANCH  21  24
ENDBRANCH  15  21
ENDBRANCH  11  20
ENDBRANCH   1  12
BRANCH   3  25
ATOM     25  S   UNL     1       5.472   1.336   5.714  0.00  0.00    +0.075 S 
ATOM     26  O   UNL     1       4.643   1.887   4.700  0.00  0.00    -0.150 OA
ATOM     27  O   UNL     1       5.422   1.780   7.063  0.00  0.00    -0.150 OA
BRANCH  25  28
ATOM     28  C   UNL     1       7.136   1.548   5.175  0.00  0.00    +0.109 A 
ATOM     29  C   UNL     1       8.164   1.573   6.099  0.00  0.00    +0.029 A 
ATOM     30  C   UNL     1       9.469   1.739   5.676  0.00  0.00    +0.002 A 
ATOM     31  C   UNL     1       9.747   1.879   4.329  0.00  0.00    +0.000 A 
ATOM     32  C   UNL     1       8.719   1.853   3.405  0.00  0.00    +0.002 A 
ATOM     33  C   UNL     1       7.414   1.683   3.827  0.00  0.00    +0.029 A 
ENDBRANCH  25  28
ENDBRANCH   3  25
TORSDOF 6
