REMARK  Name = ZINC09612158
REMARK  12 active torsions:
REMARK  status: ('A' for Active; 'I' for Inactive)
REMARK    1  A    between atoms: C_1  and  C_2
REMARK    2  A    between atoms: C_5  and  N_8
REMARK    3  A    between atoms: N_8  and  C_9
REMARK    4  A    between atoms: C_9  and  C_10
REMARK    5  A    between atoms: C_10  and  C_12
REMARK    6  A    between atoms: C_10  and  O_39
REMARK    7  A    between atoms: C_12  and  N_13
REMARK    8  A    between atoms: C_14  and  C_38
REMARK    9  A    between atoms: C_15  and  C_22
REMARK   10  A    between atoms: N_25  and  S_28
REMARK   11  A    between atoms: S_28  and  C_31
REMARK   12  A    between atoms: C_34  and  C_37
REMARK                            x       y       z     vdW  Elec       q    Type
REMARK                         _______ _______ _______ _____ _____    ______ ____
ROOT
ATOM      1  N   UNL     1       2.147   4.124   0.003  0.00  0.00    -0.341 N 
ATOM      2  C   UNL     1       1.583   5.371   0.015  0.00  0.00    +0.020 A 
ATOM      3  C   UNL     1       0.245   5.269   0.027  0.00  0.00    -0.016 A 
ATOM      4  C   UNL     1      -0.075   3.840   0.022  0.00  0.00    +0.004 A 
ATOM      5  C   UNL     1       1.159   3.165   0.007  0.00  0.00    +0.050 A 
ATOM      6  C   UNL     1       1.175   1.774   0.000  0.00  0.00    +0.026 A 
ATOM      7  C   UNL     1      -0.013   1.076   0.008  0.00  0.00    +0.002 A 
ATOM      8  C   UNL     1      -1.228   1.746   0.017  0.00  0.00    +0.001 A 
ATOM      9  C   UNL     1      -1.267   3.112   0.030  0.00  0.00    +0.010 A 
ATOM     10  C   UNL     1       2.352   6.668   0.014  0.00  0.00    +0.064 C 
ENDROOT
BRANCH   3  11
ATOM     11  C   UNL     1      -0.741   6.409   0.042  0.00  0.00    +0.024 C 
ATOM     12  C   UNL     1      -1.608   6.316   1.300  0.00  0.00    +0.025 C 
ATOM     13  C   UNL     1      -2.585   7.495   1.330  0.00  0.00    +0.110 C 
ATOM     14  N   UNL     1      -3.346   7.511   0.073  0.00  0.00    -0.177 NA
ATOM     15  C   UNL     1      -2.609   7.509  -1.199  0.00  0.00    +0.110 C 
ATOM     16  C   UNL     1      -1.631   6.329  -1.200  0.00  0.00    +0.025 C 
BRANCH  14  17
ATOM     17  S   UNL     1      -5.001   7.530   0.088  0.00  0.00    +0.061 S 
ATOM     18  O   UNL     1      -5.389   8.079   1.340  0.00  0.00    -0.153 OA
ATOM     19  O   UNL     1      -5.413   8.092  -1.150  0.00  0.00    -0.153 OA
BRANCH  17  20
ATOM     20  C   UNL     1      -5.542   5.853   0.085  0.00  0.00    +0.105 A 
ATOM     21  C   UNL     1      -5.771   5.203  -1.113  0.00  0.00    +0.029 A 
ATOM     22  C   UNL     1      -6.190   3.886  -1.116  0.00  0.00    +0.005 A 
ATOM     23  C   UNL     1      -6.391   3.222   0.080  0.00  0.00    -0.050 A 
ATOM     24  C   UNL     1      -6.166   3.873   1.278  0.00  0.00    +0.005 A 
ATOM     25  C   UNL     1      -5.742   5.189   1.281  0.00  0.00    +0.029 A 
ATOM     26  C   UNL     1      -6.853   1.787   0.076  0.00  0.00    +0.044 C 
ENDBRANCH  17  20
ENDBRANCH  14  17
ENDBRANCH   3  11
BRANCH   1  27
ATOM     27  C   UNL     1       3.586   3.851  -0.012  0.00  0.00    +0.155 C 
BRANCH  27  28
ATOM     28  C   UNL     1       4.073   3.764  -1.459  0.00  0.00    +0.151 C 
BRANCH  28  29
ATOM     29  O   UNL     1       3.468   2.638  -2.099  0.00  0.00    -0.388 OA
ATOM     30  H   UNL     1       3.670   1.791  -1.678  0.00  0.00    +0.210 HD
ENDBRANCH  28  29
BRANCH  28  31
ATOM     31  C   UNL     1       5.595   3.602  -1.476  0.00  0.00    +0.134 C 
BRANCH  31  32
ATOM     32  N   UNL     1       6.074   3.639  -2.860  0.00  0.00    -0.341 N 
ATOM     33  H   UNL     1       5.444   3.752  -3.589  0.00  0.00    +0.146 HD
BRANCH  32  38
ATOM     34  C   UNL     1      11.614   3.118  -3.955  0.00  0.00    +0.044 C 
ATOM     35  C   UNL     1      10.142   3.257  -3.664  0.00  0.00    -0.050 A 
ATOM     36  C   UNL     1       9.245   3.417  -4.704  0.00  0.00    +0.005 A 
ATOM     37  C   UNL     1       7.895   3.544  -4.441  0.00  0.00    +0.023 A 
ATOM     38  C   UNL     1       7.439   3.510  -3.130  0.00  0.00    +0.027 A 
ATOM     39  C   UNL     1       8.343   3.354  -2.087  0.00  0.00    +0.023 A 
ATOM     40  C   UNL     1       9.691   3.222  -2.357  0.00  0.00    +0.005 A 
ENDBRANCH  32  38
ENDBRANCH  31  32
ENDBRANCH  28  31
ENDBRANCH  27  28
ENDBRANCH   1  27
TORSDOF 9
