REMARK  Name = ZINC04066381
REMARK  7 active torsions:
REMARK  status: ('A' for Active; 'I' for Inactive)
REMARK    1  A    between atoms: C_1  and  C_2
REMARK    2  A    between atoms: C_6  and  O_12
REMARK    3  A    between atoms: C_9  and  C_11
REMARK    4  A    between atoms: O_12  and  C_13
REMARK    5  A    between atoms: C_13  and  C_15
REMARK    6  A    between atoms: C_16  and  C_30
REMARK    7  A    between atoms: C_21  and  C_23
REMARK                            x       y       z     vdW  Elec       q    Type
REMARK                         _______ _______ _______ _____ _____    ______ ____
ROOT
ATOM      1  C   UNL     1       2.763  -5.985  -0.519  0.00  0.00    +0.078 C 
ATOM      2  C   UNL     1       3.604  -6.590  -1.387  0.00  0.00    +0.021 C 
ATOM      3  N   UNL     1       3.543  -7.936  -1.605  0.00  0.00    -0.273 N 
ATOM      4  C   UNL     1       2.670  -8.748  -0.996  0.00  0.00    +0.304 C 
ATOM      5  O   UNL     1       2.692  -9.936  -1.256  0.00  0.00    -0.252 OA
ATOM      6  N   UNL     1       1.768  -8.293  -0.105  0.00  0.00    -0.288 N 
ATOM      7  C   UNL     1       1.755  -6.853   0.206  0.00  0.00    +0.143 C 
ATOM      8  C   UNL     1       4.626  -5.764  -2.126  0.00  0.00    +0.061 C 
ATOM      9  H   UNL     1       4.167  -8.326  -2.237  0.00  0.00    +0.156 HD
ATOM     10  H   UNL     1       1.144  -8.899   0.325  0.00  0.00    +0.151 HD
ENDROOT
BRANCH   7  11
ATOM     11  C   UNL     1       0.378  -6.327  -0.107  0.00  0.00    -0.022 A 
ATOM     12  C   UNL     1      -0.231  -6.656  -1.304  0.00  0.00    +0.007 A 
ATOM     13  C   UNL     1      -1.494  -6.174  -1.593  0.00  0.00    +0.020 A 
ATOM     14  C   UNL     1      -2.148  -5.362  -0.683  0.00  0.00    +0.041 A 
ATOM     15  C   UNL     1      -1.538  -5.033   0.514  0.00  0.00    +0.020 A 
ATOM     16  C   UNL     1      -0.277  -5.521   0.804  0.00  0.00    +0.007 A 
ATOM     17 CL   UNL     1      -3.734  -4.756  -1.045  0.00  0.00    -0.084 Cl
ENDBRANCH   7  11
BRANCH   1  18
ATOM     18  C   UNL     1       2.826  -4.591  -0.292  0.00  0.00    +0.339 C 
ATOM     19  O   UNL     1       3.717  -3.932  -0.793  0.00  0.00    -0.245 OA
BRANCH  18  20
ATOM     20  O   UNL     1       1.897  -3.991   0.481  0.00  0.00    -0.458 OA
BRANCH  20  25
ATOM     21  C   UNL     1       0.943   1.557   1.341  0.00  0.00    +0.008 C 
ATOM     22  C   UNL     1       0.810   0.046   1.140  0.00  0.00    -0.011 C 
ATOM     23  C   UNL     1       1.376  -0.339  -0.228  0.00  0.00    +0.007 C 
ATOM     24  C   UNL     1       1.243  -1.849  -0.428  0.00  0.00    +0.045 C 
ATOM     25  C   UNL     1       2.021  -2.580   0.668  0.00  0.00    +0.177 C 
ATOM     26  C   UNL     1       1.455  -2.195   2.037  0.00  0.00    +0.048 C 
ATOM     27  C   UNL     1       1.588  -0.684   2.237  0.00  0.00    -0.008 C 
ATOM     28  C   UNL     1       1.023  -0.299   3.606  0.00  0.00    +0.008 C 
ENDBRANCH  20  25
ENDBRANCH  18  20
ENDBRANCH   1  18
TORSDOF 4
