REMARK  Name = ZINC09592438
REMARK  5 active torsions:
REMARK  status: ('A' for Active; 'I' for Inactive)
REMARK    1  A    between atoms: C_4  and  C_7
REMARK    2  A    between atoms: C_7  and  C_9
REMARK    3  A    between atoms: C_7  and  O_32
REMARK    4  A    between atoms: C_14  and  N_15
REMARK    5  A    between atoms: C_16  and  C_18
REMARK                            x       y       z     vdW  Elec       q    Type
REMARK                         _______ _______ _______ _____ _____    ______ ____
ROOT
ATOM      1  C   UNL     1       1.414   1.604   0.008  0.00  0.00    +0.010 A 
ATOM      2  C   UNL     1       1.736   2.754   0.703  0.00  0.00    +0.057 A 
ATOM      3  C   UNL     1       3.038   3.230   0.696  0.00  0.00    +0.163 A 
ATOM      4  C   UNL     1       4.023   2.548  -0.011  0.00  0.00    +0.164 A 
ATOM      5  C   UNL     1       3.698   1.395  -0.709  0.00  0.00    +0.073 A 
ATOM      6  C   UNL     1       2.395   0.919  -0.696  0.00  0.00    +0.043 A 
ATOM      7  O   UNL     1       5.307   2.998  -0.026  0.00  0.00    -0.485 OA
ATOM      8  C   UNL     1       5.518   4.356   0.373  0.00  0.00    +0.270 C 
ATOM      9  C   UNL     1       4.720   4.608   1.660  0.00  0.00    +0.270 C 
ATOM     10  O   UNL     1       3.337   4.367   1.383  0.00  0.00    -0.485 OA
ENDROOT
BRANCH   6  11
ATOM     11  N   UNL     1       2.068  -0.250  -1.396  0.00  0.00    -0.285 N 
ATOM     12  C   UNL     1       2.684  -0.531  -2.561  0.00  0.00    +0.221 C 
ATOM     13  O   UNL     1       3.579   0.183  -2.962  0.00  0.00    -0.275 OA
ATOM     14  H   UNL     1       1.399  -0.856  -1.042  0.00  0.00    +0.155 HD
BRANCH  12  15
ATOM     15  C   UNL     1       2.263  -1.734  -3.365  0.00  0.00    +0.081 C 
ATOM     16  C   UNL     1       2.457  -3.000  -2.529  0.00  0.00    +0.002 C 
ATOM     17  C   UNL     1       2.029  -4.221  -3.345  0.00  0.00    +0.008 C 
ATOM     18  C   UNL     1       2.880  -4.312  -4.613  0.00  0.00    -0.010 C 
ATOM     19  C   UNL     1       4.355  -4.447  -4.228  0.00  0.00    +0.007 C 
ATOM     20  C   UNL     1       4.783  -3.226  -3.412  0.00  0.00    -0.010 C 
ATOM     21  C   UNL     1       3.931  -3.136  -2.144  0.00  0.00    +0.008 C 
ATOM     22  C   UNL     1       4.589  -1.960  -4.248  0.00  0.00    +0.008 C 
ATOM     23  C   UNL     1       3.115  -1.824  -4.633  0.00  0.00    +0.002 C 
ATOM     24  C   UNL     1       2.686  -3.045  -5.449  0.00  0.00    +0.008 C 
ENDBRANCH  12  15
ENDBRANCH   6  11
BRANCH   1  25
ATOM     25  C   UNL     1      -0.003   1.090   0.019  0.00  0.00    +0.176 C 
BRANCH  25  29
ATOM     26  C   UNL     1      -2.069   2.533  -3.431  0.00  0.00    +0.000 A 
ATOM     27  C   UNL     1      -1.564   1.246  -3.415  0.00  0.00    +0.000 A 
ATOM     28  C   UNL     1      -0.896   0.779  -2.299  0.00  0.00    +0.006 A 
ATOM     29  C   UNL     1      -0.732   1.599  -1.198  0.00  0.00    -0.015 A 
ATOM     30  C   UNL     1      -1.240   2.884  -1.212  0.00  0.00    +0.006 A 
ATOM     31  C   UNL     1      -1.905   3.353  -2.330  0.00  0.00    +0.000 A 
ENDBRANCH  25  29
BRANCH  25  32
ATOM     32  O   UNL     1      -0.667   1.548   1.198  0.00  0.00    -0.382 OA
ATOM     33  H   UNL     1      -0.713   2.511   1.275  0.00  0.00    +0.211 HD
ENDBRANCH  25  32
ENDBRANCH   1  25
TORSDOF 5
