REMARK  Name = ZINC38734413
REMARK  14 active torsions:
REMARK  status: ('A' for Active; 'I' for Inactive)
REMARK    1  A    between atoms: C_1  and  C_2
REMARK    2  A    between atoms: C_2  and  O_3
REMARK    3  A    between atoms: O_3  and  C_4
REMARK    4  A    between atoms: C_4  and  C_6
REMARK    5  A    between atoms: C_8  and  C_40
REMARK    6  A    between atoms: N_11  and  C_15
REMARK    7  A    between atoms: C_12  and  C_14
REMARK    8  A    between atoms: C_18  and  C_21
REMARK    9  A    between atoms: N_23  and  C_24
REMARK   10  A    between atoms: C_24  and  C_26
REMARK   11  A    between atoms: C_24  and  C_36
REMARK   12  A    between atoms: C_26  and  C_27
REMARK   13  A    between atoms: C_36  and  O_38
REMARK   14  A    between atoms: O_38  and  C_39
REMARK                            x       y       z     vdW  Elec       q    Type
REMARK                         _______ _______ _______ _____ _____    ______ ____
ROOT
ATOM      1  C   UNL     1       5.039  -9.453  -3.126  0.00  0.00    +0.245 C 
ATOM      2  O   UNL     1       4.364 -10.400  -2.770  0.00  0.00    -0.270 OA
ATOM      3  N   UNL     1       6.299  -9.650  -3.563  0.00  0.00    -0.298 N 
ATOM      4  H   UNL     1       6.837  -8.895  -3.847  0.00  0.00    +0.150 HD
ENDROOT
BRANCH   1   8
ATOM      5  C   UNL     1       3.429  -5.527  -2.990  0.00  0.00    +0.045 A 
ATOM      6  C   UNL     1       2.654  -6.610  -2.583  0.00  0.00    +0.025 A 
ATOM      7  C   UNL     1       3.173  -7.883  -2.626  0.00  0.00    +0.015 A 
ATOM      8  C   UNL     1       4.480  -8.089  -3.079  0.00  0.00    +0.037 A 
ATOM      9  C   UNL     1       5.255  -7.000  -3.487  0.00  0.00    +0.015 A 
ATOM     10  C   UNL     1       4.728  -5.729  -3.447  0.00  0.00    +0.025 A 
BRANCH   5  14
ATOM     11  C   UNL     1       1.468  -2.353  -2.550  0.00  0.00    +0.137 C 
ATOM     12  C   UNL     1       2.974  -1.976  -2.558  0.00  0.00    +0.085 C 
ATOM     13  N   UNL     1       3.565  -3.103  -3.325  0.00  0.00    -0.236 NA
ATOM     14  N   UNL     1       2.901  -4.241  -2.945  0.00  0.00    -0.263 N 
ATOM     15  C   UNL     1       1.545  -3.898  -2.485  0.00  0.00    +0.103 C 
ATOM     16  C   UNL     1       0.497  -4.520  -3.409  0.00  0.00    +0.030 C 
ATOM     17  C   UNL     1       3.534  -1.928  -1.135  0.00  0.00    +0.026 C 
ATOM     18  H   UNL     1       3.479  -2.949  -4.318  0.00  0.00    +0.145 HD
BRANCH  11  19
ATOM     19  C   UNL     1       0.775  -1.794  -1.334  0.00  0.00    +0.314 C 
ATOM     20  O   UNL     1       0.314  -2.540  -0.504  0.00  0.00    -0.250 OA
BRANCH  19  21
ATOM     21  O   UNL     1       0.671  -0.465  -1.174  0.00  0.00    -0.465 OA
BRANCH  21  23
ATOM     22  C   UNL     1      -0.019   1.526   0.010  0.00  0.00    +0.048 C 
ATOM     23  C   UNL     1       0.002  -0.004   0.002  0.00  0.00    +0.229 C 
ENDBRANCH  21  23
ENDBRANCH  19  21
ENDBRANCH  11  19
ENDBRANCH   5  14
ENDBRANCH   1   8
BRANCH   3  24
ATOM     24  C   UNL     1       6.855 -11.005  -3.610  0.00  0.00    +0.186 C 
BRANCH  24  25
ATOM     25  C   UNL     1       7.421 -11.362  -2.260  0.00  0.00    +0.328 C 
ATOM     26  O   UNL     1       7.367 -10.566  -1.352  0.00  0.00    -0.249 OA
BRANCH  25  27
ATOM     27  O   UNL     1       7.987 -12.564  -2.066  0.00  0.00    -0.467 OA
ATOM     28  C   UNL     1       8.504 -12.835  -0.761  0.00  0.00    +0.280 C 
ENDBRANCH  25  27
ENDBRANCH  24  25
BRANCH  24  29
ATOM     29  C   UNL     1       7.965 -11.065  -4.661  0.00  0.00    +0.071 C 
BRANCH  29  30
ATOM     30  C   UNL     1       7.376 -10.828  -6.028  0.00  0.00    -0.020 A 
ATOM     31  C   UNL     1       7.120  -9.529  -6.654  0.00  0.00    +0.003 A 
ATOM     32  C   UNL     1       7.310  -8.205  -6.253  0.00  0.00    +0.010 A 
ATOM     33  C   UNL     1       6.959  -7.185  -7.093  0.00  0.00    +0.001 A 
ATOM     34  C   UNL     1       6.415  -7.455  -8.341  0.00  0.00    +0.002 A 
ATOM     35  C   UNL     1       6.219  -8.755  -8.756  0.00  0.00    +0.026 A 
ATOM     36  C   UNL     1       6.569  -9.808  -7.918  0.00  0.00    +0.047 A 
ATOM     37  N   UNL     1       6.501 -11.178  -8.037  0.00  0.00    -0.360 N 
ATOM     38  C   UNL     1       6.991 -11.769  -6.905  0.00  0.00    +0.087 A 
ATOM     39  H   UNL     1       6.160 -11.653  -8.811  0.00  0.00    +0.165 HD
ENDBRANCH  29  30
ENDBRANCH  24  29
ENDBRANCH   3  24
TORSDOF 10
