REMARK  Name = ZINC08686661
REMARK  15 active torsions:
REMARK  status: ('A' for Active; 'I' for Inactive)
REMARK    1  A    between atoms: C_1  and  C_2
REMARK    2  A    between atoms: C_2  and  C_3
REMARK    3  A    between atoms: C_3  and  C_4
REMARK    4  A    between atoms: C_4  and  S_5
REMARK    5  A    between atoms: S_5  and  C_6
REMARK    6  A    between atoms: C_6  and  S_27
REMARK    7  A    between atoms: C_7  and  C_25
REMARK    8  A    between atoms: C_8  and  C_24
REMARK    9  A    between atoms: C_9  and  C_23
REMARK   10  A    between atoms: C_10  and  C_17
REMARK   11  A    between atoms: C_12  and  C_15
REMARK   12  A    between atoms: S_27  and  C_28
REMARK   13  A    between atoms: C_28  and  C_29
REMARK   14  A    between atoms: C_29  and  C_30
REMARK   15  A    between atoms: C_30  and  C_31
REMARK                            x       y       z     vdW  Elec       q    Type
REMARK                         _______ _______ _______ _____ _____    ______ ____
ROOT
ATOM      1  C   UNL     1      -1.144  -2.973  -2.414  0.00  0.00    +0.157 C 
ATOM      2  C   UNL     1      -0.440  -2.073  -1.364  0.00  0.00    +0.148 C 
ATOM      3  C   UNL     1      -0.162  -2.882  -0.137  0.00  0.00    -0.032 C 
ATOM      4  C   UNL     1      -0.607  -2.587   1.056  0.00  0.00    -0.014 C 
ATOM      5  C   UNL     1      -1.545  -0.455   0.266  0.00  0.00    +0.113 C 
ATOM      6  C   UNL     1      -1.516  -1.006  -1.140  0.00  0.00    +0.156 C 
ATOM      7  C   UNL     1      -2.804  -1.713  -1.490  0.00  0.00    +0.092 C 
ATOM      8  N   UNL     1      -4.053  -1.288  -1.123  0.00  0.00    -0.347 N 
ATOM      9  C   UNL     1      -0.249  -3.478   2.217  0.00  0.00    +0.059 C 
ATOM     10  C   UNL     1       0.687  -4.119  -0.286  0.00  0.00    +0.042 C 
ATOM     11  H   UNL     1      -4.155  -0.477  -0.600  0.00  0.00    +0.143 HD
ATOM     12  H   UNL     1      -4.835  -1.797  -1.386  0.00  0.00    +0.143 HD
ATOM     13  N   UNL     1      -1.446  -1.492   1.342  0.00  0.00    -0.401 NA
ATOM     14  H   UNL     1      -1.090  -1.037   2.191  0.00  0.00    +0.124 HD
ATOM     15  H   UNL     1      -2.389  -1.857   1.520  0.00  0.00    +0.124 HD
ATOM     16  N   UNL     1      -2.592  -2.768  -2.194  0.00  0.00    -0.351 N 
ATOM     17  H   UNL     1      -3.329  -3.385  -2.555  0.00  0.00    +0.163 HD
ENDROOT
BRANCH   5  18
ATOM     18  C   UNL     1      -0.417   0.532   0.426  0.00  0.00    -0.027 A 
ATOM     19  C   UNL     1      -0.669   1.889   0.341  0.00  0.00    +0.005 A 
ATOM     20  C   UNL     1       0.366   2.794   0.489  0.00  0.00    +0.000 A 
ATOM     21  C   UNL     1       1.651   2.342   0.721  0.00  0.00    +0.000 A 
ATOM     22  C   UNL     1       1.903   0.986   0.808  0.00  0.00    +0.000 A 
ATOM     23  C   UNL     1       0.868   0.081   0.660  0.00  0.00    +0.005 A 
ENDBRANCH   5  18
BRANCH   6  24
ATOM     24  C   UNL     1      -1.302   0.100  -2.088  0.00  0.00    +0.081 C 
ATOM     25  N   UNL     1      -1.136   0.953  -2.819  0.00  0.00    -0.195 NA
ENDBRANCH   6  24
BRANCH   2  26
ATOM     26  C   UNL     1       0.796  -1.483  -1.903  0.00  0.00    +0.080 C 
ATOM     27  N   UNL     1       1.750  -1.027  -2.319  0.00  0.00    -0.195 NA
ENDBRANCH   2  26
BRANCH   1  28
ATOM     28  S   UNL     1      -0.686  -2.460  -4.093  0.00  0.00    -0.120 S 
BRANCH  28  29
ATOM     29  C   UNL     1      -2.260  -2.448  -4.994  0.00  0.00    +0.072 C 
BRANCH  29  30
ATOM     30  C   UNL     1      -1.999  -2.162  -6.474  0.00  0.00    +0.010 C 
BRANCH  30  32
ATOM     31  C   UNL     1      -3.066  -1.866  -8.714  0.00  0.00    +0.004 C 
ATOM     32  C   UNL     1      -3.327  -2.152  -7.233  0.00  0.00    -0.003 C 
ENDBRANCH  30  32
ENDBRANCH  29  30
ENDBRANCH  28  29
ENDBRANCH   1  28
BRANCH   1  33
ATOM     33  S   UNL     1      -0.713  -4.714  -2.147  0.00  0.00    -0.120 S 
BRANCH  33  34
ATOM     34  C   UNL     1      -1.652  -5.600  -3.421  0.00  0.00    +0.072 C 
BRANCH  34  35
ATOM     35  C   UNL     1      -1.326  -7.093  -3.349  0.00  0.00    +0.010 C 
BRANCH  35  36
ATOM     36  C   UNL     1      -2.119  -7.840  -4.424  0.00  0.00    -0.003 C 
ATOM     37  C   UNL     1      -1.793  -9.333  -4.352  0.00  0.00    +0.004 C 
ENDBRANCH  35  36
ENDBRANCH  34  35
ENDBRANCH  33  34
ENDBRANCH   1  33
TORSDOF 11
