REMARK  Name = ZINC23857775
REMARK  10 active torsions:
REMARK  status: ('A' for Active; 'I' for Inactive)
REMARK    1  A    between atoms: C_1  and  C_2
REMARK    2  A    between atoms: C_4  and  N_34
REMARK    3  A    between atoms: C_7  and  N_8
REMARK    4  A    between atoms: C_9  and  C_11
REMARK    5  A    between atoms: N_13  and  C_14
REMARK    6  A    between atoms: C_14  and  C_15
REMARK    7  A    between atoms: C_15  and  C_17
REMARK    8  A    between atoms: C_15  and  N_27
REMARK    9  A    between atoms: N_25  and  C_26
REMARK   10  A    between atoms: N_30  and  C_33
REMARK                            x       y       z     vdW  Elec       q    Type
REMARK                         _______ _______ _______ _____ _____    ______ ____
ROOT
ATOM      1  C   UNL     1       1.192   1.689   0.091  0.00  0.00    +0.128 C 
ENDROOT
BRANCH   1   4
ATOM      2  C   UNL     1       0.443   3.511  -1.343  0.00  0.00    +0.299 C 
ATOM      3  O   UNL     1      -0.524   3.642  -0.622  0.00  0.00    -0.265 OA
ATOM      4  N   UNL     1       1.360   2.560  -1.074  0.00  0.00    -0.306 N 
ATOM      5  H   UNL     1       2.235   2.439  -1.730  0.00  0.00    +0.149 HD
BRANCH   2   7
ATOM      6  N   UNL     1      -0.299   5.354  -2.796  0.00  0.00    -0.278 N 
ATOM      7  C   UNL     1       0.618   4.404  -2.527  0.00  0.00    +0.303 C 
ATOM      8  O   UNL     1       1.585   4.273  -3.249  0.00  0.00    -0.265 OA
ATOM      9  H   UNL     1      -1.218   5.417  -2.196  0.00  0.00    +0.155 HD
BRANCH   6  16
ATOM     10  C   UNL     1      -2.564   6.580  -4.005  0.00  0.00    +0.046 C 
ATOM     11  C   UNL     1      -1.158   6.882  -4.456  0.00  0.00    -0.027 A 
ATOM     12  C   UNL     1      -0.939   7.781  -5.481  0.00  0.00    +0.038 A 
ATOM     13  C   UNL     1       0.350   8.055  -5.899  0.00  0.00    +0.127 A 
ATOM     14  C   UNL     1       1.425   7.434  -5.289  0.00  0.00    +0.034 A 
ATOM     15  C   UNL     1       1.213   6.538  -4.260  0.00  0.00    +0.026 A 
ATOM     16  C   UNL     1      -0.081   6.261  -3.837  0.00  0.00    +0.037 A 
BRANCH  13  17
ATOM     17  N   UNL     1       0.581   9.014  -7.003  0.00  0.00    +0.056 N 
ATOM     18  O   UNL     1       1.716   9.256  -7.372  0.00  0.00    -0.126 OA
ATOM     19  O   UNL     1      -0.365   9.562  -7.541  0.00  0.00    -0.126 OA
ENDBRANCH  13  17
ENDBRANCH   6  16
ENDBRANCH   2   7
ENDBRANCH   1   4
BRANCH   1  20
ATOM     20  C   UNL     1       2.298   0.632   0.102  0.00  0.00    +0.104 C 
BRANCH  20  21
ATOM     21  C   UNL     1       3.632   1.302   0.305  0.00  0.00    -0.028 A 
ATOM     22  C   UNL     1       4.030   1.681   1.575  0.00  0.00    +0.007 A 
ATOM     23  C   UNL     1       5.250   2.296   1.766  0.00  0.00    +0.024 A 
ATOM     24  C   UNL     1       6.089   2.541   0.680  0.00  0.00    +0.033 A 
ATOM     25  C   UNL     1       5.681   2.153  -0.591  0.00  0.00    -0.025 A 
ATOM     26  C   UNL     1       4.462   1.535  -0.776  0.00  0.00    +0.010 A 
ATOM     27  C   UNL     1       6.778   2.528  -1.568  0.00  0.00    +0.056 C 
ATOM     28  C   UNL     1       7.990   2.783  -0.643  0.00  0.00    +0.109 C 
ATOM     29  N   UNL     1       7.347   3.155   0.637  0.00  0.00    -0.332 N 
ATOM     30  C   UNL     1       8.173   2.743   1.780  0.00  0.00    +0.129 C 
ENDBRANCH  20  21
BRANCH  20  31
ATOM     31  N   UNL     1       2.056  -0.320   1.194  0.00  0.00    -0.297 NA
ATOM     32  C   UNL     1       3.190  -1.240   1.352  0.00  0.00    +0.066 C 
ATOM     33  C   UNL     1       2.934  -2.161   2.548  0.00  0.00    -0.064 C 
ATOM     34  N   UNL     1       1.684  -2.902   2.334  0.00  0.00    +0.379 N 
ATOM     35  C   UNL     1       0.549  -1.981   2.176  0.00  0.00    -0.064 C 
ATOM     36  C   UNL     1       0.805  -1.061   0.980  0.00  0.00    +0.066 C 
ATOM     37  C   UNL     1       1.442  -3.853   3.427  0.00  0.00    -0.096 C 
ATOM     38  H   UNL     1       1.786  -3.478   1.402  0.00  0.00    -0.082 HD
ENDBRANCH  20  31
ENDBRANCH   1  20
TORSDOF 7
