REMARK  Name = ZINC44360723
REMARK  9 active torsions:
REMARK  status: ('A' for Active; 'I' for Inactive)
REMARK    1  A    between atoms: C_1  and  C_2
REMARK    2  A    between atoms: C_2  and  O_3
REMARK    3  A    between atoms: O_3  and  C_4
REMARK    4  A    between atoms: C_4  and  C_6
REMARK    5  A    between atoms: C_6  and  C_8
REMARK    6  A    between atoms: C_6  and  N_28
REMARK    7  A    between atoms: C_8  and  C_9
REMARK    8  A    between atoms: C_10  and  C_19
REMARK    9  A    between atoms: C_22  and  N_25
REMARK                            x       y       z     vdW  Elec       q    Type
REMARK                         _______ _______ _______ _____ _____    ______ ____
ROOT
ATOM      1  C   UNL     1       1.476  -2.780  -4.876  0.00  0.00    +0.050 A 
ATOM      2  C   UNL     1       1.840  -1.961  -5.902  0.00  0.00    +0.093 A 
ATOM      3  N   UNL     1       2.142  -2.725  -6.964  0.00  0.00    -0.228 NA
ATOM      4  C   UNL     1       1.981  -3.999  -6.641  0.00  0.00    +0.139 A 
ATOM      5  N   UNL     1       1.569  -4.064  -5.335  0.00  0.00    -0.302 N 
ATOM      6  C   UNL     1       1.332  -5.272  -4.743  0.00  0.00    +0.108 A 
ATOM      7  C   UNL     1       1.504  -6.420  -5.432  0.00  0.00    +0.034 A 
ATOM      8  C   UNL     1       1.928  -6.387  -6.771  0.00  0.00    +0.020 A 
ATOM      9  C   UNL     1       2.159  -5.190  -7.375  0.00  0.00    +0.048 A 
ATOM     10 BR   UNL     1       1.171  -8.081  -4.591  0.00  0.00    -0.049 Br
ENDROOT
BRANCH   2  11
ATOM     11  C   UNL     1       1.892  -0.478  -5.854  0.00  0.00    +0.002 A 
ATOM     12  C   UNL     1       2.971   0.201  -6.417  0.00  0.00    +0.012 A 
ATOM     13  C   UNL     1       3.014   1.580  -6.370  0.00  0.00    +0.033 A 
ATOM     14  C   UNL     1       1.990   2.287  -5.766  0.00  0.00    +0.126 A 
ATOM     15  C   UNL     1       0.917   1.617  -5.206  0.00  0.00    +0.033 A 
ATOM     16  C   UNL     1       0.861   0.239  -5.252  0.00  0.00    +0.012 A 
BRANCH  14  17
ATOM     17  N   UNL     1       2.043   3.765  -5.718  0.00  0.00    +0.056 N 
ATOM     18  O   UNL     1       2.980   4.353  -6.207  0.00  0.00    -0.126 OA
ATOM     19  O   UNL     1       1.149   4.386  -5.191  0.00  0.00    -0.126 OA
ENDBRANCH  14  17
ENDBRANCH   2  11
BRANCH   1  20
ATOM     20  C   UNL     1       1.056  -2.351  -3.493  0.00  0.00    +0.051 C 
BRANCH  20  21
ATOM     21  C   UNL     1       2.299  -2.129  -2.629  0.00  0.00    +0.042 C 
BRANCH  21  22
ATOM     22  N   UNL     1       3.001  -3.407  -2.443  0.00  0.00    +0.387 N 
ATOM     23  H   UNL     1       2.386  -4.065  -1.987  0.00  0.00    -0.089 HD
ATOM     24  H   UNL     1       3.277  -3.772  -3.342  0.00  0.00    -0.089 HD
ATOM     25  H   UNL     1       3.820  -3.261  -1.873  0.00  0.00    -0.089 HD
ENDBRANCH  21  22
BRANCH  21  26
ATOM     26  C   UNL     1       1.887  -1.583  -1.286  0.00  0.00    +0.293 C 
ATOM     27  O   UNL     1       1.812  -2.320  -0.331  0.00  0.00    -0.253 OA
BRANCH  26  28
ATOM     28  O   UNL     1       1.601  -0.279  -1.151  0.00  0.00    -0.466 OA
BRANCH  28  30
ATOM     29  C   UNL     1       0.934   1.673   0.108  0.00  0.00    +0.048 C 
ATOM     30  C   UNL     1       1.217   0.170   0.150  0.00  0.00    +0.228 C 
ENDBRANCH  28  30
ENDBRANCH  26  28
ENDBRANCH  21  26
ENDBRANCH  20  21
ENDBRANCH   1  20
TORSDOF 8
