REMARK  Name = ZINC63437161
REMARK  9 active torsions:
REMARK  status: ('A' for Active; 'I' for Inactive)
REMARK    1  A    between atoms: C_1  and  C_2
REMARK    2  A    between atoms: C_2  and  C_3
REMARK    3  A    between atoms: C_2  and  C_4
REMARK    4  A    between atoms: C_7  and  N_10
REMARK    5  A    between atoms: C_11  and  C_13
REMARK    6  A    between atoms: C_13  and  C_15
REMARK    7  A    between atoms: C_13  and  N_21
REMARK    8  A    between atoms: C_22  and  C_24
REMARK    9  A    between atoms: C_24  and  C_25
REMARK                            x       y       z     vdW  Elec       q    Type
REMARK                         _______ _______ _______ _____ _____    ______ ____
ROOT
ATOM      1  C   UNL     1      -7.236  -3.087  -1.052  0.00  0.00    +0.190 C 
ENDROOT
BRANCH   1   2
ATOM      2  C   UNL     1      -7.530  -3.975   0.130  0.00  0.00    -0.018 A 
ATOM      3  C   UNL     1      -7.168  -5.309   0.099  0.00  0.00    +0.006 A 
ATOM      4  C   UNL     1      -7.438  -6.124   1.183  0.00  0.00    +0.000 A 
ATOM      5  C   UNL     1      -8.070  -5.605   2.297  0.00  0.00    +0.000 A 
ATOM      6  C   UNL     1      -8.432  -4.271   2.328  0.00  0.00    +0.000 A 
ATOM      7  C   UNL     1      -8.158  -3.455   1.246  0.00  0.00    +0.006 A 
ENDBRANCH   1   2
BRANCH   1   9
ATOM      8  N   UNL     1      -5.320  -1.968   0.042  0.00  0.00    -0.284 N 
ATOM      9  C   UNL     1      -5.790  -2.663  -1.013  0.00  0.00    +0.242 C 
ATOM     10  O   UNL     1      -5.050  -2.946  -1.931  0.00  0.00    -0.273 OA
ATOM     11  H   UNL     1      -5.891  -1.807   0.810  0.00  0.00    +0.155 HD
BRANCH   8  15
ATOM     12  C   UNL     1      -1.418  -0.509   0.005  0.00  0.00    -0.045 A 
ATOM     13  C   UNL     1      -2.137  -0.586  -1.173  0.00  0.00    +0.006 A 
ATOM     14  C   UNL     1      -3.431  -1.069  -1.165  0.00  0.00    +0.023 A 
ATOM     15  C   UNL     1      -4.010  -1.478   0.030  0.00  0.00    +0.033 A 
ATOM     16  C   UNL     1      -3.284  -1.400   1.212  0.00  0.00    +0.023 A 
ATOM     17  C   UNL     1      -1.989  -0.920   1.195  0.00  0.00    +0.006 A 
BRANCH  12  19
ATOM     18  C   UNL     1       0.857  -0.857  -0.919  0.00  0.00    +0.012 C 
ATOM     19  C   UNL     1      -0.006   0.019  -0.008  0.00  0.00    +0.013 C 
ATOM     20  C   UNL     1      -0.004   1.456  -0.532  0.00  0.00    +0.012 C 
ENDBRANCH  12  19
ENDBRANCH   8  15
ENDBRANCH   1   9
BRANCH   1  21
ATOM     21  N   UNL     1      -7.495  -3.822  -2.292  0.00  0.00    -0.300 N 
ATOM     22  C   UNL     1      -8.743  -3.866  -2.800  0.00  0.00    +0.218 C 
ATOM     23  O   UNL     1      -9.650  -3.298  -2.231  0.00  0.00    -0.275 OA
ATOM     24  H   UNL     1      -6.769  -4.277  -2.747  0.00  0.00    +0.150 HD
BRANCH  22  25
ATOM     25  C   UNL     1      -9.010  -4.623  -4.077  0.00  0.00    +0.129 C 
BRANCH  25  26
ATOM     26  C   UNL     1     -10.472  -4.517  -4.426  0.00  0.00    -0.033 C 
ATOM     27  C   UNL     1     -11.044  -3.625  -5.266  0.00  0.00    -0.001 A 
ATOM     28  C   UNL     1     -10.499  -2.527  -6.074  0.00  0.00    +0.010 A 
ATOM     29  C   UNL     1     -11.341  -1.790  -6.833  0.00  0.00    +0.001 A 
ATOM     30  C   UNL     1     -12.718  -2.047  -6.868  0.00  0.00    +0.002 A 
ATOM     31  C   UNL     1     -13.293  -3.038  -6.154  0.00  0.00    +0.026 A 
ATOM     32  C   UNL     1     -12.502  -3.876  -5.321  0.00  0.00    +0.043 A 
ATOM     33  N   UNL     1     -12.819  -4.884  -4.545  0.00  0.00    -0.380 N 
ATOM     34  C   UNL     1     -11.595  -5.391  -3.914  0.00  0.00    +0.145 C 
ATOM     35  H   UNL     1     -13.712  -5.239  -4.413  0.00  0.00    +0.160 HD
ENDBRANCH  25  26
ENDBRANCH  22  25
ENDBRANCH   1  21
TORSDOF 7
