REMARK  Name = ZINC20057525
REMARK  10 active torsions:
REMARK  status: ('A' for Active; 'I' for Inactive)
REMARK    1  A    between atoms: C_1  and  C_2
REMARK    2  A    between atoms: C_2  and  C_4
REMARK    3  A    between atoms: C_2  and  N_14
REMARK    4  A    between atoms: C_15  and  C_17
REMARK    5  A    between atoms: C_17  and  S_18
REMARK    6  A    between atoms: S_18  and  C_19
REMARK    7  A    between atoms: C_22  and  C_25
REMARK    8  A    between atoms: N_23  and  N_24
REMARK    9  A    between atoms: C_28  and  O_31
REMARK   10  A    between atoms: O_31  and  C_32
REMARK                            x       y       z     vdW  Elec       q    Type
REMARK                         _______ _______ _______ _____ _____    ______ ____
ROOT
ATOM      1  S   UNL     1       0.286   1.712   0.435  0.00  0.00    -0.075 S 
ENDROOT
BRANCH   1   2
ATOM      2  C   UNL     1       0.123  -0.021   0.168  0.00  0.00    +0.209 A 
ATOM      3  N   UNL     1       1.099  -0.900   0.134  0.00  0.00    -0.121 NA
ATOM      4  N   UNL     1       0.627  -2.076  -0.080  0.00  0.00    -0.127 NA
ATOM      5  C   UNL     1      -0.678  -2.020  -0.204  0.00  0.00    +0.182 A 
ATOM      6  N   UNL     1      -1.042  -0.702  -0.049  0.00  0.00    -0.224 N 
BRANCH   5   7
ATOM      7  C   UNL     1      -1.586  -3.157  -0.461  0.00  0.00    +0.021 A 
ATOM      8  C   UNL     1      -1.146  -4.466  -0.252  0.00  0.00    +0.015 A 
ATOM      9  C   UNL     1      -1.998  -5.524  -0.488  0.00  0.00    +0.046 A 
ATOM     10  C   UNL     1      -3.288  -5.290  -0.945  0.00  0.00    +0.127 A 
ATOM     11  C   UNL     1      -3.728  -3.990  -1.160  0.00  0.00    +0.046 A 
ATOM     12  C   UNL     1      -2.884  -2.927  -0.920  0.00  0.00    +0.015 A 
BRANCH  10  13
ATOM     13  O   UNL     1      -4.122  -6.335  -1.183  0.00  0.00    -0.434 OA
BRANCH  13  14
ATOM     14  C   UNL     1      -3.606  -7.646  -0.941  0.00  0.00    +0.541 C 
ATOM     15  F   UNL     1      -2.489  -7.864  -1.754  0.00  0.00    -0.166 F 
ATOM     16  F   UNL     1      -3.234  -7.760   0.403  0.00  0.00    -0.166 F 
ENDBRANCH  13  14
ENDBRANCH  10  13
ENDBRANCH   5   7
BRANCH   6  17
ATOM     17  N   UNL     1      -2.304  -0.182  -0.102  0.00  0.00    -0.295 N 
ATOM     18  H   UNL     1      -3.164  -0.844  -0.285  0.00  0.00    +0.163 HD
ATOM     19  H   UNL     1      -2.461   0.897   0.039  0.00  0.00    +0.163 HD
ENDBRANCH   6  17
ENDBRANCH   1   2
BRANCH   1  20
ATOM     20  C   UNL     1       2.081   1.832   0.635  0.00  0.00    +0.173 C 
BRANCH  20  22
ATOM     21  N   UNL     1       3.758   3.599   1.061  0.00  0.00    -0.308 N 
ATOM     22  C   UNL     1       2.464   3.269   0.882  0.00  0.00    +0.224 C 
ATOM     23  O   UNL     1       1.608   4.127   0.919  0.00  0.00    -0.275 OA
ATOM     24  H   UNL     1       4.535   2.821   1.027  0.00  0.00    +0.149 HD
BRANCH  21  26
ATOM     25  C   UNL     1       4.284   5.720  -0.038  0.00  0.00    +0.033 C 
ATOM     26  C   UNL     1       4.131   4.996   1.301  0.00  0.00    +0.100 C 
BRANCH  26  27
ATOM     27  C   UNL     1       5.437   5.046   2.051  0.00  0.00    -0.027 A 
ATOM     28  C   UNL     1       6.454   4.165   1.731  0.00  0.00    +0.006 A 
ATOM     29  C   UNL     1       7.646   4.215   2.424  0.00  0.00    +0.004 A 
ATOM     30  C   UNL     1       7.833   5.143   3.440  0.00  0.00    -0.044 A 
ATOM     31  C   UNL     1       6.822   6.023   3.755  0.00  0.00    -0.044 A 
ATOM     32  C   UNL     1       5.624   5.973   3.054  0.00  0.00    +0.009 A 
ATOM     33  C   UNL     1       6.959   7.061   4.838  0.00  0.00    +0.035 C 
ATOM     34  C   UNL     1       8.115   6.713   5.773  0.00  0.00    +0.005 C 
ATOM     35  C   UNL     1       9.362   6.443   4.922  0.00  0.00    +0.005 C 
ATOM     36  C   UNL     1       9.154   5.133   4.165  0.00  0.00    +0.035 C 
ENDBRANCH  26  27
ENDBRANCH  21  26
ENDBRANCH  20  22
ENDBRANCH   1  20
TORSDOF 9
