REMARK  Name = ZINC43758343
REMARK  12 active torsions:
REMARK  status: ('A' for Active; 'I' for Inactive)
REMARK    1  A    between atoms: C_1  and  C_2
REMARK    2  A    between atoms: C_2  and  C_4
REMARK    3  A    between atoms: C_2  and  C_10
REMARK    4  A    between atoms: C_4  and  C_5
REMARK    5  A    between atoms: C_5  and  C_6
REMARK    6  A    between atoms: C_6  and  C_7
REMARK    7  A    between atoms: C_7  and  C_8
REMARK    8  A    between atoms: C_7  and  C_9
REMARK    9  A    between atoms: C_16  and  C_37
REMARK   10  A    between atoms: N_25  and  O_26
REMARK   11  A    between atoms: C_29  and  C_36
REMARK   12  A    between atoms: N_33  and  O_34
REMARK                            x       y       z     vdW  Elec       q    Type
REMARK                         _______ _______ _______ _____ _____    ______ ____
ROOT
ATOM      1  C   UNL     1      -1.439  -0.591   0.155  0.00  0.00    -0.002 C 
ATOM      2  C   UNL     1      -1.473  -2.115   0.438  0.00  0.00    +0.004 C 
ATOM      3  C   UNL     1      -2.405  -2.311   1.669  0.00  0.00    +0.004 C 
ATOM      4  C   UNL     1      -3.198  -0.993   1.679  0.00  0.00    -0.001 C 
ATOM      5  C   UNL     1      -2.073   0.032   1.420  0.00  0.00    -0.026 C 
ATOM      6  C   UNL     1      -2.652   1.407   1.228  0.00  0.00    +0.007 C 
ATOM      7  C   UNL     1      -3.706   1.741   2.290  0.00  0.00    +0.005 C 
ATOM      8  C   UNL     1      -3.758   0.729   3.421  0.00  0.00    -0.001 C 
ATOM      9  C   UNL     1      -4.006  -0.686   2.899  0.00  0.00    +0.002 C 
ATOM     10  C   UNL     1      -3.776  -1.687   4.037  0.00  0.00    +0.058 C 
ATOM     11  C   UNL     1      -4.708  -1.296   5.170  0.00  0.00    +0.062 C 
ATOM     12  N   UNL     1      -5.483  -2.162   5.704  0.00  0.00    -0.096 NA
ATOM     13  C   UNL     1      -4.688   0.137   5.642  0.00  0.00    +0.048 C 
ATOM     14  C   UNL     1      -4.854   1.081   4.445  0.00  0.00    -0.020 C 
ATOM     15  C   UNL     1      -6.227   0.898   3.808  0.00  0.00    +0.013 C 
ATOM     16  C   UNL     1      -7.340   1.217   4.811  0.00  0.00    +0.055 C 
ATOM     17  C   UNL     1      -7.128   0.374   6.049  0.00  0.00    +0.058 C 
ATOM     18  N   UNL     1      -8.085  -0.322   6.539  0.00  0.00    -0.097 NA
ATOM     19  C   UNL     1      -5.762   0.376   6.694  0.00  0.00    +0.064 C 
ATOM     20  C   UNL     1      -4.670   2.529   4.916  0.00  0.00    +0.012 C 
ATOM     21  C   UNL     1      -0.994   0.025   2.501  0.00  0.00    +0.012 C 
ENDROOT
BRANCH   1  23
ATOM     22  C   UNL     1       0.003   1.403  -0.261  0.00  0.00    +0.008 C 
ATOM     23  C   UNL     1      -0.001  -0.104   0.004  0.00  0.00    -0.010 C 
BRANCH  23  24
ATOM     24  C   UNL     1       0.662  -0.830  -1.168  0.00  0.00    +0.003 C 
BRANCH  24  25
ATOM     25  C   UNL     1       2.139  -0.436  -1.243  0.00  0.00    +0.001 C 
BRANCH  25  26
ATOM     26  C   UNL     1       2.802  -1.161  -2.415  0.00  0.00    +0.003 C 
BRANCH  26  27
ATOM     27  C   UNL     1       4.279  -0.767  -2.489  0.00  0.00    -0.017 C 
ATOM     28  C   UNL     1       5.004  -1.270  -1.240  0.00  0.00    +0.007 C 
ATOM     29  C   UNL     1       4.912  -1.394  -3.733  0.00  0.00    +0.007 C 
ENDBRANCH  26  27
ENDBRANCH  25  26
ENDBRANCH  24  25
ENDBRANCH  23  24
ENDBRANCH   1  23
BRANCH  12  30
ATOM     30  O   UNL     1      -5.478  -3.499   5.239  0.00  0.00    -0.409 OA
ATOM     31  H   UNL     1      -6.097  -4.080   5.703  0.00  0.00    +0.328 HD
ENDBRANCH  12  30
BRANCH  18  32
ATOM     32  O   UNL     1      -9.360  -0.308   5.921  0.00  0.00    -0.409 OA
ATOM     33  H   UNL     1     -10.017  -0.863   6.363  0.00  0.00    +0.328 HD
ENDBRANCH  18  32
TORSDOF 7
