REMARK  Name = ZINC35939266
REMARK  5 active torsions:
REMARK  status: ('A' for Active; 'I' for Inactive)
REMARK    1  A    between atoms: C_4  and  C_7
REMARK    2  A    between atoms: C_7  and  N_8
REMARK    3  A    between atoms: C_11  and  C_14
REMARK    4  A    between atoms: N_19  and  C_22
REMARK    5  A    between atoms: C_22  and  C_23
REMARK                            x       y       z     vdW  Elec       q    Type
REMARK                         _______ _______ _______ _____ _____    ______ ____
ROOT
ATOM      1  C   UNL     1       7.737  -2.985   4.103  0.00  0.00    +0.266 C 
ATOM      2  O   UNL     1       7.346  -2.536   3.042  0.00  0.00    -0.268 OA
ATOM      3  N   UNL     1       7.058  -2.722   5.237  0.00  0.00    -0.294 N 
ATOM      4  C   UNL     1       5.735  -2.080   5.194  0.00  0.00    +0.123 C 
ATOM      5  C   UNL     1       5.745  -0.881   6.147  0.00  0.00    +0.104 C 
ATOM      6  N   UNL     1       6.177  -1.322   7.480  0.00  0.00    -0.291 NA
ATOM      7  C   UNL     1       7.555  -1.831   7.451  0.00  0.00    +0.104 C 
ATOM      8  C   UNL     1       7.617  -3.075   6.551  0.00  0.00    +0.123 C 
ENDROOT
BRANCH   1  12
ATOM      9  N   UNL     1      10.903  -5.901   6.398  0.00  0.00    -0.319 N 
ATOM     10  C   UNL     1      10.388  -5.187   5.330  0.00  0.00    +0.159 A 
ATOM     11  N   UNL     1       9.303  -4.440   5.274  0.00  0.00    -0.220 NA
ATOM     12  C   UNL     1       8.952  -3.814   4.148  0.00  0.00    +0.135 A 
ATOM     13  C   UNL     1       9.739  -3.957   3.034  0.00  0.00    +0.081 A 
ATOM     14  S   UNL     1      11.023  -5.028   3.667  0.00  0.00    -0.060 S 
ATOM     15  H   UNL     1      10.444  -5.895   7.252  0.00  0.00    +0.148 HD
BRANCH   9  16
ATOM     16  C   UNL     1      12.141  -6.668   6.237  0.00  0.00    +0.138 C 
BRANCH  16  20
ATOM     17  C   UNL     1      13.112  -8.598   9.922  0.00  0.00    +0.000 A 
ATOM     18  C   UNL     1      12.318  -9.243   8.992  0.00  0.00    +0.000 A 
ATOM     19  C   UNL     1      12.003  -8.618   7.800  0.00  0.00    +0.005 A 
ATOM     20  C   UNL     1      12.483  -7.349   7.537  0.00  0.00    -0.030 A 
ATOM     21  C   UNL     1      13.276  -6.703   8.467  0.00  0.00    +0.005 A 
ATOM     22  C   UNL     1      13.592  -7.329   9.659  0.00  0.00    +0.000 A 
ENDBRANCH  16  20
ENDBRANCH   9  16
ENDBRANCH   1  12
BRANCH   6  23
ATOM     23  C   UNL     1       6.036  -0.241   8.464  0.00  0.00    +0.180 C 
BRANCH  23  24
ATOM     24  C   UNL     1       6.251  -0.792   9.850  0.00  0.00    +0.230 C 
ATOM     25  O   UNL     1       6.498  -1.969  10.003  0.00  0.00    -0.274 OA
ATOM     26  N   UNL     1       6.169   0.024  10.920  0.00  0.00    -0.297 N 
ATOM     27  C   UNL     1       5.865   1.452  10.750  0.00  0.00    +0.126 C 
ATOM     28  C   UNL     1       4.640   1.797  11.606  0.00  0.00    +0.125 C 
ATOM     29  N   UNL     1       4.853   1.274  12.963  0.00  0.00    -0.314 N 
ATOM     30  C   UNL     1       5.157  -0.153  13.133  0.00  0.00    +0.125 C 
ATOM     31  C   UNL     1       6.377  -0.499  12.277  0.00  0.00    +0.126 C 
ATOM     32  C   UNL     1       4.768   2.116  14.066  0.00  0.00    +0.099 A 
ATOM     33  C   UNL     1       4.339   3.429  13.901  0.00  0.00    +0.042 A 
ATOM     34  C   UNL     1       4.260   4.255  15.007  0.00  0.00    +0.005 A 
ATOM     35  C   UNL     1       4.614   3.739  16.247  0.00  0.00    +0.018 A 
ATOM     36  C   UNL     1       5.031   2.426  16.338  0.00  0.00    +0.084 A 
ATOM     37  N   UNL     1       5.092   1.659  15.266  0.00  0.00    -0.350 N 
ATOM     38  H   UNL     1       5.384   0.739  15.359  0.00  0.00    +0.166 HD
ENDBRANCH  23  24
ENDBRANCH   6  23
TORSDOF 5
