REMARK  Name = ZINC39882231
REMARK  10 active torsions:
REMARK  status: ('A' for Active; 'I' for Inactive)
REMARK    1  A    between atoms: C_1  and  C_2
REMARK    2  A    between atoms: C_2  and  C_3
REMARK    3  A    between atoms: C_2  and  N_4
REMARK    4  A    between atoms: C_5  and  C_7
REMARK    5  A    between atoms: C_7  and  N_17
REMARK    6  A    between atoms: C_8  and  C_9
REMARK    7  A    between atoms: C_18  and  C_20
REMARK    8  A    between atoms: C_20  and  C_21
REMARK    9  A    between atoms: C_20  and  C_22
REMARK   10  A    between atoms: C_20  and  C_23
REMARK                            x       y       z     vdW  Elec       q    Type
REMARK                         _______ _______ _______ _____ _____    ______ ____
ROOT
ATOM      1  C   UNL     1      -3.353  -1.461  -1.342  0.00  0.00    +0.097 C 
ATOM      2  C   UNL     1      -4.090  -1.236  -2.455  0.00  0.00    +0.039 C 
ENDROOT
BRANCH   2   3
ATOM      3  C   UNL     1      -3.423  -1.026  -3.748  0.00  0.00    +0.014 A 
ATOM      4  C   UNL     1      -2.584   0.079  -3.937  0.00  0.00    +0.050 A 
ATOM      5  C   UNL     1      -1.962   0.268  -5.154  0.00  0.00    +0.020 A 
ATOM      6  C   UNL     1      -2.166  -0.630  -6.187  0.00  0.00    +0.003 A 
ATOM      7  C   UNL     1      -2.994  -1.725  -6.010  0.00  0.00    +0.020 A 
ATOM      8  C   UNL     1      -3.619  -1.933  -4.797  0.00  0.00    +0.050 A 
ATOM      9 CL   UNL     1      -4.651  -3.311  -4.575  0.00  0.00    -0.083 Cl
ATOM     10 CL   UNL     1      -2.327   1.207  -2.643  0.00  0.00    -0.083 Cl
ENDBRANCH   2   3
BRANCH   1  12
ATOM     11  N   UNL     1      -1.392  -2.771  -1.968  0.00  0.00    -0.308 N 
ATOM     12  C   UNL     1      -1.898  -1.635  -1.448  0.00  0.00    +0.258 C 
ATOM     13  O   UNL     1      -1.151  -0.755  -1.065  0.00  0.00    -0.269 OA
ATOM     14  H   UNL     1      -1.983  -3.502  -2.205  0.00  0.00    +0.149 HD
BRANCH  11  16
ATOM     15  C   UNL     1       0.713  -3.374  -0.878  0.00  0.00    +0.027 C 
ATOM     16  C   UNL     1       0.053  -2.901  -2.175  0.00  0.00    +0.067 C 
ATOM     17  C   UNL     1       0.319  -3.921  -3.284  0.00  0.00    +0.027 C 
ENDBRANCH  11  16
ENDBRANCH   1  12
BRANCH   1  18
ATOM     18  N   UNL     1      -3.977  -1.527  -0.091  0.00  0.00    -0.281 N 
ATOM     19  C   UNL     1      -3.263  -1.864   1.001  0.00  0.00    +0.223 C 
ATOM     20  O   UNL     1      -2.062  -2.015   0.917  0.00  0.00    -0.275 OA
ATOM     21  H   UNL     1      -4.924  -1.331  -0.011  0.00  0.00    +0.155 HD
BRANCH  19  22
ATOM     22  C   UNL     1      -3.956  -2.052   2.326  0.00  0.00    +0.039 C 
ATOM     23  C   UNL     1      -2.925  -2.428   3.392  0.00  0.00    +0.020 C 
ATOM     24  C   UNL     1      -4.653  -0.750   2.726  0.00  0.00    +0.020 C 
ATOM     25  C   UNL     1      -4.994  -3.170   2.204  0.00  0.00    +0.020 C 
ENDBRANCH  19  22
ENDBRANCH   1  18
TORSDOF 5
