REMARK  Name = ZINC44021243
REMARK  5 active torsions:
REMARK  status: ('A' for Active; 'I' for Inactive)
REMARK    1  A    between atoms: C_1  and  C_2
REMARK    2  A    between atoms: C_2  and  C_3
REMARK    3  A    between atoms: C_8  and  N_9
REMARK    4  A    between atoms: N_9  and  C_10
REMARK    5  A    between atoms: N_14  and  C_19
REMARK                            x       y       z     vdW  Elec       q    Type
REMARK                         _______ _______ _______ _____ _____    ______ ____
ROOT
ATOM      1  C   UNL     1       4.189  -0.464  -0.188  0.00  0.00    +0.109 A 
ATOM      2  C   UNL     1       4.967  -0.335   0.929  0.00  0.00    +0.112 A 
ATOM      3  C   UNL     1       6.351  -0.546   0.825  0.00  0.00    +0.259 A 
ATOM      4  O   UNL     1       7.064  -0.436   1.808  0.00  0.00    -0.267 OA
ATOM      5  N   UNL     1       6.887  -0.871  -0.368  0.00  0.00    -0.255 N 
ATOM      6  C   UNL     1       6.107  -0.994  -1.458  0.00  0.00    +0.331 A 
ATOM      7  O   UNL     1       6.611  -1.288  -2.524  0.00  0.00    -0.246 OA
ATOM      8  N   UNL     1       4.777  -0.802  -1.383  0.00  0.00    -0.295 N 
ATOM      9  H   UNL     1       4.231  -0.899  -2.179  0.00  0.00    +0.172 HD
ENDROOT
BRANCH   5  10
ATOM     10  C   UNL     1       8.331  -1.091  -0.480  0.00  0.00    +0.054 C 
ATOM     11  C   UNL     1       8.592  -2.514  -0.977  0.00  0.00    +0.032 C 
ATOM     12  C   UNL     1      10.101  -2.744  -1.093  0.00  0.00    -0.008 C 
ATOM     13  C   UNL     1      10.753  -2.554   0.277  0.00  0.00    +0.007 C 
ATOM     14  C   UNL     1      10.491  -1.131   0.774  0.00  0.00    -0.008 C 
ATOM     15  C   UNL     1       8.983  -0.901   0.891  0.00  0.00    +0.032 C 
ATOM     16  C   UNL     1      11.085  -0.128  -0.217  0.00  0.00    +0.007 C 
ATOM     17  C   UNL     1      10.432  -0.318  -1.588  0.00  0.00    -0.008 C 
ATOM     18  C   UNL     1      10.694  -1.741  -2.084  0.00  0.00    +0.007 C 
ATOM     19  C   UNL     1       8.924  -0.088  -1.471  0.00  0.00    +0.032 C 
ENDBRANCH   5  10
BRANCH   1  20
ATOM     20  N   UNL     1       2.833  -0.264  -0.115  0.00  0.00    -0.300 N 
ATOM     21  H   UNL     1       2.298  -0.791   0.499  0.00  0.00    +0.154 HD
BRANCH  20  27
ATOM     22  C   UNL     1       0.841   0.818  -0.944  0.00  0.00    -0.026 A 
ATOM     23  C   UNL     1       0.242   1.774  -1.742  0.00  0.00    +0.005 A 
ATOM     24  C   UNL     1       1.019   2.608  -2.525  0.00  0.00    +0.000 A 
ATOM     25  C   UNL     1       2.397   2.488  -2.512  0.00  0.00    +0.002 A 
ATOM     26  C   UNL     1       3.001   1.535  -1.717  0.00  0.00    +0.023 A 
ATOM     27  C   UNL     1       2.224   0.699  -0.925  0.00  0.00    +0.036 A 
BRANCH  22  29
ATOM     28  C   UNL     1      -0.122   0.495   1.318  0.00  0.00    +0.009 C 
ATOM     29  C   UNL     1      -0.007  -0.090  -0.090  0.00  0.00    +0.033 C 
ENDBRANCH  22  29
ENDBRANCH  20  27
ENDBRANCH   1  20
TORSDOF 4
