REMARK  Name = ZINC53686361
REMARK  7 active torsions:
REMARK  status: ('A' for Active; 'I' for Inactive)
REMARK    1  A    between atoms: C_1  and  C_2
REMARK    2  A    between atoms: C_2  and  C_4
REMARK    3  A    between atoms: C_2  and  N_10
REMARK    4  A    between atoms: C_13  and  N_16
REMARK    5  A    between atoms: N_16  and  S_17
REMARK    6  A    between atoms: S_17  and  C_20
REMARK    7  A    between atoms: N_22  and  C_25
REMARK                            x       y       z     vdW  Elec       q    Type
REMARK                         _______ _______ _______ _____ _____    ______ ____
ROOT
ATOM      1  N   UNL     1       0.713  -0.491   1.192  0.00  0.00    +0.383 N 
ATOM      2  C   UNL     1      -0.018  -0.094   2.423  0.00  0.00    -0.080 C 
ATOM      3  C   UNL     1       0.491  -1.107   3.479  0.00  0.00    -0.041 C 
ATOM      4  C   UNL     1       0.621  -2.416   2.668  0.00  0.00    -0.118 C 
ATOM      5  C   UNL     1       0.742  -1.969   1.200  0.00  0.00    -0.100 C 
ATOM      6  H   UNL     1       1.652  -0.124   1.211  0.00  0.00    -0.081 HD
ENDROOT
BRANCH   1   8
ATOM      7  C   UNL     1      -0.019   1.526   0.010  0.00  0.00    -0.008 C 
ATOM      8  C   UNL     1       0.002  -0.004   0.002  0.00  0.00    -0.041 C 
BRANCH   8   9
ATOM      9  C   UNL     1       0.707  -0.490  -1.238  0.00  0.00    -0.061 A 
ATOM     10  C   UNL     1       2.089  -0.511  -1.284  0.00  0.00    +0.002 A 
ATOM     11  C   UNL     1       2.736  -0.957  -2.421  0.00  0.00    +0.000 A 
ATOM     12  C   UNL     1       2.002  -1.382  -3.512  0.00  0.00    +0.000 A 
ATOM     13  C   UNL     1       0.620  -1.362  -3.466  0.00  0.00    +0.000 A 
ATOM     14  C   UNL     1      -0.027  -0.920  -2.327  0.00  0.00    +0.002 A 
ENDBRANCH   8   9
ENDBRANCH   1   8
BRANCH   4  15
ATOM     15  N   UNL     1       1.820  -3.151   3.079  0.00  0.00    +0.470 NA
BRANCH  15  16
ATOM     16  S   UNL     1       1.971  -3.683   4.639  0.00  0.00    -0.042 S 
ATOM     17  O   UNL     1       2.067  -2.525   5.456  0.00  0.00    -0.190 OA
ATOM     18  O   UNL     1       0.966  -4.670   4.832  0.00  0.00    -0.190 OA
BRANCH  16  19
ATOM     19  C   UNL     1       3.521  -4.514   4.759  0.00  0.00    +0.168 A 
ATOM     20  C   UNL     1       3.864  -5.648   4.115  0.00  0.00    +0.150 A 
ATOM     21  N   UNL     1       5.147  -5.943   4.490  0.00  0.00    -0.325 N 
ATOM     22  C   UNL     1       5.544  -4.978   5.350  0.00  0.00    +0.176 A 
ATOM     23  N   UNL     1       4.568  -4.125   5.502  0.00  0.00    -0.332 N 
ATOM     24  C   UNL     1       5.941  -7.089   4.043  0.00  0.00    +0.151 C 
ATOM     25 CL   UNL     1       2.869  -6.558   3.022  0.00  0.00    -0.060 Cl
ATOM     26  H   UNL     1       4.595  -3.336   6.065  0.00  0.00    +0.168 HD
ENDBRANCH  16  19
ENDBRANCH  15  16
ENDBRANCH   4  15
TORSDOF 5
