REMARK  Name = ZINC02769123
REMARK  10 active torsions:
REMARK  status: ('A' for Active; 'I' for Inactive)
REMARK    1  A    between atoms: C_1  and  C_2
REMARK    2  A    between atoms: C_2  and  C_3
REMARK    3  A    between atoms: C_3  and  C_4
REMARK    4  A    between atoms: C_4  and  C_5
REMARK    5  A    between atoms: C_5  and  C_6
REMARK    6  A    between atoms: C_18  and  C_35
REMARK    7  A    between atoms: C_25  and  C_27
REMARK    8  A    between atoms: C_30  and  O_33
REMARK    9  A    between atoms: O_33  and  C_34
REMARK   10  A    between atoms: C_38  and  C_41
REMARK                            x       y       z     vdW  Elec       q    Type
REMARK                         _______ _______ _______ _____ _____    ______ ____
ROOT
ATOM      1  C   UNL     1       0.534   0.140  -3.379  0.00  0.00    +0.220 C 
ATOM      2  O   UNL     1       1.018   0.823  -4.257  0.00  0.00    -0.275 OA
ATOM      3  N   UNL     1       1.101   0.112  -2.157  0.00  0.00    -0.261 N 
ATOM      4  C   UNL     1       0.549  -0.673  -1.137  0.00  0.00    +0.058 A 
ATOM      5  C   UNL     1       0.568  -2.054  -1.199  0.00  0.00    +0.025 A 
ATOM      6  C   UNL     1       0.059  -2.798  -0.149  0.00  0.00    +0.002 A 
ATOM      7  C   UNL     1      -0.468  -2.167   0.963  0.00  0.00    +0.002 A 
ATOM      8  C   UNL     1      -0.500  -0.785   1.031  0.00  0.00    +0.025 A 
ATOM      9  C   UNL     1      -0.002  -0.035  -0.018  0.00  0.00    +0.053 A 
ATOM     10  N   UNL     1      -0.032   1.363  -0.001  0.00  0.00    -0.316 N 
ATOM     11  C   UNL     1       1.175   2.075   0.004  0.00  0.00    +0.017 C 
ATOM     12  C   UNL     1       1.598   2.545   1.152  0.00  0.00    +0.001 C 
ATOM     13  C   UNL     1       2.846   3.353   1.340  0.00  0.00    +0.050 C 
ATOM     14  C   UNL     1       3.868   2.993   0.256  0.00  0.00    +0.087 C 
ATOM     15  C   UNL     1       3.163   3.077  -1.080  0.00  0.00    +0.145 C 
ATOM     16  O   UNL     1       3.593   3.784  -1.960  0.00  0.00    -0.297 OA
ATOM     17  C   UNL     1       1.913   2.261  -1.290  0.00  0.00    +0.124 C 
ATOM     18  C   UNL     1       2.302   0.903  -1.877  0.00  0.00    +0.127 C 
ATOM     19  H   UNL     1      -0.879   1.835   0.004  0.00  0.00    +0.152 HD
ENDROOT
BRANCH  18  20
ATOM     20  C   UNL     1       3.170   0.163  -0.892  0.00  0.00    -0.025 A 
ATOM     21  C   UNL     1       4.411  -0.307  -1.282  0.00  0.00    +0.009 A 
ATOM     22  C   UNL     1       5.210  -0.981  -0.379  0.00  0.00    +0.046 A 
ATOM     23  C   UNL     1       4.762  -1.196   0.916  0.00  0.00    +0.120 A 
ATOM     24  C   UNL     1       3.515  -0.729   1.303  0.00  0.00    +0.046 A 
ATOM     25  C   UNL     1       2.721  -0.051   0.398  0.00  0.00    +0.009 A 
BRANCH  23  26
ATOM     26  O   UNL     1       5.545  -1.863   1.805  0.00  0.00    -0.495 OA
ATOM     27  C   UNL     1       6.817  -2.315   1.337  0.00  0.00    +0.277 C 
ENDBRANCH  23  26
ENDBRANCH  18  20
BRANCH  13  28
ATOM     28  C   UNL     1       2.512   4.819   1.245  0.00  0.00    -0.040 A 
ATOM     29  C   UNL     1       1.968   5.331   0.082  0.00  0.00    +0.005 A 
ATOM     30  C   UNL     1       1.656   6.675  -0.003  0.00  0.00    +0.012 A 
ATOM     31  C   UNL     1       1.900   7.510   1.071  0.00  0.00    +0.055 A 
ATOM     32  C   UNL     1       2.448   6.999   2.233  0.00  0.00    +0.012 A 
ATOM     33  C   UNL     1       2.754   5.654   2.320  0.00  0.00    +0.005 A 
BRANCH  31  34
ATOM     34  C   UNL     1       1.566   8.976   0.977  0.00  0.00    +0.417 C 
ATOM     35  F   UNL     1       2.673   9.675   0.483  0.00  0.00    -0.166 F 
ATOM     36  F   UNL     1       0.480   9.153   0.113  0.00  0.00    -0.166 F 
ATOM     37  F   UNL     1       1.235   9.462   2.246  0.00  0.00    -0.166 F 
ENDBRANCH  31  34
ENDBRANCH  13  28
BRANCH   1  38
ATOM     38  C   UNL     1      -0.702  -0.677  -3.656  0.00  0.00    +0.096 C 
BRANCH  38  39
ATOM     39  C   UNL     1      -1.138  -0.468  -5.107  0.00  0.00    +0.009 C 
BRANCH  39  40
ATOM     40  C   UNL     1      -2.392  -1.298  -5.388  0.00  0.00    +0.000 C 
BRANCH  40  42
ATOM     41  C   UNL     1      -4.082  -1.918  -7.120  0.00  0.00    +0.004 C 
ATOM     42  C   UNL     1      -2.828  -1.088  -6.839  0.00  0.00    -0.003 C 
ENDBRANCH  40  42
ENDBRANCH  39  40
ENDBRANCH  38  39
ENDBRANCH   1  38
TORSDOF 8
