REMARK  Name = ZINC39566472
REMARK  6 active torsions:
REMARK  status: ('A' for Active; 'I' for Inactive)
REMARK    1  A    between atoms: C_3  and  C_8
REMARK    2  A    between atoms: C_8  and  N_9
REMARK    3  A    between atoms: C_10  and  C_12
REMARK    4  A    between atoms: C_12  and  O_13
REMARK    5  A    between atoms: O_13  and  C_14
REMARK    6  A    between atoms: C_14  and  C_16
REMARK                            x       y       z     vdW  Elec       q    Type
REMARK                         _______ _______ _______ _____ _____    ______ ____
ROOT
ATOM      1  C   UNL     1       7.453   4.394   4.204  0.00  0.00    +0.340 C 
ATOM      2  O   UNL     1       6.895   4.049   5.226  0.00  0.00    -0.245 OA
ENDROOT
BRANCH   1   3
ATOM      3  C   UNL     1       8.719   5.148   4.273  0.00  0.00    +0.060 A 
ATOM      4  C   UNL     1       9.369   5.556   3.103  0.00  0.00    +0.017 A 
ATOM      5  C   UNL     1      10.545   6.258   3.156  0.00  0.00    +0.025 A 
ATOM      6  C   UNL     1      11.136   6.591   4.390  0.00  0.00    +0.050 A 
ATOM      7  C   UNL     1      10.466   6.171   5.546  0.00  0.00    +0.038 A 
ATOM      8  C   UNL     1       9.287   5.474   5.510  0.00  0.00    +0.032 A 
ATOM      9  S   UNL     1      11.501   6.768   6.861  0.00  0.00    -0.051 S 
ATOM     10  C   UNL     1      12.755   7.528   5.853  0.00  0.00    +0.186 C 
ATOM     11  N   UNL     1      13.815   8.142   6.280  0.00  0.00    -0.110 NA
ATOM     12  S   UNL     1      14.872   8.785   5.169  0.00  0.00    +0.073 S 
ATOM     13  O   UNL     1      16.166   8.524   5.695  0.00  0.00    -0.151 OA
ATOM     14  O   UNL     1      14.424  10.118   4.963  0.00  0.00    -0.151 OA
ATOM     15  C   UNL     1      14.576   7.778   3.683  0.00  0.00    +0.212 C 
ATOM     16  C   UNL     1      13.077   7.789   3.378  0.00  0.00    +0.137 C 
ATOM     17  N   UNL     1      12.327   7.303   4.564  0.00  0.00    -0.276 N 
ENDBRANCH   1   3
BRANCH   1  18
ATOM     18  O   UNL     1       6.917   4.087   3.006  0.00  0.00    -0.452 OA
BRANCH  18  19
ATOM     19  C   UNL     1       5.689   3.354   3.014  0.00  0.00    +0.328 C 
BRANCH  19  21
ATOM     20  N   UNL     1       4.104   2.427   1.357  0.00  0.00    -0.308 N 
ATOM     21  C   UNL     1       5.245   3.104   1.596  0.00  0.00    +0.251 C 
ATOM     22  O   UNL     1       5.912   3.513   0.670  0.00  0.00    -0.272 OA
ATOM     23  H   UNL     1       3.570   2.100   2.098  0.00  0.00    +0.149 HD
BRANCH  20  24
ATOM     24  C   UNL     1       3.672   2.184  -0.021  0.00  0.00    +0.139 C 
BRANCH  24  27
ATOM     25  C   UNL     1      -0.017   1.378   0.010  0.00  0.00    +0.002 A 
ATOM     26  C   UNL     1       1.171   2.086   0.002  0.00  0.00    +0.005 A 
ATOM     27  C   UNL     1       2.378   1.412  -0.013  0.00  0.00    -0.029 A 
ATOM     28  C   UNL     1       2.398   0.029  -0.021  0.00  0.00    +0.025 A 
ATOM     29  C   UNL     1       1.210  -0.679  -0.013  0.00  0.00    +0.041 A 
ATOM     30  C   UNL     1       0.002  -0.004   0.002  0.00  0.00    +0.020 A 
ATOM     31 CL   UNL     1       1.234  -2.415  -0.024  0.00  0.00    -0.084 Cl
ENDBRANCH  24  27
ENDBRANCH  20  24
ENDBRANCH  19  21
ENDBRANCH  18  19
ENDBRANCH   1  18
TORSDOF 6
