REMARK  Name = ZINC03376309
REMARK  13 active torsions:
REMARK  status: ('A' for Active; 'I' for Inactive)
REMARK    1  A    between atoms: C_1  and  C_2
REMARK    2  A    between atoms: C_2  and  C_4
REMARK    3  A    between atoms: C_2  and  N_32
REMARK    4  A    between atoms: C_7  and  S_16
REMARK    5  A    between atoms: N_8  and  C_9
REMARK    6  A    between atoms: S_16  and  C_17
REMARK    7  A    between atoms: C_17  and  C_19
REMARK    8  A    between atoms: C_17  and  C_20
REMARK    9  A    between atoms: N_22  and  C_23
REMARK   10  A    between atoms: C_28  and  O_29
REMARK   11  A    between atoms: O_29  and  C_30
REMARK   12  A    between atoms: N_32  and  C_33
REMARK   13  A    between atoms: N_32  and  C_34
REMARK                            x       y       z     vdW  Elec       q    Type
REMARK                         _______ _______ _______ _____ _____    ______ ____
ROOT
ATOM      1  C   UNL     1      -9.447   0.934  -1.349  0.00  0.00    +0.125 A 
ATOM      2  N   UNL     1      -8.638   1.831  -0.861  0.00  0.00    -0.135 NA
ATOM      3  N   UNL     1      -7.488   1.309  -0.625  0.00  0.00    -0.122 NA
ATOM      4  C   UNL     1      -7.496   0.040  -0.962  0.00  0.00    +0.197 A 
ATOM      5  N   UNL     1      -8.749  -0.241  -1.432  0.00  0.00    -0.275 N 
ENDROOT
BRANCH   5   6
ATOM      6  C   UNL     1      -9.221  -1.476  -1.901  0.00  0.00    +0.050 A 
ATOM      7  C   UNL     1      -9.596  -1.618  -3.230  0.00  0.00    +0.028 A 
ATOM      8  C   UNL     1     -10.056  -2.837  -3.690  0.00  0.00    +0.022 A 
ATOM      9  C   UNL     1     -10.153  -3.912  -2.825  0.00  0.00    +0.041 A 
ATOM     10  C   UNL     1      -9.785  -3.772  -1.499  0.00  0.00    +0.022 A 
ATOM     11  C   UNL     1      -9.319  -2.557  -1.035  0.00  0.00    +0.028 A 
ATOM     12 CL   UNL     1     -10.738  -5.441  -3.405  0.00  0.00    -0.084 Cl
ENDBRANCH   5   6
BRANCH   1  14
ATOM     13  C   UNL     1     -11.754   1.247  -0.494  0.00  0.00    -0.005 C 
ATOM     14  C   UNL     1     -10.884   1.150  -1.749  0.00  0.00    -0.003 C 
BRANCH  14  15
ATOM     15  N   UNL     1     -10.996   2.395  -2.520  0.00  0.00    +0.382 N 
ATOM     16  C   UNL     1     -12.362   2.578  -3.029  0.00  0.00    -0.096 C 
ATOM     17  C   UNL     1     -10.573   3.551  -1.718  0.00  0.00    -0.096 C 
ATOM     18  H   UNL     1     -10.321   2.319  -3.385  0.00  0.00    -0.082 HD
ENDBRANCH  14  15
ENDBRANCH   1  14
BRANCH   4  19
ATOM     19  S   UNL     1      -6.149  -1.088  -0.828  0.00  0.00    -0.073 S 
BRANCH  19  20
ATOM     20  C   UNL     1      -4.885   0.011  -0.143  0.00  0.00    +0.137 C 
ATOM     21  C   UNL     1      -5.310   0.470   1.254  0.00  0.00    +0.029 C 
BRANCH  20  22
ATOM     22  C   UNL     1      -3.574  -0.726  -0.052  0.00  0.00    +0.230 C 
ATOM     23  O   UNL     1      -3.558  -1.939  -0.059  0.00  0.00    -0.274 OA
ATOM     24  N   UNL     1      -2.418  -0.038   0.037  0.00  0.00    -0.282 N 
ATOM     25  H   UNL     1      -2.437   1.058   0.134  0.00  0.00    +0.155 HD
BRANCH  24  26
ATOM     26  C   UNL     1      -1.193  -0.717   0.004  0.00  0.00    +0.077 A 
ATOM     27  C   UNL     1      -1.103  -1.958  -0.611  0.00  0.00    +0.047 A 
ATOM     28  C   UNL     1       0.106  -2.629  -0.636  0.00  0.00    +0.043 A 
ATOM     29  C   UNL     1       1.227  -2.064  -0.054  0.00  0.00    +0.024 A 
ATOM     30  C   UNL     1       1.144  -0.826   0.555  0.00  0.00    +0.049 A 
ATOM     31  C   UNL     1      -0.063  -0.147   0.585  0.00  0.00    +0.141 A 
ATOM     32 CL   UNL     1       0.217  -4.184  -1.401  0.00  0.00    -0.083 Cl
BRANCH  31  33
ATOM     33  O   UNL     1      -0.146   1.070   1.185  0.00  0.00    -0.493 OA
ATOM     34  C   UNL     1       1.052   1.590   1.765  0.00  0.00    +0.277 C 
ENDBRANCH  31  33
ENDBRANCH  24  26
ENDBRANCH  20  22
ENDBRANCH  19  20
ENDBRANCH   4  19
TORSDOF 8
