REMARK  Name = ZINC16660102
REMARK  11 active torsions:
REMARK  status: ('A' for Active; 'I' for Inactive)
REMARK    1  A    between atoms: C_1  and  C_2
REMARK    2  A    between atoms: C_5  and  O_11
REMARK    3  A    between atoms: C_6  and  N_8
REMARK    4  A    between atoms: O_11  and  C_12
REMARK    5  A    between atoms: C_12  and  C_13
REMARK    6  A    between atoms: N_15  and  C_16
REMARK    7  A    between atoms: C_17  and  C_30
REMARK    8  A    between atoms: C_18  and  C_29
REMARK    9  A    between atoms: C_19  and  C_28
REMARK   10  A    between atoms: N_20  and  C_21
REMARK   11  A    between atoms: C_21  and  C_22
REMARK                            x       y       z     vdW  Elec       q    Type
REMARK                         _______ _______ _______ _____ _____    ______ ____
ROOT
ATOM      1  C   UNL     1      -3.389   0.894   0.940  0.00  0.00    +0.256 C 
ATOM      2  O   UNL     1      -2.629   0.060   1.384  0.00  0.00    -0.272 OA
ATOM      3  N   UNL     1      -2.909   1.928   0.221  0.00  0.00    -0.268 N 
ATOM      4  H   UNL     1      -3.521   2.554  -0.197  0.00  0.00    +0.156 HD
ENDROOT
BRANCH   3   5
ATOM      5  C   UNL     1      -1.540   2.098   0.079  0.00  0.00    +0.124 A 
ATOM      6  C   UNL     1      -0.693   1.303  -0.681  0.00  0.00    +0.095 A 
ATOM      7  C   UNL     1       0.649   1.876  -0.523  0.00  0.00    -0.011 A 
ATOM      8  C   UNL     1       0.523   2.934   0.294  0.00  0.00    +0.022 A 
ATOM      9  N   UNL     1      -0.790   3.068   0.661  0.00  0.00    -0.327 N 
ATOM     10  C   UNL     1       1.648   3.832   0.738  0.00  0.00    +0.064 C 
ATOM     11  C   UNL     1       1.922   1.374  -1.155  0.00  0.00    +0.047 C 
BRANCH   6  12
ATOM     12  C   UNL     1      -1.056   0.160  -1.464  0.00  0.00    +0.103 C 
ATOM     13  N   UNL     1      -1.344  -0.747  -2.086  0.00  0.00    -0.191 NA
ENDBRANCH   6  12
BRANCH   9  14
ATOM     14  C   UNL     1      -1.310   4.112   1.547  0.00  0.00    +0.158 C 
BRANCH  14  15
ATOM     15  C   UNL     1      -1.615   5.349   0.742  0.00  0.00    -0.028 A 
ATOM     16  C   UNL     1      -0.683   6.367   0.658  0.00  0.00    +0.005 A 
ATOM     17  C   UNL     1      -0.961   7.499  -0.084  0.00  0.00    +0.000 A 
ATOM     18  C   UNL     1      -2.175   7.618  -0.735  0.00  0.00    +0.000 A 
ATOM     19  C   UNL     1      -3.109   6.603  -0.647  0.00  0.00    +0.000 A 
ATOM     20  C   UNL     1      -2.829   5.468   0.091  0.00  0.00    +0.005 A 
ENDBRANCH  14  15
ENDBRANCH   9  14
ENDBRANCH   3   5
BRANCH   1  21
ATOM     21  C   UNL     1      -4.870   0.775   1.193  0.00  0.00    +0.325 C 
BRANCH  21  22
ATOM     22  O   UNL     1      -5.128  -0.394   1.972  0.00  0.00    -0.480 OA
BRANCH  22  27
ATOM     23  C   UNL     1     -10.500  -1.456   3.289  0.00  0.00    +0.044 C 
ATOM     24  C   UNL     1      -9.063  -1.172   2.937  0.00  0.00    -0.048 A 
ATOM     25  C   UNL     1      -8.744  -0.056   2.186  0.00  0.00    +0.007 A 
ATOM     26  C   UNL     1      -7.428   0.207   1.861  0.00  0.00    +0.048 A 
ATOM     27  C   UNL     1      -6.424  -0.650   2.291  0.00  0.00    +0.151 A 
ATOM     28  C   UNL     1      -6.747  -1.772   3.040  0.00  0.00    +0.168 A 
ATOM     29  C   UNL     1      -8.065  -2.027   3.366  0.00  0.00    +0.039 A 
BRANCH  28  30
ATOM     30  N   UNL     1      -5.680  -2.691   3.495  0.00  0.00    +0.060 N 
ATOM     31  O   UNL     1      -5.964  -3.675   4.153  0.00  0.00    -0.126 OA
ATOM     32  O   UNL     1      -4.518  -2.462   3.211  0.00  0.00    -0.126 OA
ENDBRANCH  28  30
ENDBRANCH  22  27
ENDBRANCH  21  22
ENDBRANCH   1  21
TORSDOF 8
