REMARK  Name = ZINC35056970
REMARK  10 active torsions:
REMARK  status: ('A' for Active; 'I' for Inactive)
REMARK    1  A    between atoms: C_1  and  C_2
REMARK    2  A    between atoms: C_2  and  C_4
REMARK    3  A    between atoms: C_2  and  O_7
REMARK    4  A    between atoms: O_7  and  C_8
REMARK    5  A    between atoms: C_10  and  N_33
REMARK    6  A    between atoms: C_12  and  S_25
REMARK    7  A    between atoms: C_20  and  C_23
REMARK    8  A    between atoms: C_20  and  C_24
REMARK    9  A    between atoms: S_25  and  C_26
REMARK   10  A    between atoms: C_34  and  C_36
REMARK                            x       y       z     vdW  Elec       q    Type
REMARK                         _______ _______ _______ _____ _____    ______ ____
ROOT
ATOM      1  C   UNL     1      -0.464  -0.757  -2.281  0.00  0.00    +0.174 C 
ATOM      2  C   UNL     1      -0.431   0.474  -3.195  0.00  0.00    +0.143 C 
ATOM      3  C   UNL     1      -1.345   0.246  -4.400  0.00  0.00    +0.203 C 
ATOM      4  O   UNL     1      -0.957  -0.947  -5.089  0.00  0.00    -0.356 OA
ATOM      5  C   UNL     1      -1.040  -2.119  -4.281  0.00  0.00    +0.177 C 
ATOM      6  C   UNL     1      -0.069  -1.984  -3.101  0.00  0.00    +0.183 C 
ATOM      7  O   UNL     1      -0.136  -3.174  -2.314  0.00  0.00    -0.341 OA
ATOM      8  C   UNL     1       0.197  -4.354  -3.053  0.00  0.00    +0.165 C 
ATOM      9  O   UNL     1      -0.675  -4.494  -4.175  0.00  0.00    -0.347 OA
ATOM     10  C   UNL     1      -0.661  -3.369  -5.077  0.00  0.00    +0.197 C 
ATOM     11  C   UNL     1       1.643  -4.255  -3.543  0.00  0.00    +0.074 C 
ATOM     12  C   UNL     1       0.055  -5.578  -2.145  0.00  0.00    +0.074 C 
ENDROOT
BRANCH   2  13
ATOM     13  N   UNL     1      -0.893   1.648  -2.449  0.00  0.00    -0.307 N 
ATOM     14  C   UNL     1      -0.473   2.879  -2.802  0.00  0.00    +0.210 C 
ATOM     15  O   UNL     1       0.287   3.015  -3.737  0.00  0.00    -0.276 OA
ATOM     16  C   UNL     1      -0.949   4.086  -2.035  0.00  0.00    +0.109 C 
ATOM     17  H   UNL     1      -1.501   1.539  -1.701  0.00  0.00    +0.149 HD
ENDBRANCH   2  13
BRANCH   1  18
ATOM     18  O   UNL     1       0.459  -0.581  -1.204  0.00  0.00    -0.358 OA
BRANCH  18  20
ATOM     19  C   UNL     1      -0.801  -0.172   0.817  0.00  0.00    +0.050 C 
ATOM     20  C   UNL     1       0.039  -1.176   0.025  0.00  0.00    +0.228 C 
BRANCH  20  21
ATOM     21  C   UNL     1       1.249  -1.567   0.834  0.00  0.00    +0.384 C 
ATOM     22  O   UNL     1       1.111  -2.176   1.881  0.00  0.00    -0.243 OA
ATOM     23  O   UNL     1       2.365  -1.274   0.441  0.00  0.00    -0.243 OA
ENDBRANCH  20  21
ENDBRANCH  18  20
ENDBRANCH   1  18
BRANCH   3  24
ATOM     24  S   UNL     1      -3.060   0.080  -3.833  0.00  0.00    -0.092 S 
BRANCH  24  25
ATOM     25  C   UNL     1      -3.993  -0.027  -5.323  0.00  0.00    +0.010 A 
ATOM     26  C   UNL     1      -3.349   0.021  -6.553  0.00  0.00    +0.016 A 
ATOM     27  C   UNL     1      -4.083  -0.064  -7.720  0.00  0.00    +0.016 A 
ATOM     28  C   UNL     1      -5.460  -0.195  -7.664  0.00  0.00    +0.018 A 
ATOM     29  C   UNL     1      -6.104  -0.243  -6.441  0.00  0.00    +0.016 A 
ATOM     30  C   UNL     1      -5.375  -0.164  -5.271  0.00  0.00    +0.016 A 
ATOM     31 BR   UNL     1      -6.462  -0.310  -9.264  0.00  0.00    -0.050 Br
ENDBRANCH  24  25
ENDBRANCH   3  24
TORSDOF 6
