REMARK  Name = ZINC39666649
REMARK  9 active torsions:
REMARK  status: ('A' for Active; 'I' for Inactive)
REMARK    1  A    between atoms: C_1  and  C_2
REMARK    2  A    between atoms: C_6  and  C_8
REMARK    3  A    between atoms: C_8  and  C_9
REMARK    4  A    between atoms: C_13  and  C_22
REMARK    5  A    between atoms: N_24  and  C_25
REMARK    6  A    between atoms: C_25  and  C_26
REMARK    7  A    between atoms: C_26  and  C_28
REMARK    8  A    between atoms: C_26  and  O_29
REMARK    9  A    between atoms: O_29  and  C_30
REMARK                            x       y       z     vdW  Elec       q    Type
REMARK                         _______ _______ _______ _____ _____    ______ ____
ROOT
ATOM      1  C   UNL     1       1.424  -3.063   2.904  0.00  0.00    +0.220 C 
ATOM      2  O   UNL     1       2.331  -2.657   2.209  0.00  0.00    -0.275 OA
ATOM      3  N   UNL     1       1.694  -3.734   4.042  0.00  0.00    -0.300 N 
ATOM      4  C   UNL     1       0.730  -4.308   5.009  0.00  0.00    +0.121 C 
ATOM      5  C   UNL     1       1.356  -5.655   5.432  0.00  0.00    +0.100 C 
ATOM      6  C   UNL     1       2.862  -5.488   5.168  0.00  0.00    -0.004 C 
ATOM      7  C   UNL     1       3.024  -4.069   4.604  0.00  0.00    +0.115 C 
ATOM      8  C   UNL     1       3.336  -6.514   4.144  0.00  0.00    -0.010 C 
ATOM      9  C   UNL     1       4.846  -6.365   3.940  0.00  0.00    -0.082 C 
ATOM     10  N   UNL     1       5.536  -6.568   5.220  0.00  0.00    +0.379 N 
ATOM     11  C   UNL     1       5.144  -5.521   6.171  0.00  0.00    -0.082 C 
ATOM     12  C   UNL     1       3.646  -5.634   6.469  0.00  0.00    -0.010 C 
ATOM     13  H   UNL     1       5.288  -7.471   5.595  0.00  0.00    -0.086 HD
ATOM     14  H   UNL     1       6.533  -6.530   5.073  0.00  0.00    -0.086 HD
ENDROOT
BRANCH   5  15
ATOM     15  C   UNL     1       1.103  -5.915   6.895  0.00  0.00    +0.218 C 
ATOM     16  O   UNL     1       1.079  -4.990   7.680  0.00  0.00    -0.275 OA
ATOM     17  N   UNL     1       0.903  -7.174   7.331  0.00  0.00    -0.312 N 
ATOM     18  H   UNL     1       0.922  -7.913   6.704  0.00  0.00    +0.149 HD
BRANCH  17  19
ATOM     19  C   UNL     1       0.657  -7.426   8.753  0.00  0.00    +0.148 C 
BRANCH  19  20
ATOM     20  C   UNL     1       0.465  -8.927   8.979  0.00  0.00    +0.187 C 
ATOM     21  C   UNL     1       0.208  -9.191  10.464  0.00  0.00    +0.053 C 
BRANCH  20  22
ATOM     22  O   UNL     1      -0.652  -9.385   8.214  0.00  0.00    -0.486 OA
BRANCH  22  23
ATOM     23  C   UNL     1      -0.668 -10.700   7.870  0.00  0.00    +0.139 A 
ATOM     24  C   UNL     1       0.308 -11.557   8.357  0.00  0.00    +0.047 A 
ATOM     25  C   UNL     1       0.290 -12.893   8.006  0.00  0.00    +0.004 A 
ATOM     26  C   UNL     1      -0.700 -13.377   7.170  0.00  0.00    +0.002 A 
ATOM     27  C   UNL     1      -1.674 -12.525   6.683  0.00  0.00    +0.023 A 
ATOM     28  C   UNL     1      -1.664 -11.188   7.035  0.00  0.00    +0.083 A 
ATOM     29 CL   UNL     1      -2.891 -10.120   6.429  0.00  0.00    -0.080 Cl
ENDBRANCH  22  23
ENDBRANCH  20  22
ENDBRANCH  19  20
ENDBRANCH  17  19
ENDBRANCH   5  15
BRANCH   1  30
ATOM     30  C   UNL     1      -0.006  -2.818   2.495  0.00  0.00    +0.131 C 
BRANCH  30  36
ATOM     31  C   UNL     1      -0.081   1.536   0.030  0.00  0.00    +0.044 C 
ATOM     32  C   UNL     1      -0.070   0.029   0.018  0.00  0.00    -0.050 A 
ATOM     33  C   UNL     1      -0.085  -0.652  -1.185  0.00  0.00    +0.003 A 
ATOM     34  C   UNL     1      -0.075  -2.034  -1.197  0.00  0.00    +0.001 A 
ATOM     35  C   UNL     1      -0.049  -2.735  -0.006  0.00  0.00    +0.004 A 
ATOM     36  C   UNL     1      -0.033  -2.054   1.197  0.00  0.00    -0.038 A 
ATOM     37  C   UNL     1      -0.039  -0.672   1.208  0.00  0.00    +0.007 A 
ENDBRANCH  30  36
ENDBRANCH   1  30
TORSDOF 7
