REMARK  Name = ZINC12873231
REMARK  8 active torsions:
REMARK  status: ('A' for Active; 'I' for Inactive)
REMARK    1  A    between atoms: C_1  and  C_2
REMARK    2  A    between atoms: C_2  and  C_3
REMARK    3  A    between atoms: C_6  and  C_9
REMARK    4  A    between atoms: N_16  and  C_31
REMARK    5  A    between atoms: C_19  and  C_30
REMARK    6  A    between atoms: C_31  and  C_32
REMARK    7  A    between atoms: C_32  and  C_33
REMARK    8  A    between atoms: C_33  and  N_73
REMARK                            x       y       z     vdW  Elec       q    Type
REMARK                         _______ _______ _______ _____ _____    ______ ____
ROOT
ATOM      1  C   UNL     1       4.277   3.251  -0.033  0.00  0.00    +0.069 C 
ATOM      2  C   UNL     1       5.749   3.218   0.394  0.00  0.00    +0.122 C 
ATOM      3  N   UNL     1       6.426   2.120  -0.322  0.00  0.00    -0.280 N 
ATOM      4  C   UNL     1       7.389   2.410  -1.201  0.00  0.00    +0.234 C 
ATOM      5  O   UNL     1       7.775   3.558  -1.261  0.00  0.00    -0.274 OA
ATOM      6  C   UNL     1       8.021   1.412  -2.115  0.00  0.00    +0.203 C 
ATOM      7  N   UNL     1       7.438   0.088  -1.969  0.00  0.00    -0.291 N 
ATOM      8  C   UNL     1       6.527  -0.221  -1.046  0.00  0.00    +0.245 C 
ATOM      9  O   UNL     1       6.107  -1.358  -1.018  0.00  0.00    -0.273 OA
ATOM     10  C   UNL     1       5.995   0.750  -0.045  0.00  0.00    +0.151 C 
ATOM     11  C   UNL     1       4.485   0.727  -0.035  0.00  0.00    +0.054 A 
ATOM     12  C   UNL     1       3.729   1.847  -0.025  0.00  0.00    -0.008 A 
ATOM     13  C   UNL     1       2.344   1.422  -0.013  0.00  0.00    +0.004 A 
ATOM     14  C   UNL     1       1.136   2.126   0.003  0.00  0.00    +0.010 A 
ATOM     15  C   UNL     1      -0.017   1.381   0.010  0.00  0.00    +0.001 A 
ATOM     16  C   UNL     1       0.002  -0.004   0.002  0.00  0.00    +0.002 A 
ATOM     17  C   UNL     1       1.182  -0.727  -0.013  0.00  0.00    +0.026 A 
ATOM     18  C   UNL     1       2.369   0.003  -0.020  0.00  0.00    +0.047 A 
ATOM     19  N   UNL     1       3.680  -0.380  -0.034  0.00  0.00    -0.356 N 
ATOM     20  H   UNL     1       3.993  -1.298  -0.041  0.00  0.00    +0.166 HD
ATOM     21  C   UNL     1       6.505   0.359   1.343  0.00  0.00    +0.048 C 
ENDROOT
BRANCH   1  25
ATOM     22  C   UNL     1       2.052   5.666   2.699  0.00  0.00    -0.048 A 
ATOM     23  C   UNL     1       2.095   6.000   1.359  0.00  0.00    +0.004 A 
ATOM     24  C   UNL     1       2.815   5.219   0.474  0.00  0.00    +0.004 A 
ATOM     25  C   UNL     1       3.492   4.103   0.931  0.00  0.00    -0.038 A 
ATOM     26  C   UNL     1       3.445   3.767   2.271  0.00  0.00    +0.004 A 
ATOM     27  C   UNL     1       2.729   4.551   3.156  0.00  0.00    +0.004 A 
BRANCH  22  29
ATOM     28  C   UNL     1      -0.169   5.997   3.751  0.00  0.00    +0.009 C 
ATOM     29  C   UNL     1       1.267   6.518   3.663  0.00  0.00    +0.032 C 
ENDBRANCH  22  29
ENDBRANCH   1  25
BRANCH   7  30
ATOM     30  C   UNL     1       7.876  -0.965  -2.888  0.00  0.00    +0.106 C 
BRANCH  30  31
ATOM     31  C   UNL     1       6.975  -0.970  -4.125  0.00  0.00    +0.000 C 
BRANCH  31  32
ATOM     32  C   UNL     1       7.433  -2.070  -5.085  0.00  0.00    -0.077 C 
BRANCH  32  38
ATOM     33  C   UNL     1       5.196  -2.471  -5.924  0.00  0.00    -0.050 C 
ATOM     34  C   UNL     1       4.318  -2.404  -7.177  0.00  0.00    +0.141 C 
ATOM     35  O   UNL     1       4.881  -3.238  -8.193  0.00  0.00    -0.383 OA
ATOM     36  C   UNL     1       6.217  -2.879  -8.557  0.00  0.00    +0.141 C 
ATOM     37  C   UNL     1       7.114  -2.951  -7.319  0.00  0.00    -0.050 C 
ATOM     38  N   UNL     1       6.566  -2.049  -6.284  0.00  0.00    +0.383 N 
ATOM     39  H   UNL     1       6.535  -1.093  -6.656  0.00  0.00    -0.082 HD
ENDBRANCH  32  38
ENDBRANCH  31  32
ENDBRANCH  30  31
ENDBRANCH   7  30
TORSDOF 6
