REMARK  Name = ZINC44737529
REMARK  10 active torsions:
REMARK  status: ('A' for Active; 'I' for Inactive)
REMARK    1  A    between atoms: C_1  and  C_2
REMARK    2  A    between atoms: C_2  and  C_3
REMARK    3  A    between atoms: C_3  and  C_5
REMARK    4  A    between atoms: C_3  and  C_6
REMARK    5  A    between atoms: C_6  and  C_7
REMARK    6  A    between atoms: C_11  and  C_20
REMARK    7  A    between atoms: N_22  and  C_23
REMARK    8  A    between atoms: C_23  and  C_25
REMARK    9  A    between atoms: C_23  and  C_26
REMARK   10  A    between atoms: C_31  and  C_35
REMARK                            x       y       z     vdW  Elec       q    Type
REMARK                         _______ _______ _______ _____ _____    ______ ____
ROOT
ATOM      1  C   UNL     1       1.436  -2.572   2.133  0.00  0.00    +0.216 C 
ATOM      2  O   UNL     1       1.805  -1.708   2.899  0.00  0.00    -0.276 OA
ATOM      3  N   UNL     1       1.782  -3.857   2.349  0.00  0.00    -0.300 N 
ATOM      4  C   UNL     1       1.436  -5.042   1.528  0.00  0.00    +0.121 C 
ATOM      5  C   UNL     1       2.716  -5.906   1.531  0.00  0.00    +0.100 C 
ATOM      6  C   UNL     1       3.472  -5.484   2.802  0.00  0.00    -0.004 C 
ATOM      7  C   UNL     1       2.601  -4.403   3.458  0.00  0.00    +0.115 C 
ATOM      8  C   UNL     1       4.836  -4.906   2.439  0.00  0.00    -0.010 C 
ATOM      9  C   UNL     1       5.591  -4.547   3.721  0.00  0.00    -0.082 C 
ATOM     10  N   UNL     1       5.752  -5.748   4.549  0.00  0.00    +0.379 N 
ATOM     11  C   UNL     1       4.437  -6.246   4.971  0.00  0.00    -0.082 C 
ATOM     12  C   UNL     1       3.633  -6.676   3.741  0.00  0.00    -0.010 C 
ATOM     13  H   UNL     1       6.224  -6.462   4.015  0.00  0.00    -0.086 HD
ATOM     14  H   UNL     1       6.302  -5.523   5.364  0.00  0.00    -0.086 HD
ENDROOT
BRANCH   5  15
ATOM     15  C   UNL     1       3.546  -5.619   0.305  0.00  0.00    +0.219 C 
ATOM     16  O   UNL     1       3.521  -4.516  -0.199  0.00  0.00    -0.275 OA
ATOM     17  N   UNL     1       4.314  -6.588  -0.230  0.00  0.00    -0.305 N 
ATOM     18  H   UNL     1       4.334  -7.470   0.173  0.00  0.00    +0.149 HD
BRANCH  17  19
ATOM     19  C   UNL     1       5.120  -6.309  -1.422  0.00  0.00    +0.136 C 
ATOM     20  C   UNL     1       6.453  -5.687  -1.001  0.00  0.00    +0.036 C 
BRANCH  19  21
ATOM     21  C   UNL     1       5.378  -7.594  -2.166  0.00  0.00    +0.128 A 
ATOM     22  N   UNL     1       5.370  -8.780  -1.631  0.00  0.00    -0.231 NA
ATOM     23  C   UNL     1       5.640  -9.711  -2.581  0.00  0.00    +0.089 A 
ATOM     24  C   UNL     1       5.753 -11.104  -2.561  0.00  0.00    +0.030 A 
ATOM     25  C   UNL     1       6.042 -11.780  -3.712  0.00  0.00    +0.005 A 
ATOM     26  C   UNL     1       6.224 -11.098  -4.907  0.00  0.00    -0.048 A 
ATOM     27  C   UNL     1       6.117  -9.725  -4.951  0.00  0.00    +0.031 A 
ATOM     28  C   UNL     1       5.824  -9.020  -3.791  0.00  0.00    +0.067 A 
ATOM     29  N   UNL     1       5.646  -7.683  -3.497  0.00  0.00    -0.340 N 
ATOM     30  C   UNL     1       6.543 -11.864  -6.165  0.00  0.00    +0.044 C 
ATOM     31  H   UNL     1       5.704  -6.944  -4.122  0.00  0.00    +0.167 HD
ENDBRANCH  19  21
ENDBRANCH  17  19
ENDBRANCH   5  15
BRANCH   1  32
ATOM     32  C   UNL     1       0.590  -2.211   0.939  0.00  0.00    +0.099 C 
BRANCH  32  33
ATOM     33  C   UNL     1       0.344  -0.701   0.927  0.00  0.00    -0.006 C 
ATOM     34  C   UNL     1      -0.492  -0.311   2.149  0.00  0.00    +0.008 C 
BRANCH  33  36
ATOM     35  C   UNL     1      -0.545   1.206  -0.421  0.00  0.00    +0.004 C 
ATOM     36  C   UNL     1      -0.408  -0.316  -0.348  0.00  0.00    +0.000 C 
ENDBRANCH  33  36
ENDBRANCH  32  33
ENDBRANCH   1  32
TORSDOF 6
