REMARK  Name = ZINC64622312
REMARK  7 active torsions:
REMARK  status: ('A' for Active; 'I' for Inactive)
REMARK    1  A    between atoms: C_1  and  C_2
REMARK    2  A    between atoms: C_2  and  C_3
REMARK    3  A    between atoms: C_3  and  C_5
REMARK    4  A    between atoms: C_3  and  N_16
REMARK    5  A    between atoms: C_11  and  C_15
REMARK    6  A    between atoms: C_17  and  C_19
REMARK    7  A    between atoms: N_21  and  C_24
REMARK                            x       y       z     vdW  Elec       q    Type
REMARK                         _______ _______ _______ _____ _____    ______ ____
ROOT
ATOM      1  N   UNL     1      -2.105  -0.148  -1.230  0.00  0.00    -0.304 N 
ATOM      2  C   UNL     1      -2.690   1.062  -1.334  0.00  0.00    +0.261 C 
ATOM      3  O   UNL     1      -2.659   1.835  -0.393  0.00  0.00    -0.269 OA
ATOM      4  H   UNL     1      -2.130  -0.764  -1.980  0.00  0.00    +0.149 HD
ENDROOT
BRANCH   2   5
ATOM      5  C   UNL     1      -3.360   1.446  -2.574  0.00  0.00    +0.120 C 
ATOM      6  C   UNL     1      -3.978   2.622  -2.816  0.00  0.00    +0.119 C 
ATOM      7  N   UNL     1      -4.481   2.594  -4.093  0.00  0.00    -0.253 N 
ATOM      8  N   UNL     1      -4.175   1.389  -4.658  0.00  0.00    -0.160 NA
ATOM      9  N   UNL     1      -3.474   0.658  -3.740  0.00  0.00    -0.259 N 
ATOM     10  H   UNL     1      -3.638   1.512  -5.504  0.00  0.00    +0.168 HD
ATOM     11  H   UNL     1      -3.122  -0.237  -3.866  0.00  0.00    +0.168 HD
BRANCH   7  12
ATOM     12  C   UNL     1      -5.223   3.677  -4.743  0.00  0.00    +0.092 C 
ATOM     13  C   UNL     1      -6.615   3.178  -5.134  0.00  0.00    +0.024 C 
ATOM     14  C   UNL     1      -7.391   4.310  -5.812  0.00  0.00    +0.002 C 
ATOM     15  C   UNL     1      -6.640   4.762  -7.066  0.00  0.00    +0.000 C 
ATOM     16  C   UNL     1      -5.247   5.261  -6.675  0.00  0.00    +0.002 C 
ATOM     17  C   UNL     1      -4.472   4.129  -5.997  0.00  0.00    +0.024 C 
ENDBRANCH   7  12
ENDBRANCH   2   5
BRANCH   1  18
ATOM     18  C   UNL     1      -1.433  -0.534   0.013  0.00  0.00    +0.115 C 
BRANCH  18  19
ATOM     19  C   UNL     1      -1.413  -2.059   0.130  0.00  0.00    +0.195 C 
ATOM     20  N   UNL     1      -0.789  -2.459   1.398  0.00  0.00    -0.362 N 
ATOM     21  C   UNL     1      -1.677  -3.124   2.078  0.00  0.00    +0.060 A 
ATOM     22  C   UNL     1      -1.647  -3.769   3.398  0.00  0.00    +0.027 A 
ATOM     23  C   UNL     1      -2.747  -4.401   3.854  0.00  0.00    +0.005 A 
ATOM     24  C   UNL     1      -3.941  -4.474   3.115  0.00  0.00    -0.048 A 
ATOM     25  C   UNL     1      -4.076  -3.917   1.895  0.00  0.00    +0.030 A 
ATOM     26  C   UNL     1      -2.941  -3.201   1.296  0.00  0.00    +0.060 A 
ATOM     27  N   UNL     1      -2.786  -2.580   0.161  0.00  0.00    -0.362 N 
ATOM     28  C   UNL     1      -5.117  -5.204   3.711  0.00  0.00    +0.044 C 
ATOM     29  H   UNL     1       0.119  -2.263   1.677  0.00  0.00    +0.162 HD
ATOM     30  H   UNL     1      -3.453  -2.480  -0.536  0.00  0.00    +0.162 HD
ENDBRANCH  18  19
BRANCH  18  32
ATOM     31  C   UNL     1      -0.019   1.526   0.010  0.00  0.00    +0.006 C 
ATOM     32  C   UNL     1       0.002  -0.004   0.002  0.00  0.00    +0.023 C 
ENDBRANCH  18  32
ENDBRANCH   1  18
TORSDOF 5
