REMARK  Name = ZINC39675710
REMARK  11 active torsions:
REMARK  status: ('A' for Active; 'I' for Inactive)
REMARK    1  A    between atoms: C_1  and  C_2
REMARK    2  A    between atoms: C_2  and  C_4
REMARK    3  A    between atoms: C_2  and  O_32
REMARK    4  A    between atoms: C_8  and  C_17
REMARK    5  A    between atoms: N_19  and  C_20
REMARK    6  A    between atoms: C_20  and  C_21
REMARK    7  A    between atoms: C_21  and  C_23
REMARK    8  A    between atoms: C_21  and  N_29
REMARK    9  A    between atoms: N_29  and  C_30
REMARK   10  A    between atoms: N_29  and  C_31
REMARK   11  A    between atoms: O_32  and  C_33
REMARK                            x       y       z     vdW  Elec       q    Type
REMARK                         _______ _______ _______ _____ _____    ______ ____
ROOT
ATOM      1  C   UNL     1      -1.254   1.111   2.934  0.00  0.00    +0.256 C 
ATOM      2  O   UNL     1      -1.791   0.822   3.983  0.00  0.00    -0.272 OA
ATOM      3  N   UNL     1       0.040   0.794   2.729  0.00  0.00    -0.297 N 
ATOM      4  C   UNL     1       0.838   0.989   1.496  0.00  0.00    +0.121 C 
ATOM      5  C   UNL     1       2.229   1.437   1.999  0.00  0.00    +0.100 C 
ATOM      6  C   UNL     1       2.320   0.896   3.435  0.00  0.00    -0.004 C 
ATOM      7  C   UNL     1       0.987   0.177   3.688  0.00  0.00    +0.115 C 
ATOM      8  C   UNL     1       2.488   2.046   4.424  0.00  0.00    -0.010 C 
ATOM      9  C   UNL     1       2.633   1.480   5.839  0.00  0.00    -0.082 C 
ATOM     10  N   UNL     1       3.798   0.588   5.893  0.00  0.00    +0.379 N 
ATOM     11  C   UNL     1       3.588  -0.565   5.008  0.00  0.00    -0.082 C 
ATOM     12  C   UNL     1       3.482  -0.085   3.558  0.00  0.00    -0.010 C 
ATOM     13  H   UNL     1       4.620   1.091   5.597  0.00  0.00    -0.086 HD
ATOM     14  H   UNL     1       3.928   0.264   6.840  0.00  0.00    -0.086 HD
ENDROOT
BRANCH   5  15
ATOM     15  C   UNL     1       3.314   0.840   1.141  0.00  0.00    +0.218 C 
ATOM     16  O   UNL     1       3.143  -0.235   0.607  0.00  0.00    -0.275 OA
ATOM     17  N   UNL     1       4.476   1.501   0.967  0.00  0.00    -0.316 N 
ATOM     18  H   UNL     1       4.613   2.361   1.394  0.00  0.00    +0.149 HD
BRANCH  17  19
ATOM     19  C   UNL     1       5.531   0.921   0.133  0.00  0.00    +0.093 C 
BRANCH  19  20
ATOM     20  C   UNL     1       6.781   1.800   0.206  0.00  0.00    -0.021 C 
BRANCH  20  21
ATOM     21  C   UNL     1       7.315   1.798   1.615  0.00  0.00    -0.059 A 
ATOM     22  C   UNL     1       8.084   0.738   2.061  0.00  0.00    +0.002 A 
ATOM     23  C   UNL     1       8.574   0.736   3.353  0.00  0.00    +0.000 A 
ATOM     24  C   UNL     1       8.296   1.793   4.200  0.00  0.00    +0.000 A 
ATOM     25  C   UNL     1       7.529   2.853   3.753  0.00  0.00    +0.000 A 
ATOM     26  C   UNL     1       7.042   2.857   2.460  0.00  0.00    +0.002 A 
ENDBRANCH  20  21
BRANCH  20  27
ATOM     27  N   UNL     1       7.804   1.274  -0.707  0.00  0.00    +0.382 N 
ATOM     28  C   UNL     1       7.284   1.278  -2.081  0.00  0.00    -0.096 C 
ATOM     29  C   UNL     1       9.005   2.118  -0.636  0.00  0.00    -0.096 C 
ATOM     30  H   UNL     1       8.040   0.330  -0.440  0.00  0.00    -0.082 HD
ENDBRANCH  20  27
ENDBRANCH  19  20
ENDBRANCH  17  19
ENDBRANCH   5  15
BRANCH   1  32
ATOM     31  C   UNL     1      -1.494   3.245   1.695  0.00  0.00    +0.062 C 
ATOM     32  C   UNL     1      -2.035   1.823   1.860  0.00  0.00    +0.256 C 
BRANCH  32  33
ATOM     33  O   UNL     1      -3.414   1.879   2.231  0.00  0.00    -0.480 OA
BRANCH  33  34
ATOM     34  C   UNL     1      -4.319   1.993   1.223  0.00  0.00    +0.122 A 
ATOM     35  C   UNL     1      -3.887   2.153  -0.085  0.00  0.00    +0.045 A 
ATOM     36  C   UNL     1      -4.809   2.268  -1.107  0.00  0.00    +0.004 A 
ATOM     37  C   UNL     1      -6.162   2.224  -0.827  0.00  0.00    +0.000 A 
ATOM     38  C   UNL     1      -6.596   2.064   0.476  0.00  0.00    +0.004 A 
ATOM     39  C   UNL     1      -5.678   1.943   1.501  0.00  0.00    +0.045 A 
ENDBRANCH  33  34
ENDBRANCH  32  33
ENDBRANCH   1  32
TORSDOF 8
