REMARK  Name = ZINC51053569
REMARK  10 active torsions:
REMARK  status: ('A' for Active; 'I' for Inactive)
REMARK    1  A    between atoms: C_1  and  C_2
REMARK    2  A    between atoms: C_2  and  C_3
REMARK    3  A    between atoms: C_3  and  C_4
REMARK    4  A    between atoms: C_4  and  C_6
REMARK    5  A    between atoms: C_4  and  N_7
REMARK    6  A    between atoms: C_8  and  C_10
REMARK    7  A    between atoms: N_15  and  C_17
REMARK    8  A    between atoms: C_17  and  C_19
REMARK    9  A    between atoms: C_17  and  C_20
REMARK   10  A    between atoms: N_22  and  C_23
REMARK                            x       y       z     vdW  Elec       q    Type
REMARK                         _______ _______ _______ _____ _____    ______ ____
ROOT
ATOM      1  C   UNL     1       1.058  -4.766   1.164  0.00  0.00    +0.058 C 
ATOM      2  C   UNL     1       2.152  -3.755   1.521  0.00  0.00    +0.009 C 
ATOM      3  C   UNL     1       2.424  -3.823   3.026  0.00  0.00    -0.018 C 
ATOM      4  C   UNL     1       2.810  -5.254   3.406  0.00  0.00    -0.078 C 
ATOM      5  N   UNL     1       1.713  -6.168   3.064  0.00  0.00    +0.388 N 
ATOM      6  C   UNL     1       1.493  -6.162   1.612  0.00  0.00    -0.065 C 
ATOM      7  H   UNL     1       0.870  -5.869   3.531  0.00  0.00    -0.081 HD
ENDROOT
BRANCH   1   9
ATOM      8  N   UNL     1       0.448  -3.631  -0.948  0.00  0.00    -0.313 N 
ATOM      9  C   UNL     1       0.837  -4.762  -0.327  0.00  0.00    +0.215 C 
ATOM     10  O   UNL     1       1.008  -5.777  -0.968  0.00  0.00    -0.276 OA
ATOM     11  H   UNL     1       0.310  -2.819  -0.435  0.00  0.00    +0.149 HD
BRANCH   8  12
ATOM     12  C   UNL     1       0.233  -3.627  -2.397  0.00  0.00    +0.070 C 
ATOM     13  C   UNL     1      -1.187  -4.109  -2.703  0.00  0.00    +0.028 C 
BRANCH  12  14
ATOM     14  C   UNL     1       0.416  -2.207  -2.936  0.00  0.00    +0.022 C 
BRANCH  14  16
ATOM     15  C   UNL     1       2.054  -0.352  -3.281  0.00  0.00    +0.004 C 
ATOM     16  C   UNL     1       1.870  -1.772  -2.741  0.00  0.00    -0.002 C 
ENDBRANCH  14  16
ENDBRANCH  12  14
ENDBRANCH   8  12
ENDBRANCH   1   9
BRANCH   5  17
ATOM     17  C   UNL     1       2.056  -7.528   3.500  0.00  0.00    +0.016 C 
ATOM     18  C   UNL     1       2.340  -7.524   5.004  0.00  0.00    -0.004 C 
BRANCH  17  19
ATOM     19  C   UNL     1       0.904  -8.454   3.209  0.00  0.00    +0.203 C 
ATOM     20  O   UNL     1      -0.230  -8.024   3.185  0.00  0.00    -0.277 OA
ATOM     21  N   UNL     1       1.133  -9.762   2.975  0.00  0.00    -0.285 N 
ATOM     22  H   UNL     1       2.031 -10.119   3.057  0.00  0.00    +0.155 HD
BRANCH  21  23
ATOM     23  C   UNL     1       0.074 -10.605   2.615  0.00  0.00    +0.069 A 
ATOM     24  C   UNL     1      -1.213 -10.332   3.055  0.00  0.00    +0.027 A 
ATOM     25  C   UNL     1      -2.256 -11.165   2.698  0.00  0.00    +0.022 A 
ATOM     26  C   UNL     1      -2.019 -12.271   1.901  0.00  0.00    +0.044 A 
ATOM     27  C   UNL     1      -0.737 -12.547   1.460  0.00  0.00    +0.060 A 
ATOM     28  C   UNL     1       0.310 -11.714   1.809  0.00  0.00    +0.146 A 
ATOM     29  F   UNL     1       1.561 -11.980   1.373  0.00  0.00    -0.203 F 
ATOM     30 CL   UNL     1      -3.332 -13.315   1.456  0.00  0.00    -0.083 Cl
ENDBRANCH  21  23
ENDBRANCH  17  19
ENDBRANCH   5  17
TORSDOF 7
