REMARK  Name = ZINC39206566
REMARK  7 active torsions:
REMARK  status: ('A' for Active; 'I' for Inactive)
REMARK    1  A    between atoms: C_1  and  C_2
REMARK    2  A    between atoms: C_2  and  C_3
REMARK    3  A    between atoms: C_3  and  C_4
REMARK    4  A    between atoms: C_6  and  C_18
REMARK    5  A    between atoms: C_8  and  C_16
REMARK    6  A    between atoms: C_9  and  N_15
REMARK    7  A    between atoms: C_23  and  O_24
REMARK                            x       y       z     vdW  Elec       q    Type
REMARK                         _______ _______ _______ _____ _____    ______ ____
ROOT
ATOM      1  C   UNL     1       0.762  -2.018   1.233  0.00  0.00    +0.069 C 
ATOM      2  C   UNL     1       1.746  -2.751   0.770  0.00  0.00    +0.030 C 
ATOM      3  C   UNL     1       3.013  -2.434   0.024  0.00  0.00    +0.101 C 
ATOM      4  C   UNL     1       3.128  -3.499  -1.052  0.00  0.00    +0.098 C 
ATOM      5  C   UNL     1       2.307  -4.569  -1.082  0.00  0.00    +0.195 C 
ATOM      6  O   UNL     1       1.298  -4.832  -0.233  0.00  0.00    -0.448 OA
ATOM      7  C   UNL     1       1.331  -4.196   1.048  0.00  0.00    +0.343 C 
ATOM      8  N   UNL     1      -0.011  -4.024   1.616  0.00  0.00    -0.138 NA
ATOM      9  N   UNL     1      -0.232  -2.810   1.710  0.00  0.00    -0.155 NA
ENDROOT
BRANCH   3  10
ATOM     10  C   UNL     1       4.196  -2.500   0.955  0.00  0.00    +0.009 A 
ATOM     11  C   UNL     1       4.498  -3.681   1.607  0.00  0.00    +0.028 A 
ATOM     12  C   UNL     1       5.583  -3.742   2.462  0.00  0.00    +0.043 A 
ATOM     13  C   UNL     1       6.370  -2.622   2.667  0.00  0.00    +0.043 A 
ATOM     14  C   UNL     1       6.071  -1.439   2.017  0.00  0.00    +0.084 A 
ATOM     15  C   UNL     1       4.986  -1.378   1.153  0.00  0.00    +0.139 A 
ATOM     16 CL   UNL     1       7.057  -0.033   2.274  0.00  0.00    -0.080 Cl
ATOM     17 CL   UNL     1       5.959  -5.226   3.280  0.00  0.00    -0.083 Cl
BRANCH  15  18
ATOM     18  O   UNL     1       4.693  -0.217   0.508  0.00  0.00    -0.505 OA
ATOM     19  H   UNL     1       4.092   0.363   0.995  0.00  0.00    +0.292 HD
ENDBRANCH  15  18
ENDBRANCH   3  10
BRANCH   5  20
ATOM     20  N   UNL     1       2.523  -5.482  -2.083  0.00  0.00    -0.329 N 
ATOM     21  H   UNL     1       3.237  -5.341  -2.723  0.00  0.00    +0.145 HD
ATOM     22  H   UNL     1       1.960  -6.270  -2.150  0.00  0.00    +0.145 HD
ENDBRANCH   5  20
BRANCH   4  23
ATOM     23  C   UNL     1       4.135  -3.364  -2.062  0.00  0.00    +0.101 C 
ATOM     24  N   UNL     1       4.934  -3.256  -2.862  0.00  0.00    -0.191 NA
ENDBRANCH   4  23
BRANCH   1  25
ATOM     25  C   UNL     1       0.742  -0.511   1.242  0.00  0.00    +0.057 C 
BRANCH  25  27
ATOM     26  C   UNL     1      -0.019   1.526   0.010  0.00  0.00    +0.004 C 
ATOM     27  C   UNL     1       0.002  -0.004   0.002  0.00  0.00    +0.003 C 
ENDBRANCH  25  27
ENDBRANCH   1  25
TORSDOF 6
