REMARK  Name = ZINC01789856
REMARK  11 active torsions:
REMARK  status: ('A' for Active; 'I' for Inactive)
REMARK    1  A    between atoms: C_1  and  C_2
REMARK    2  A    between atoms: C_2  and  C_3
REMARK    3  A    between atoms: C_8  and  C_27
REMARK    4  A    between atoms: C_9  and  C_22
REMARK    5  A    between atoms: C_12  and  C_15
REMARK    6  A    between atoms: C_13  and  O_14
REMARK    7  A    between atoms: C_15  and  N_66
REMARK    8  A    between atoms: C_18  and  C_21
REMARK    9  A    between atoms: C_22  and  O_24
REMARK   10  A    between atoms: O_24  and  C_25
REMARK   11  A    between atoms: C_25  and  C_26
REMARK                            x       y       z     vdW  Elec       q    Type
REMARK                         _______ _______ _______ _____ _____    ______ ____
ROOT
ATOM      1  C   UNL     1      -2.377   6.644  -3.235  0.00  0.00    -0.005 A 
ATOM      2  C   UNL     1      -1.998   6.456  -4.533  0.00  0.00    +0.022 A 
ATOM      3  C   UNL     1      -0.650   6.260  -4.841  0.00  0.00    +0.065 A 
ATOM      4  C   UNL     1      -0.211   6.055  -6.232  0.00  0.00    +0.203 A 
ATOM      5  O   UNL     1      -1.004   6.048  -7.157  0.00  0.00    -0.286 OA
ATOM      6  C   UNL     1       1.241   5.875  -6.455  0.00  0.00    +0.104 A 
ATOM      7  C   UNL     1       2.080   5.893  -5.360  0.00  0.00    +0.225 A 
ATOM      8  O   UNL     1       1.622   6.079  -4.114  0.00  0.00    -0.447 OA
ATOM      9  C   UNL     1       0.320   6.261  -3.822  0.00  0.00    +0.144 A 
ATOM     10  C   UNL     1      -0.084   6.449  -2.506  0.00  0.00    +0.021 A 
ATOM     11  C   UNL     1      -1.425   6.641  -2.217  0.00  0.00    +0.125 A 
ENDROOT
BRANCH   6  12
ATOM     12  C   UNL     1       1.776   5.668  -7.813  0.00  0.00    +0.117 A 
ATOM     13  N   UNL     1       2.479   4.657  -8.279  0.00  0.00    -0.239 NA
ATOM     14  C   UNL     1       2.902   4.595  -9.549  0.00  0.00    +0.079 A 
ATOM     15  C   UNL     1       3.656   3.569 -10.171  0.00  0.00    +0.029 A 
ATOM     16  C   UNL     1       4.012   3.663 -11.479  0.00  0.00    +0.002 A 
ATOM     17  C   UNL     1       3.657   4.758 -12.256  0.00  0.00    +0.001 A 
ATOM     18  C   UNL     1       2.922   5.782 -11.689  0.00  0.00    +0.017 A 
ATOM     19  C   UNL     1       2.556   5.698 -10.368  0.00  0.00    +0.040 A 
ATOM     20  S   UNL     1       1.644   6.729  -9.245  0.00  0.00    -0.067 S 
ENDBRANCH   6  12
BRANCH   1  22
ATOM     21  C   UNL     1      -4.125   8.354  -2.821  0.00  0.00    +0.009 C 
ATOM     22  C   UNL     1      -3.831   6.854  -2.901  0.00  0.00    +0.035 C 
ENDBRANCH   1  22
BRANCH  11  23
ATOM     23  O   UNL     1      -1.815   6.829  -0.931  0.00  0.00    -0.506 OA
ATOM     24  H   UNL     1      -1.823   7.756  -0.654  0.00  0.00    +0.292 HD
ENDBRANCH  11  23
BRANCH   7  25
ATOM     25  C   UNL     1       3.531   5.703  -5.568  0.00  0.00    +0.376 C 
ATOM     26  O   UNL     1       3.982   5.652  -6.694  0.00  0.00    -0.241 OA
BRANCH  25  27
ATOM     27  O   UNL     1       4.354   5.585  -4.507  0.00  0.00    -0.459 OA
BRANCH  27  28
ATOM     28  C   UNL     1       5.767   5.400  -4.786  0.00  0.00    +0.229 C 
ATOM     29  C   UNL     1       6.536   5.288  -3.468  0.00  0.00    +0.048 C 
ENDBRANCH  27  28
ENDBRANCH  25  27
ENDBRANCH   7  25
BRANCH  10  30
ATOM     30  C   UNL     1       0.935   6.448  -1.396  0.00  0.00    -0.036 C 
BRANCH  30  37
ATOM     31  C   UNL     1       1.903   5.072   0.345  0.00  0.00    -0.078 C 
ATOM     32  C   UNL     1       2.178   3.627   0.767  0.00  0.00    -0.016 C 
ATOM     33  C   UNL     1       0.847   2.905   0.997  0.00  0.00    -0.018 C 
ATOM     34  C   UNL     1       0.012   2.970  -0.285  0.00  0.00    -0.016 C 
ATOM     35  C   UNL     1      -0.200   4.434  -0.676  0.00  0.00    -0.078 C 
ATOM     36  C   UNL     1       1.115   1.443   1.360  0.00  0.00    +0.007 C 
ATOM     37  N   UNL     1       1.117   5.066  -0.907  0.00  0.00    +0.383 N 
ATOM     38  H   UNL     1       1.625   4.525  -1.616  0.00  0.00    -0.081 HD
ENDBRANCH  30  37
ENDBRANCH  10  30
TORSDOF 8
