REMARK  Name = ZINC26011371
REMARK  8 active torsions:
REMARK  status: ('A' for Active; 'I' for Inactive)
REMARK    1  A    between atoms: N_4  and  C_7
REMARK    2  A    between atoms: N_10  and  C_13
REMARK    3  A    between atoms: C_13  and  C_14
REMARK    4  A    between atoms: C_14  and  N_15
REMARK    5  A    between atoms: N_18  and  C_21
REMARK    6  A    between atoms: C_21  and  C_22
REMARK    7  A    between atoms: C_22  and  N_23
REMARK    8  A    between atoms: C_26  and  N_29
REMARK                            x       y       z     vdW  Elec       q    Type
REMARK                         _______ _______ _______ _____ _____    ______ ____
ROOT
ATOM      1  N   UNL     1       7.074  -4.791  -4.966  0.00  0.00    +0.382 N 
ATOM      2  C   UNL     1       6.438  -4.717  -6.288  0.00  0.00    -0.063 C 
ATOM      3  C   UNL     1       7.364  -5.338  -7.336  0.00  0.00    +0.066 C 
ATOM      4  N   UNL     1       7.632  -6.739  -6.980  0.00  0.00    -0.305 NA
ATOM      5  C   UNL     1       8.246  -6.830  -5.648  0.00  0.00    +0.066 C 
ATOM      6  C   UNL     1       7.312  -6.197  -4.614  0.00  0.00    -0.063 C 
ATOM      7  H   UNL     1       7.953  -4.296  -4.988  0.00  0.00    -0.082 HD
ENDROOT
BRANCH   1   8
ATOM      8  C   UNL     1       6.192  -4.178  -3.964  0.00  0.00    -0.063 C 
BRANCH   8   9
ATOM      9  C   UNL     1       6.043  -2.685  -4.261  0.00  0.00    +0.066 C 
BRANCH   9  13
ATOM     10  C   UNL     1       2.930  -0.516  -2.289  0.00  0.00    -0.066 C 
ATOM     11  C   UNL     1       4.370   0.000  -2.218  0.00  0.00    +0.000 C 
ATOM     12  C   UNL     1       5.181  -0.607  -3.365  0.00  0.00    +0.083 C 
ATOM     13  N   UNL     1       5.161  -2.072  -3.258  0.00  0.00    -0.304 NA
ATOM     14  C   UNL     1       3.793  -2.594  -3.372  0.00  0.00    +0.083 C 
ATOM     15  C   UNL     1       2.940  -2.046  -2.225  0.00  0.00    +0.000 C 
BRANCH  10  19
ATOM     16  C   UNL     1      -0.019   1.527   0.010  0.00  0.00    -0.004 C 
ATOM     17  C   UNL     1       1.422   2.047  -0.001  0.00  0.00    -0.019 C 
ATOM     18  C   UNL     1       2.152   1.484  -1.221  0.00  0.00    -0.078 C 
ATOM     19  N   UNL     1       2.161   0.018  -1.157  0.00  0.00    +0.382 N 
ATOM     20  C   UNL     1       0.785  -0.491  -1.219  0.00  0.00    -0.078 C 
ATOM     21  C   UNL     1       0.002  -0.004   0.002  0.00  0.00    -0.019 C 
ATOM     22  H   UNL     1       2.589  -0.278  -0.293  0.00  0.00    -0.081 HD
ENDBRANCH  10  19
ENDBRANCH   9  13
ENDBRANCH   8   9
ENDBRANCH   1   8
BRANCH   4  23
ATOM     23  C   UNL     1       8.474  -7.388  -7.993  0.00  0.00    +0.099 C 
BRANCH  23  24
ATOM     24  C   UNL     1       8.526  -8.894  -7.725  0.00  0.00    +0.099 C 
BRANCH  24  25
ATOM     25  N   UNL     1       9.368  -9.543  -8.739  0.00  0.00    -0.301 NA
ATOM     26  C   UNL     1       8.760  -9.441 -10.072  0.00  0.00    +0.083 C 
ATOM     27  C   UNL     1       9.728  -9.996 -11.119  0.00  0.00    +0.000 C 
ATOM     28  C   UNL     1      10.043 -11.458 -10.792  0.00  0.00    -0.066 C 
ATOM     29  C   UNL     1      10.630 -11.542  -9.380  0.00  0.00    +0.000 C 
ATOM     30  C   UNL     1       9.636 -10.942  -8.383  0.00  0.00    +0.083 C 
BRANCH  28  31
ATOM     31  N   UNL     1      11.017 -11.980 -11.760  0.00  0.00    +0.382 N 
ATOM     32  C   UNL     1      10.458 -11.883 -13.114  0.00  0.00    -0.078 C 
ATOM     33  C   UNL     1      11.499 -12.349 -14.134  0.00  0.00    -0.019 C 
ATOM     34  C   UNL     1      11.879 -13.803 -13.839  0.00  0.00    -0.004 C 
ATOM     35  C   UNL     1      12.390 -13.905 -12.399  0.00  0.00    -0.019 C 
ATOM     36  C   UNL     1      11.316 -13.381 -11.444  0.00  0.00    -0.078 C 
ATOM     37  H   UNL     1      11.865 -11.436 -11.709  0.00  0.00    -0.081 HD
ENDBRANCH  28  31
ENDBRANCH  24  25
ENDBRANCH  23  24
ENDBRANCH   4  23
TORSDOF 8
