REMARK  Name = ZINC24070116
REMARK  11 active torsions:
REMARK  status: ('A' for Active; 'I' for Inactive)
REMARK    1  A    between atoms: C_1  and  C_2
REMARK    2  A    between atoms: C_4  and  S_8
REMARK    3  A    between atoms: C_5  and  C_7
REMARK    4  A    between atoms: S_8  and  N_11
REMARK    5  A    between atoms: N_11  and  C_12
REMARK    6  A    between atoms: C_14  and  S_19
REMARK    7  A    between atoms: C_17  and  O_18
REMARK    8  A    between atoms: S_19  and  N_22
REMARK    9  A    between atoms: N_22  and  C_23
REMARK   10  A    between atoms: C_28  and  O_29
REMARK   11  A    between atoms: O_29  and  C_30
REMARK                            x       y       z     vdW  Elec       q    Type
REMARK                         _______ _______ _______ _____ _____    ______ ____
ROOT
ATOM      1  C   UNL     1       2.428  -0.403  -0.795  0.00  0.00    +0.091 A 
ATOM      2  C   UNL     1       1.210   0.221  -0.569  0.00  0.00    +0.057 A 
ATOM      3  C   UNL     1       1.104   1.594  -0.690  0.00  0.00    +0.111 A 
ATOM      4  C   UNL     1       2.211   2.348  -1.035  0.00  0.00    +0.032 A 
ATOM      5  C   UNL     1       3.428   1.733  -1.263  0.00  0.00    +0.049 A 
ATOM      6  C   UNL     1       3.542   0.358  -1.144  0.00  0.00    +0.139 A 
ENDROOT
BRANCH   3   7
ATOM      7  S   UNL     1      -0.445   2.385  -0.409  0.00  0.00    +0.073 S 
ATOM      8  O   UNL     1      -0.407   3.616  -1.117  0.00  0.00    -0.150 OA
ATOM      9  O   UNL     1      -1.448   1.405  -0.638  0.00  0.00    -0.150 OA
BRANCH   7  10
ATOM     10  N   UNL     1      -0.515   2.767   1.201  0.00  0.00    -0.213 N 
ATOM     11  H   UNL     1      -1.316   2.350   1.831  0.00  0.00    +0.174 HD
BRANCH  10  12
ATOM     12  C   UNL     1       0.443   3.619   1.761  0.00  0.00    +0.090 A 
ATOM     13  C   UNL     1       1.020   4.619   0.991  0.00  0.00    +0.028 A 
ATOM     14  C   UNL     1       1.963   5.462   1.547  0.00  0.00    +0.002 A 
ATOM     15  C   UNL     1       2.341   5.306   2.867  0.00  0.00    +0.004 A 
ATOM     16  C   UNL     1       1.775   4.309   3.640  0.00  0.00    +0.047 A 
ATOM     17  C   UNL     1       0.826   3.462   3.091  0.00  0.00    +0.142 A 
BRANCH  17  18
ATOM     18  O   UNL     1       0.269   2.480   3.849  0.00  0.00    -0.493 OA
ATOM     19  C   UNL     1       0.709   2.378   5.205  0.00  0.00    +0.277 C 
ENDBRANCH  17  18
ENDBRANCH  10  12
ENDBRANCH   7  10
ENDBRANCH   3   7
BRANCH   1  20
ATOM     20  N   UNL     1       2.537  -1.793  -0.674  0.00  0.00    -0.213 N 
ATOM     21  H   UNL     1       3.461  -2.239  -0.276  0.00  0.00    +0.174 HD
BRANCH  20  22
ATOM     22  S   UNL     1       1.277  -2.766  -1.129  0.00  0.00    +0.073 S 
ATOM     23  O   UNL     1       1.739  -4.105  -1.022  0.00  0.00    -0.150 OA
ATOM     24  O   UNL     1       0.130  -2.298  -0.432  0.00  0.00    -0.150 OA
BRANCH  22  28
ATOM     25  C   UNL     1      -1.607  -1.110  -5.283  0.00  0.00    +0.051 C 
ATOM     26  C   UNL     1      -0.408  -1.697  -4.584  0.00  0.00    -0.011 A 
ATOM     27  C   UNL     1      -0.214  -1.917  -3.260  0.00  0.00    +0.040 A 
ATOM     28  C   UNL     1       0.981  -2.469  -2.840  0.00  0.00    +0.119 A 
ATOM     29  C   UNL     1       1.921  -2.784  -3.765  0.00  0.00    +0.014 A 
ATOM     30  S   UNL     1       1.124  -2.290  -5.284  0.00  0.00    -0.097 S 
ATOM     31  C   UNL     1       3.284  -3.394  -3.563  0.00  0.00    +0.053 C 
ENDBRANCH  22  28
ENDBRANCH  20  22
ENDBRANCH   1  20
BRANCH   6  32
ATOM     32  O   UNL     1       4.739  -0.249  -1.367  0.00  0.00    -0.505 OA
ATOM     33  H   UNL     1       5.617   0.353  -1.642  0.00  0.00    +0.292 HD
ENDBRANCH   6  32
TORSDOF 8
