REMARK  Name = ZINC65183023
REMARK  9 active torsions:
REMARK  status: ('A' for Active; 'I' for Inactive)
REMARK    1  A    between atoms: C_1  and  C_2
REMARK    2  A    between atoms: C_2  and  C_3
REMARK    3  A    between atoms: C_3  and  C_5
REMARK    4  A    between atoms: C_3  and  C_11
REMARK    5  A    between atoms: N_13  and  C_14
REMARK    6  A    between atoms: N_13  and  C_15
REMARK    7  A    between atoms: C_15  and  C_16
REMARK    8  A    between atoms: C_16  and  C_17
REMARK    9  A    between atoms: C_20  and  C_23
REMARK                            x       y       z     vdW  Elec       q    Type
REMARK                         _______ _______ _______ _____ _____    ______ ____
ROOT
ATOM      1  C   UNL     1       0.102  -6.047  -0.775  0.00  0.00    +0.139 C 
ATOM      2  N   UNL     1       0.910  -6.843  -0.174  0.00  0.00    -0.072 NA
ATOM      3  O   UNL     1       0.582  -8.194  -0.439  0.00  0.00    -0.367 OA
ATOM      4  C   UNL     1      -0.564  -8.169  -1.306  0.00  0.00    +0.318 C 
ATOM      5  N   UNL     1      -0.845  -6.737  -1.494  0.00  0.00    -0.291 N 
ATOM      6  H   UNL     1      -1.561  -6.353  -2.025  0.00  0.00    +0.151 HD
ENDROOT
BRANCH   4   7
ATOM      7  C   UNL     1      -1.753  -8.863  -0.640  0.00  0.00    +0.165 C 
ATOM      8  C   UNL     1      -2.127  -8.146   0.638  0.00  0.00    +0.012 C 
ATOM      9  C   UNL     1      -1.972  -9.049   1.634  0.00  0.00    -0.002 A 
ATOM     10  C   UNL     1      -2.172  -8.971   3.086  0.00  0.00    +0.029 A 
ATOM     11  C   UNL     1      -1.929 -10.068   3.841  0.00  0.00    +0.042 A 
ATOM     12  C   UNL     1      -1.492 -11.273   3.271  0.00  0.00    +0.022 A 
ATOM     13  C   UNL     1      -1.286 -11.421   1.946  0.00  0.00    +0.027 A 
ATOM     14  C   UNL     1      -1.511 -10.332   1.058  0.00  0.00    +0.043 A 
ATOM     15  N   UNL     1      -1.386 -10.228  -0.244  0.00  0.00    -0.373 N 
ATOM     16 CL   UNL     1      -2.163  -9.980   5.559  0.00  0.00    -0.084 Cl
ATOM     17  H   UNL     1      -1.099 -10.933  -0.845  0.00  0.00    +0.160 HD
ENDBRANCH   4   7
BRANCH   1  18
ATOM     18  C   UNL     1       0.179  -4.543  -0.697  0.00  0.00    +0.094 C 
BRANCH  18  19
ATOM     19  C   UNL     1       1.357  -4.138   0.191  0.00  0.00    +0.115 C 
BRANCH  19  22
ATOM     20  C   UNL     1       0.767  -2.018   1.236  0.00  0.00    +0.223 C 
ATOM     21  O   UNL     1       0.163  -2.638   2.087  0.00  0.00    -0.275 OA
ATOM     22  N   UNL     1       1.432  -2.677   0.267  0.00  0.00    -0.304 N 
ATOM     23  C   UNL     1       2.229  -1.933  -0.710  0.00  0.00    +0.132 C 
BRANCH  20  24
ATOM     24  C   UNL     1       0.773  -0.511   1.264  0.00  0.00    +0.105 C 
BRANCH  24  25
ATOM     25  C   UNL     1       0.253  -0.031   2.594  0.00  0.00    -0.036 A 
ATOM     26  C   UNL     1      -1.024  -0.372   3.001  0.00  0.00    +0.004 A 
ATOM     27  C   UNL     1      -1.501   0.069   4.221  0.00  0.00    +0.000 A 
ATOM     28  C   UNL     1      -0.702   0.850   5.035  0.00  0.00    +0.000 A 
ATOM     29  C   UNL     1       0.575   1.190   4.628  0.00  0.00    +0.000 A 
ATOM     30  C   UNL     1       1.054   0.746   3.410  0.00  0.00    +0.004 A 
ENDBRANCH  24  25
BRANCH  24  32
ATOM     31  C   UNL     1      -0.002   1.547   0.078  0.00  0.00    +0.005 C 
ATOM     32  C   UNL     1      -0.121   0.023   0.143  0.00  0.00    +0.014 C 
ENDBRANCH  24  32
ENDBRANCH  20  24
ENDBRANCH  19  22
ENDBRANCH  18  19
ENDBRANCH   1  18
TORSDOF 7
