REMARK  Name = ZINC11185838
REMARK  8 active torsions:
REMARK  status: ('A' for Active; 'I' for Inactive)
REMARK    1  A    between atoms: C_1  and  C_2
REMARK    2  A    between atoms: C_5  and  C_36
REMARK    3  A    between atoms: C_6  and  N_8
REMARK    4  A    between atoms: C_14  and  C_19
REMARK    5  A    between atoms: C_19  and  O_21
REMARK    6  A    between atoms: O_21  and  C_22
REMARK    7  A    between atoms: C_22  and  C_23
REMARK    8  A    between atoms: N_25  and  C_26
REMARK                            x       y       z     vdW  Elec       q    Type
REMARK                         _______ _______ _______ _____ _____    ______ ____
ROOT
ATOM      1  N   UNL     1      -6.193  -5.673   0.032  0.00  0.00    -0.202 N 
ATOM      2  C   UNL     1      -6.620  -4.398   0.043  0.00  0.00    +0.258 C 
ATOM      3  O   UNL     1      -7.780  -4.039   0.057  0.00  0.00    -0.269 OA
ATOM      4  C   UNL     1      -5.439  -3.506   0.036  0.00  0.00    +0.050 A 
ATOM      5  C   UNL     1      -5.270  -2.130   0.042  0.00  0.00    +0.014 A 
ATOM      6  C   UNL     1      -3.994  -1.592   0.037  0.00  0.00    +0.016 A 
ATOM      7  C   UNL     1      -2.877  -2.428   0.017  0.00  0.00    +0.060 A 
ATOM      8  C   UNL     1      -3.040  -3.817   0.011  0.00  0.00    +0.028 A 
ATOM      9  C   UNL     1      -4.315  -4.356   0.020  0.00  0.00    +0.051 A 
ATOM     10  C   UNL     1      -4.850  -5.734   0.018  0.00  0.00    +0.258 C 
ATOM     11  O   UNL     1      -4.187  -6.752   0.006  0.00  0.00    -0.269 OA
ENDROOT
BRANCH   1  17
ATOM     12  C   UNL     1      -8.719  -9.066   2.542  0.00  0.00    +0.044 C 
ATOM     13  C   UNL     1      -8.276  -8.456   1.237  0.00  0.00    -0.049 A 
ATOM     14  C   UNL     1      -8.704  -9.001   0.040  0.00  0.00    +0.004 A 
ATOM     15  C   UNL     1      -8.300  -8.444  -1.159  0.00  0.00    +0.005 A 
ATOM     16  C   UNL     1      -7.473  -7.338  -1.165  0.00  0.00    -0.029 A 
ATOM     17  C   UNL     1      -7.037  -6.792   0.035  0.00  0.00    +0.048 A 
ATOM     18  C   UNL     1      -7.444  -7.354   1.238  0.00  0.00    +0.027 A 
ATOM     19  C   UNL     1      -7.038  -6.728  -2.473  0.00  0.00    +0.045 C 
ENDBRANCH   1  17
BRANCH   7  20
ATOM     20  C   UNL     1      -1.518  -1.844   0.007  0.00  0.00    +0.340 C 
ATOM     21  O   UNL     1      -0.545  -2.571  -0.006  0.00  0.00    -0.245 OA
BRANCH  20  22
ATOM     22  O   UNL     1      -1.360  -0.507   0.012  0.00  0.00    -0.452 OA
BRANCH  22  23
ATOM     23  C   UNL     1       0.002  -0.004   0.002  0.00  0.00    +0.328 C 
BRANCH  23  24
ATOM     24  C   UNL     1      -0.018   1.503   0.010  0.00  0.00    +0.251 C 
ATOM     25  O   UNL     1      -1.077   2.095   0.018  0.00  0.00    -0.272 OA
ATOM     26  N   UNL     1       1.139   2.192   0.003  0.00  0.00    -0.307 N 
ATOM     27  H   UNL     1       1.986   1.719  -0.008  0.00  0.00    +0.149 HD
BRANCH  26  28
ATOM     28  C   UNL     1       1.120   3.657   0.011  0.00  0.00    +0.035 C 
ATOM     29  C   UNL     1       0.380   4.164  -1.228  0.00  0.00    +0.029 C 
ATOM     30  C   UNL     1       0.359   5.694  -1.220  0.00  0.00    -0.008 C 
ATOM     31  C   UNL     1       1.794   6.224  -1.231  0.00  0.00    +0.007 C 
ATOM     32  C   UNL     1       2.534   5.717   0.009  0.00  0.00    -0.008 C 
ATOM     33  C   UNL     1       2.555   4.187   0.000  0.00  0.00    +0.029 C 
ATOM     34  C   UNL     1       1.818   6.210   1.267  0.00  0.00    +0.007 C 
ATOM     35  C   UNL     1       0.383   5.681   1.278  0.00  0.00    -0.008 C 
ATOM     36  C   UNL     1      -0.357   6.187   0.039  0.00  0.00    +0.007 C 
ATOM     37  C   UNL     1       0.404   4.151   1.270  0.00  0.00    +0.029 C 
ENDBRANCH  26  28
ENDBRANCH  23  24
ENDBRANCH  22  23
ENDBRANCH  20  22
ENDBRANCH   7  20
TORSDOF 6
