REMARK  Name = ZINC36937326
REMARK  5 active torsions:
REMARK  status: ('A' for Active; 'I' for Inactive)
REMARK    1  A    between atoms: C_1  and  O_2
REMARK    2  A    between atoms: O_2  and  C_3
REMARK    3  A    between atoms: C_8  and  C_9
REMARK    4  A    between atoms: C_10  and  C_15
REMARK    5  A    between atoms: C_13  and  N_14
REMARK                            x       y       z     vdW  Elec       q    Type
REMARK                         _______ _______ _______ _____ _____    ______ ____
ROOT
ATOM      1  C   UNL     1       0.064  -2.829  -0.056  0.00  0.00    +0.077 A 
ATOM      2  C   UNL     1      -1.312  -3.333  -0.002  0.00  0.00    +0.158 A 
ATOM      3  N   UNL     1      -1.430  -4.019   1.113  0.00  0.00    -0.072 NA
ATOM      4  O   UNL     1      -0.194  -3.989   1.799  0.00  0.00    -0.339 OA
ATOM      5  C   UNL     1       0.694  -3.279   1.086  0.00  0.00    +0.224 A 
ENDROOT
BRANCH   1  11
ATOM      6  C   UNL     1       0.606  -0.607  -1.056  0.00  0.00    +0.128 A 
ATOM      7  C   UNL     1       1.172   0.158  -2.061  0.00  0.00    +0.047 A 
ATOM      8  C   UNL     1       1.787  -0.456  -3.137  0.00  0.00    +0.023 A 
ATOM      9  C   UNL     1       1.840  -1.837  -3.216  0.00  0.00    +0.042 A 
ATOM     10  C   UNL     1       1.279  -2.613  -2.221  0.00  0.00    +0.032 A 
ATOM     11  C   UNL     1       0.662  -2.003  -1.130  0.00  0.00    +0.032 A 
ATOM     12 CL   UNL     1       2.615  -2.597  -4.572  0.00  0.00    -0.084 Cl
BRANCH   6  14
ATOM     13  C   UNL     1      -0.017   1.425   0.010  0.00  0.00    +0.277 C 
ATOM     14  O   UNL     1       0.002  -0.004   0.002  0.00  0.00    -0.494 OA
ENDBRANCH   6  14
ENDBRANCH   1  11
BRANCH   2  15
ATOM     15  C   UNL     1      -2.367  -3.113  -1.012  0.00  0.00    +0.159 A 
ATOM     16  C   UNL     1      -3.337  -4.001  -1.360  0.00  0.00    +0.053 A 
ATOM     17  C   UNL     1      -4.119  -3.379  -2.352  0.00  0.00    +0.057 A 
ATOM     18  C   UNL     1      -3.595  -2.153  -2.558  0.00  0.00    +0.171 A 
ATOM     19  O   UNL     1      -2.540  -1.995  -1.744  0.00  0.00    -0.447 OA
ATOM     20 BR   UNL     1      -4.242  -0.870  -3.787  0.00  0.00    -0.008 Br
ENDBRANCH   2  15
BRANCH   5  21
ATOM     21  N   UNL     1       2.007  -3.038   1.436  0.00  0.00    -0.327 N 
ATOM     22  H   UNL     1       2.575  -2.508   0.854  0.00  0.00    +0.145 HD
ATOM     23  H   UNL     1       2.363  -3.399   2.263  0.00  0.00    +0.145 HD
ENDBRANCH   5  21
TORSDOF 4
