REMARK  Name = ZINC55341037
REMARK  12 active torsions:
REMARK  status: ('A' for Active; 'I' for Inactive)
REMARK    1  A    between atoms: C_1  and  C_2
REMARK    2  A    between atoms: C_2  and  C_3
REMARK    3  A    between atoms: C_2  and  C_4
REMARK    4  A    between atoms: C_9  and  N_10
REMARK    5  A    between atoms: C_11  and  C_13
REMARK    6  A    between atoms: C_13  and  C_14
REMARK    7  A    between atoms: C_14  and  C_15
REMARK    8  A    between atoms: N_17  and  C_18
REMARK    9  A    between atoms: C_18  and  C_19
REMARK   10  A    between atoms: C_19  and  N_20
REMARK   11  A    between atoms: C_25  and  C_27
REMARK   12  A    between atoms: C_27  and  O_28
REMARK                            x       y       z     vdW  Elec       q    Type
REMARK                         _______ _______ _______ _____ _____    ______ ____
ROOT
ATOM      1  C   UNL     1       6.046  -2.715   3.549  0.00  0.00    +0.213 C 
ATOM      2  O   UNL     1       5.496  -2.427   4.591  0.00  0.00    -0.276 OA
ATOM      3  N   UNL     1       7.165  -3.466   3.562  0.00  0.00    -0.317 N 
ATOM      4  H   UNL     1       7.605  -3.697   2.729  0.00  0.00    +0.149 HD
ENDROOT
BRANCH   1   5
ATOM      5  C   UNL     1       5.478  -2.233   2.239  0.00  0.00    +0.105 C 
BRANCH   5   6
ATOM      6  C   UNL     1       4.217  -1.408   2.502  0.00  0.00    +0.105 C 
BRANCH   6   8
ATOM      7  N   UNL     1       2.531  -0.174   1.178  0.00  0.00    -0.285 N 
ATOM      8  C   UNL     1       3.650  -0.925   1.192  0.00  0.00    +0.218 C 
ATOM      9  O   UNL     1       4.200  -1.213   0.150  0.00  0.00    -0.275 OA
ATOM     10  H   UNL     1       2.125   0.106   2.013  0.00  0.00    +0.155 HD
BRANCH   7  16
ATOM     11  C   UNL     1       0.591   0.447  -0.120  0.00  0.00    -0.024 A 
ATOM     12  C   UNL     1       0.027   0.823  -1.323  0.00  0.00    +0.006 A 
ATOM     13  C   UNL     1       0.818   0.950  -2.450  0.00  0.00    +0.000 A 
ATOM     14  C   UNL     1       2.177   0.702  -2.375  0.00  0.00    +0.002 A 
ATOM     15  C   UNL     1       2.747   0.326  -1.175  0.00  0.00    +0.023 A 
ATOM     16  C   UNL     1       1.955   0.202  -0.041  0.00  0.00    +0.037 A 
BRANCH  11  18
ATOM     17  C   UNL     1      -0.843   1.677   1.486  0.00  0.00    +0.012 C 
ATOM     18  C   UNL     1      -0.273   0.308   1.108  0.00  0.00    +0.015 C 
ATOM     19  C   UNL     1      -1.420  -0.660   0.817  0.00  0.00    +0.012 C 
ENDBRANCH  11  18
ENDBRANCH   7  16
ENDBRANCH   6   8
ENDBRANCH   5   6
ENDBRANCH   1   5
BRANCH   3  20
ATOM     20  C   UNL     1       7.716  -3.935   4.836  0.00  0.00    +0.085 C 
BRANCH  20  21
ATOM     21  C   UNL     1       8.978  -4.761   4.572  0.00  0.00    -0.059 C 
BRANCH  21  22
ATOM     22  N   UNL     1       9.531  -5.231   5.850  0.00  0.00    +0.384 N 
ATOM     23  C   UNL     1       8.583  -6.158   6.480  0.00  0.00    -0.078 C 
ATOM     24  C   UNL     1       9.118  -6.588   7.848  0.00  0.00    -0.019 C 
ATOM     25  C   UNL     1      10.470  -7.283   7.666  0.00  0.00    -0.003 C 
ATOM     26  C   UNL     1      11.428  -6.333   6.941  0.00  0.00    -0.013 C 
ATOM     27  C   UNL     1      10.808  -5.913   5.606  0.00  0.00    -0.043 C 
ATOM     28  H   UNL     1       9.683  -4.442   6.460  0.00  0.00    -0.081 HD
BRANCH  27  29
ATOM     29  C   UNL     1      11.761  -4.964   4.878  0.00  0.00    +0.140 C 
BRANCH  29  30
ATOM     30  O   UNL     1      12.049  -3.842   5.715  0.00  0.00    -0.397 OA
ATOM     31  H   UNL     1      12.649  -3.197   5.316  0.00  0.00    +0.209 HD
ENDBRANCH  29  30
ENDBRANCH  27  29
ENDBRANCH  21  22
ENDBRANCH  20  21
ENDBRANCH   3  20
TORSDOF 10
