REMARK  Name = ZINC20211279
REMARK  9 active torsions:
REMARK  status: ('A' for Active; 'I' for Inactive)
REMARK    1  A    between atoms: C_1  and  N_2
REMARK    2  A    between atoms: C_4  and  C_19
REMARK    3  A    between atoms: C_5  and  C_7
REMARK    4  A    between atoms: C_10  and  C_13
REMARK    5  A    between atoms: C_19  and  N_20
REMARK    6  A    between atoms: N_20  and  C_21
REMARK    7  A    between atoms: C_21  and  C_22
REMARK    8  A    between atoms: C_22  and  C_23
REMARK    9  A    between atoms: C_27  and  C_29
REMARK                            x       y       z     vdW  Elec       q    Type
REMARK                         _______ _______ _______ _____ _____    ______ ____
ROOT
ATOM      1  C   UNL     1      -0.010   1.053   0.008  0.00  0.00    +0.172 C 
ATOM      2  N   UNL     1      -0.698   1.528   1.212  0.00  0.00    -0.274 N 
ATOM      3  C   UNL     1      -0.118   1.801   2.400  0.00  0.00    +0.110 A 
ATOM      4  C   UNL     1      -1.084   2.211   3.251  0.00  0.00    -0.019 A 
ATOM      5  C   UNL     1      -2.309   2.189   2.556  0.00  0.00    +0.094 A 
ATOM      6  N   UNL     1      -2.071   1.783   1.327  0.00  0.00    -0.171 NA
ENDROOT
BRANCH   5   7
ATOM      7  C   UNL     1      -3.634   2.564   3.110  0.00  0.00    +0.002 A 
ATOM      8  C   UNL     1      -3.942   2.283   4.439  0.00  0.00    +0.010 A 
ATOM      9  C   UNL     1      -5.173   2.638   4.950  0.00  0.00    +0.004 A 
ATOM     10  C   UNL     1      -6.106   3.264   4.142  0.00  0.00    -0.044 A 
ATOM     11  C   UNL     1      -5.808   3.542   2.821  0.00  0.00    +0.004 A 
ATOM     12  C   UNL     1      -4.577   3.195   2.300  0.00  0.00    +0.010 A 
BRANCH  10  13
ATOM     13  C   UNL     1      -7.452   3.644   4.704  0.00  0.00    +0.019 C 
ATOM     14  C   UNL     1      -7.261   4.614   5.872  0.00  0.00    +0.008 C 
ATOM     15  C   UNL     1      -8.627   5.000   6.442  0.00  0.00    +0.001 C 
ATOM     16  C   UNL     1      -9.347   3.744   6.936  0.00  0.00    +0.000 C 
ATOM     17  C   UNL     1      -9.538   2.773   5.769  0.00  0.00    +0.001 C 
ATOM     18  C   UNL     1      -8.171   2.387   5.198  0.00  0.00    +0.008 C 
ENDBRANCH  10  13
ENDBRANCH   5   7
BRANCH   4  19
ATOM     19  C   UNL     1      -0.887   2.619   4.688  0.00  0.00    -0.043 C 
BRANCH  19  20
ATOM     20  N   UNL     1      -1.258   1.504   5.569  0.00  0.00    +0.382 N 
ATOM     21  H   UNL     1      -2.314   1.242   5.404  0.00  0.00    -0.085 HD
ATOM     22  H   UNL     1      -0.625   0.632   5.345  0.00  0.00    -0.085 HD
BRANCH  20  23
ATOM     23  C   UNL     1      -1.078   1.866   6.981  0.00  0.00    -0.074 C 
BRANCH  23  24
ATOM     24  C   UNL     1      -1.474   0.682   7.866  0.00  0.00    +0.059 C 
BRANCH  24  25
ATOM     25  C   UNL     1      -1.289   1.054   9.315  0.00  0.00    +0.150 A 
ATOM     26  N   UNL     1      -2.233   0.991  10.272  0.00  0.00    -0.157 NA
ATOM     27  H   UNL     1      -2.203   1.444  12.398  0.00  0.00    +0.191 HD
ATOM     28  N   UNL     1      -1.624   1.417  11.463  0.00  0.00    -0.259 N 
ATOM     29  C   UNL     1      -0.379   1.716  11.164  0.00  0.00    +0.156 A 
ATOM     30  N   UNL     1      -0.185   1.493   9.857  0.00  0.00    -0.212 NA
BRANCH  29  31
ATOM     31  C   UNL     1       0.643   2.218  12.117  0.00  0.00    +0.022 A 
ATOM     32  C   UNL     1       1.944   2.501  11.691  0.00  0.00    +0.031 A 
ATOM     33  C   UNL     1       2.861   2.970  12.609  0.00  0.00    +0.111 A 
ATOM     34  N   UNL     1       2.526   3.143  13.873  0.00  0.00    -0.263 NA
ATOM     35  C   UNL     1       1.311   2.883  14.316  0.00  0.00    +0.111 A 
ATOM     36  C   UNL     1       0.331   2.416  13.465  0.00  0.00    +0.031 A 
ENDBRANCH  29  31
ENDBRANCH  24  25
ENDBRANCH  23  24
ENDBRANCH  20  23
ENDBRANCH  19  20
ENDBRANCH   4  19
TORSDOF 8
