REMARK  Name = ZINC59460671
REMARK  6 active torsions:
REMARK  status: ('A' for Active; 'I' for Inactive)
REMARK    1  A    between atoms: C_8  and  S_10
REMARK    2  A    between atoms: S_10  and  C_11
REMARK    3  A    between atoms: C_11  and  C_12
REMARK    4  A    between atoms: C_12  and  C_18
REMARK    5  A    between atoms: N_13  and  N_14
REMARK    6  A    between atoms: C_21  and  N_24
REMARK                            x       y       z     vdW  Elec       q    Type
REMARK                         _______ _______ _______ _____ _____    ______ ____
ROOT
ATOM      1  C   UNL     1       6.412  -4.292  -0.098  0.00  0.00    +0.079 C 
ATOM      2  N   UNL     1       5.688  -5.294  -0.491  0.00  0.00    -0.175 NA
ENDROOT
BRANCH   2   3
ATOM      3  N   UNL     1       6.284  -6.370  -1.161  0.00  0.00    -0.248 N 
ATOM      4  C   UNL     1       5.505  -7.373  -1.676  0.00  0.00    +0.187 C 
ATOM      5  N   UNL     1       6.073  -8.396  -2.314  0.00  0.00    -0.370 N 
ATOM      6  N   UNL     1       4.181  -7.325  -1.540  0.00  0.00    -0.370 N 
ATOM      7  H   UNL     1       7.248  -6.405  -1.261  0.00  0.00    +0.192 HD
ATOM      8  H   UNL     1       5.521  -9.106  -2.678  0.00  0.00    +0.159 HD
ATOM      9  H   UNL     1       3.768  -6.580  -1.076  0.00  0.00    +0.159 HD
ATOM     10  H   UNL     1       3.630  -8.035  -1.904  0.00  0.00    +0.159 HD
ATOM     11  H   UNL     1       7.037  -8.431  -2.413  0.00  0.00    +0.159 HD
ENDBRANCH   2   3
BRANCH   1  12
ATOM     12  C   UNL     1       7.833  -4.212  -0.487  0.00  0.00    -0.001 A 
ATOM     13  C   UNL     1       8.232  -4.600  -1.768  0.00  0.00    +0.012 A 
ATOM     14  C   UNL     1       9.562  -4.522  -2.126  0.00  0.00    +0.033 A 
ATOM     15  C   UNL     1      10.500  -4.061  -1.219  0.00  0.00    +0.126 A 
ATOM     16  C   UNL     1      10.111  -3.675   0.052  0.00  0.00    +0.033 A 
ATOM     17  C   UNL     1       8.784  -3.741   0.421  0.00  0.00    +0.012 A 
BRANCH  15  18
ATOM     18  N   UNL     1      11.925  -3.981  -1.610  0.00  0.00    +0.056 N 
ATOM     19  O   UNL     1      12.267  -4.318  -2.720  0.00  0.00    -0.126 OA
ATOM     20  O   UNL     1      12.747  -3.579  -0.820  0.00  0.00    -0.126 OA
ENDBRANCH  15  18
ENDBRANCH   1  12
BRANCH   1  21
ATOM     21  C   UNL     1       5.803  -3.211   0.758  0.00  0.00    +0.136 C 
BRANCH  21  22
ATOM     22  S   UNL     1       4.056  -3.594   1.062  0.00  0.00    -0.061 S 
BRANCH  22  30
ATOM     23  C   UNL     1       1.439   0.846   4.610  0.00  0.00    +0.002 A 
ATOM     24  C   UNL     1       2.703   1.413   4.569  0.00  0.00    +0.004 A 
ATOM     25  C   UNL     1       3.724   0.797   3.873  0.00  0.00    +0.048 A 
ATOM     26  C   UNL     1       3.487  -0.397   3.211  0.00  0.00    +0.156 A 
ATOM     27  C   UNL     1       2.209  -0.974   3.250  0.00  0.00    +0.110 A 
ATOM     28  C   UNL     1       1.185  -0.340   3.957  0.00  0.00    +0.031 A 
ATOM     29  N   UNL     1       2.276  -2.122   2.521  0.00  0.00    -0.203 NA
ATOM     30  C   UNL     1       3.495  -2.255   2.062  0.00  0.00    +0.258 A 
ATOM     31  O   UNL     1       4.256  -1.222   2.464  0.00  0.00    -0.431 OA
ENDBRANCH  22  30
ENDBRANCH  21  22
ENDBRANCH   1  21
TORSDOF 6
