REMARK  Name = ZINC02732810
REMARK  10 active torsions:
REMARK  status: ('A' for Active; 'I' for Inactive)
REMARK    1  A    between atoms: C_1  and  C_2
REMARK    2  A    between atoms: C_2  and  N_3
REMARK    3  A    between atoms: C_4  and  C_22
REMARK    4  A    between atoms: C_5  and  C_17
REMARK    5  A    between atoms: C_6  and  C_11
REMARK    6  A    between atoms: C_17  and  O_19
REMARK    7  A    between atoms: O_19  and  C_20
REMARK    8  A    between atoms: C_20  and  C_21
REMARK    9  A    between atoms: C_22  and  N_60
REMARK   10  A    between atoms: C_25  and  C_28
REMARK                            x       y       z     vdW  Elec       q    Type
REMARK                         _______ _______ _______ _____ _____    ______ ____
ROOT
ATOM      1  N   UNL     1       3.438   2.026   0.312  0.00  0.00    -0.261 N 
ATOM      2  C   UNL     1       2.303   1.282   0.164  0.00  0.00    +0.010 C 
ATOM      3  C   UNL     1       1.141   1.852  -0.222  0.00  0.00    +0.076 C 
ATOM      4  C   UNL     1       1.142   3.343  -0.490  0.00  0.00    +0.143 C 
ATOM      5  N   UNL     1       2.416   4.055  -0.295  0.00  0.00    -0.288 N 
ATOM      6  C   UNL     1       3.494   3.346   0.095  0.00  0.00    +0.307 C 
ATOM      7  O   UNL     1       4.551   3.924   0.253  0.00  0.00    -0.252 OA
ATOM      8  H   UNL     1       2.478   5.011  -0.447  0.00  0.00    +0.151 HD
ENDROOT
BRANCH   4   9
ATOM      9  C   UNL     1       0.696   3.559  -1.914  0.00  0.00    -0.023 A 
ATOM     10  C   UNL     1       1.594   3.393  -2.951  0.00  0.00    +0.006 A 
ATOM     11  C   UNL     1       1.185   3.588  -4.257  0.00  0.00    +0.000 A 
ATOM     12  C   UNL     1      -0.120   3.957  -4.525  0.00  0.00    +0.000 A 
ATOM     13  C   UNL     1      -1.017   4.128  -3.487  0.00  0.00    +0.000 A 
ATOM     14  C   UNL     1      -0.608   3.929  -2.181  0.00  0.00    +0.006 A 
ENDBRANCH   4   9
BRANCH   1  16
ATOM     15  C   UNL     1       5.437   0.877  -0.502  0.00  0.00    +0.025 C 
ATOM     16  C   UNL     1       4.663   1.343   0.733  0.00  0.00    +0.111 C 
ENDBRANCH   1  16
BRANCH   3  17
ATOM     17  C   UNL     1      -0.035   1.081  -0.377  0.00  0.00    +0.339 C 
ATOM     18  O   UNL     1      -0.043  -0.090  -0.048  0.00  0.00    -0.245 OA
BRANCH  17  19
ATOM     19  O   UNL     1      -1.147   1.644  -0.895  0.00  0.00    -0.462 OA
BRANCH  19  20
ATOM     20  C   UNL     1      -2.297   0.806  -1.028  0.00  0.00    +0.229 C 
ATOM     21  C   UNL     1      -3.450   1.613  -1.628  0.00  0.00    +0.048 C 
ENDBRANCH  19  20
ENDBRANCH  17  19
ENDBRANCH   3  17
BRANCH   2  22
ATOM     22  C   UNL     1       2.348  -0.200   0.435  0.00  0.00    -0.026 C 
BRANCH  22  28
ATOM     23  C   UNL     1       1.062   0.316   2.420  0.00  0.00    -0.078 C 
ATOM     24  C   UNL     1       1.025   0.159   3.942  0.00  0.00    -0.006 C 
ATOM     25  C   UNL     1       0.891  -1.325   4.294  0.00  0.00    +0.071 C 
ATOM     26  C   UNL     1       2.061  -2.096   3.675  0.00  0.00    -0.006 C 
ATOM     27  C   UNL     1       2.068  -1.874   2.161  0.00  0.00    -0.078 C 
ATOM     28  N   UNL     1       2.224  -0.429   1.889  0.00  0.00    +0.383 N 
ATOM     29  H   UNL     1       3.075  -0.093   2.353  0.00  0.00    -0.081 HD
BRANCH  25  30
ATOM     30  C   UNL     1       0.914  -1.493   5.792  0.00  0.00    +0.213 C 
ATOM     31  O   UNL     1       1.780  -2.162   6.314  0.00  0.00    -0.276 OA
ATOM     32  N   UNL     1      -0.028  -0.898   6.550  0.00  0.00    -0.329 N 
ATOM     33  H   UNL     1      -0.721  -0.363   6.133  0.00  0.00    +0.145 HD
ATOM     34  H   UNL     1      -0.014  -1.006   7.514  0.00  0.00    +0.145 HD
ENDBRANCH  25  30
ENDBRANCH  22  28
ENDBRANCH   2  22
TORSDOF 8
