REMARK  Name = ZINC36299126
REMARK  11 active torsions:
REMARK  status: ('A' for Active; 'I' for Inactive)
REMARK    1  A    between atoms: C_1  and  C_2
REMARK    2  A    between atoms: C_2  and  C_3
REMARK    3  A    between atoms: C_2  and  C_4
REMARK    4  A    between atoms: C_4  and  C_5
REMARK    5  A    between atoms: C_5  and  C_7
REMARK    6  A    between atoms: C_5  and  N_22
REMARK    7  A    between atoms: C_7  and  N_8
REMARK    8  A    between atoms: N_8  and  S_9
REMARK    9  A    between atoms: S_9  and  C_12
REMARK   10  A    between atoms: C_17  and  O_18
REMARK   11  A    between atoms: O_18  and  C_19
REMARK                            x       y       z     vdW  Elec       q    Type
REMARK                         _______ _______ _______ _____ _____    ______ ____
ROOT
ATOM      1  S   UNL     1      -3.831  -4.530   0.122  0.00  0.00    +0.062 S 
ATOM      2  O   UNL     1      -3.491  -5.909   0.085  0.00  0.00    -0.153 OA
ATOM      3  O   UNL     1      -3.950  -3.807   1.339  0.00  0.00    -0.153 OA
ENDROOT
BRANCH   1   4
ATOM      4  C   UNL     1      -5.374  -4.369  -0.714  0.00  0.00    +0.149 A 
ATOM      5  C   UNL     1      -6.411  -3.675  -0.121  0.00  0.00    +0.052 A 
ATOM      6  C   UNL     1      -7.623  -3.547  -0.777  0.00  0.00    +0.044 A 
ATOM      7  C   UNL     1      -7.799  -4.114  -2.027  0.00  0.00    +0.039 A 
ATOM      8  C   UNL     1      -6.764  -4.809  -2.623  0.00  0.00    +0.063 A 
ATOM      9  C   UNL     1      -5.545  -4.933  -1.969  0.00  0.00    +0.160 A 
ATOM     10 BR   UNL     1      -7.004  -5.584  -4.330  0.00  0.00    -0.046 Br
ATOM     11 CL   UNL     1      -8.925  -2.675  -0.030  0.00  0.00    -0.083 Cl
BRANCH   9  12
ATOM     12  O   UNL     1      -4.524  -5.611  -2.555  0.00  0.00    -0.492 OA
ATOM     13  C   UNL     1      -4.516  -7.032  -2.402  0.00  0.00    +0.277 C 
ENDBRANCH   9  12
ENDBRANCH   1   4
BRANCH   1  14
ATOM     14  N   UNL     1      -2.696  -3.739  -0.789  0.00  0.00    -0.191 NA
ATOM     15  H   UNL     1      -1.969  -4.236  -1.196  0.00  0.00    +0.148 HD
BRANCH  14  16
ATOM     16  C   UNL     1      -2.789  -2.289  -0.979  0.00  0.00    +0.090 C 
BRANCH  16  17
ATOM     17  C   UNL     1      -1.464  -1.761  -1.531  0.00  0.00    -0.059 C 
BRANCH  17  18
ATOM     18  N   UNL     1      -1.119  -2.491  -2.758  0.00  0.00    +0.381 N 
ATOM     19  H   UNL     1      -1.847  -2.358  -3.444  0.00  0.00    -0.090 HD
ATOM     20  H   UNL     1      -0.245  -2.142  -3.122  0.00  0.00    -0.090 HD
ATOM     21  H   UNL     1      -1.028  -3.474  -2.550  0.00  0.00    -0.090 HD
ENDBRANCH  17  18
BRANCH  17  22
ATOM     22  C   UNL     1      -1.602  -0.270  -1.847  0.00  0.00    -0.012 C 
BRANCH  22  24
ATOM     23  C   UNL     1      -0.406   1.745  -2.715  0.00  0.00    +0.007 C 
ATOM     24  C   UNL     1      -0.244   0.287  -2.280  0.00  0.00    -0.019 C 
ATOM     25  C   UNL     1       0.737   0.210  -1.109  0.00  0.00    +0.007 C 
ENDBRANCH  22  24
ENDBRANCH  17  22
ENDBRANCH  16  17
ENDBRANCH  14  16
ENDBRANCH   1  14
TORSDOF 8
