REMARK  Name = ZINC10247617
REMARK  9 active torsions:
REMARK  status: ('A' for Active; 'I' for Inactive)
REMARK    1  A    between atoms: C_1  and  N_2
REMARK    2  A    between atoms: N_2  and  C_3
REMARK    3  A    between atoms: C_6  and  N_28
REMARK    4  A    between atoms: C_8  and  C_9
REMARK    5  A    between atoms: C_9  and  O_11
REMARK    6  A    between atoms: O_11  and  C_12
REMARK    7  A    between atoms: C_12  and  C_13
REMARK    8  A    between atoms: N_15  and  C_16
REMARK    9  A    between atoms: C_17  and  C_26
REMARK                            x       y       z     vdW  Elec       q    Type
REMARK                         _______ _______ _______ _____ _____    ______ ____
ROOT
ATOM      1  C   UNL     1       1.710   5.784  -0.127  0.00  0.00    +0.328 C 
ENDROOT
BRANCH   1   2
ATOM      2  C   UNL     1       3.022   6.513  -0.262  0.00  0.00    +0.255 C 
ATOM      3  O   UNL     1       4.057   5.888  -0.352  0.00  0.00    -0.272 OA
ATOM      4  N   UNL     1       3.045   7.861  -0.284  0.00  0.00    -0.276 N 
ATOM      5  H   UNL     1       2.217   8.361  -0.212  0.00  0.00    +0.155 HD
BRANCH   4   6
ATOM      6  C   UNL     1       4.253   8.533  -0.408  0.00  0.00    +0.090 A 
ATOM      7  C   UNL     1       4.477   9.899  -0.455  0.00  0.00    +0.084 A 
ATOM      8  C   UNL     1       5.854  10.356  -0.584  0.00  0.00    -0.018 A 
ATOM      9  C   UNL     1       6.775   9.371  -0.663  0.00  0.00    -0.004 A 
ATOM     10  S   UNL     1       5.845   7.867  -0.551  0.00  0.00    -0.077 S 
ATOM     11  C   UNL     1       8.257   9.514  -0.824  0.00  0.00    +0.043 C 
ATOM     12  C   UNL     1       8.780  10.536   0.194  0.00  0.00    +0.005 C 
ATOM     13  C   UNL     1       8.724  11.922  -0.440  0.00  0.00    +0.001 C 
ATOM     14  C   UNL     1       7.533  12.017  -1.391  0.00  0.00    +0.005 C 
ATOM     15  C   UNL     1       6.226  11.832  -0.627  0.00  0.00    +0.037 C 
BRANCH   7  16
ATOM     16  C   UNL     1       3.393  10.830  -0.375  0.00  0.00    +0.102 C 
ATOM     17  N   UNL     1       2.532  11.569  -0.311  0.00  0.00    -0.191 NA
ENDBRANCH   7  16
ENDBRANCH   4   6
ENDBRANCH   1   2
BRANCH   1  18
ATOM     18  O   UNL     1       1.950   4.352  -0.129  0.00  0.00    -0.452 OA
BRANCH  18  19
ATOM     19  C   UNL     1       0.873   3.550  -0.015  0.00  0.00    +0.342 C 
ATOM     20  O   UNL     1      -0.237   4.035   0.084  0.00  0.00    -0.245 OA
BRANCH  19  26
ATOM     21  C   UNL     1      -0.085   1.247  -0.016  0.00  0.00    +0.041 A 
ATOM     22  C   UNL     1       0.087  -0.132  -0.011  0.00  0.00    +0.026 A 
ATOM     23  C   UNL     1       1.357  -0.670  -0.001  0.00  0.00    +0.034 A 
ATOM     24  C   UNL     1       2.470   0.157   0.005  0.00  0.00    +0.127 A 
ATOM     25  C   UNL     1       2.320   1.526   0.000  0.00  0.00    +0.049 A 
ATOM     26  C   UNL     1       1.040   2.087  -0.010  0.00  0.00    +0.082 A 
BRANCH  21  28
ATOM     27  C   UNL     1      -2.529   0.916  -0.167  0.00  0.00    +0.125 C 
ATOM     28  N   UNL     1      -1.362   1.791  -0.032  0.00  0.00    -0.346 N 
ATOM     29  H   UNL     1      -1.482   2.751   0.046  0.00  0.00    +0.146 HD
ENDBRANCH  21  28
BRANCH  24  30
ATOM     30  N   UNL     1       3.827  -0.435   0.015  0.00  0.00    +0.056 N 
ATOM     31  O   UNL     1       3.963  -1.646   0.019  0.00  0.00    -0.126 OA
ATOM     32  O   UNL     1       4.807   0.288   0.020  0.00  0.00    -0.126 OA
ENDBRANCH  24  30
ENDBRANCH  19  26
ENDBRANCH  18  19
ENDBRANCH   1  18
TORSDOF 8
