REMARK  Name = ZINC21034460
REMARK  9 active torsions:
REMARK  status: ('A' for Active; 'I' for Inactive)
REMARK    1  A    between atoms: C_1  and  C_2
REMARK    2  A    between atoms: C_2  and  C_3
REMARK    3  A    between atoms: C_2  and  C_4
REMARK    4  A    between atoms: C_2  and  C_5
REMARK    5  A    between atoms: C_8  and  S_11
REMARK    6  A    between atoms: S_11  and  N_14
REMARK    7  A    between atoms: N_14  and  C_15
REMARK    8  A    between atoms: C_24  and  O_25
REMARK    9  A    between atoms: N_26  and  C_27
REMARK                            x       y       z     vdW  Elec       q    Type
REMARK                         _______ _______ _______ _____ _____    ______ ____
ROOT
ATOM      1  C   UNL     1       3.697   3.117   0.271  0.00  0.00    +0.152 A 
ATOM      2  C   UNL     1       2.507   3.767  -0.002  0.00  0.00    +0.076 A 
ATOM      3  C   UNL     1       1.269   2.972   0.017  0.00  0.00    +0.042 A 
ATOM      4  C   UNL     1       0.032   3.562  -0.248  0.00  0.00    +0.013 A 
ATOM      5  C   UNL     1      -1.109   2.792  -0.222  0.00  0.00    +0.001 A 
ATOM      6  C   UNL     1      -1.032   1.435   0.059  0.00  0.00    +0.004 A 
ATOM      7  C   UNL     1       0.183   0.841   0.328  0.00  0.00    +0.047 A 
ATOM      8  C   UNL     1       1.347   1.600   0.307  0.00  0.00    +0.141 A 
ATOM      9  O   UNL     1       2.544   1.030   0.564  0.00  0.00    -0.424 OA
ATOM     10  C   UNL     1       3.684   1.738   0.552  0.00  0.00    +0.310 A 
ATOM     11  N   UNL     1       2.482   5.122  -0.282  0.00  0.00    -0.380 N 
ATOM     12  H   UNL     1       2.444   5.466  -1.326  0.00  0.00    +0.160 HD
ENDROOT
BRANCH  11  13
ATOM     13  C   UNL     1       2.512   5.916   0.954  0.00  0.00    +0.079 C 
ATOM     14  C   UNL     1       1.100   6.009   1.534  0.00  0.00    +0.024 C 
ATOM     15  C   UNL     1       1.132   6.836   2.821  0.00  0.00    +0.002 C 
ATOM     16  C   UNL     1       1.650   8.242   2.511  0.00  0.00    +0.000 C 
ATOM     17  C   UNL     1       3.062   8.149   1.930  0.00  0.00    +0.002 C 
ATOM     18  C   UNL     1       3.030   7.322   0.644  0.00  0.00    +0.024 C 
ENDBRANCH  11  13
BRANCH   1  19
ATOM     19  N   UNL     1       4.911   3.828   0.267  0.00  0.00    -0.208 N 
ATOM     20  H   UNL     1       5.055   4.673   0.956  0.00  0.00    +0.174 HD
BRANCH  19  21
ATOM     21  S   UNL     1       6.122   3.393  -0.775  0.00  0.00    +0.073 S 
ATOM     22  O   UNL     1       7.170   4.336  -0.596  0.00  0.00    -0.150 OA
ATOM     23  O   UNL     1       6.319   1.996  -0.608  0.00  0.00    -0.150 OA
BRANCH  21  27
ATOM     24  C   UNL     1       4.551   3.985  -4.979  0.00  0.00    -0.042 A 
ATOM     25  C   UNL     1       5.283   4.986  -4.367  0.00  0.00    +0.006 A 
ATOM     26  C   UNL     1       5.763   4.805  -3.083  0.00  0.00    +0.029 A 
ATOM     27  C   UNL     1       5.511   3.623  -2.411  0.00  0.00    +0.109 A 
ATOM     28  C   UNL     1       4.784   2.621  -3.025  0.00  0.00    +0.029 A 
ATOM     29  C   UNL     1       4.300   2.803  -4.307  0.00  0.00    +0.006 A 
BRANCH  24  31
ATOM     30  C   UNL     1       5.200   4.420  -7.332  0.00  0.00    +0.015 C 
ATOM     31  C   UNL     1       4.028   4.182  -6.378  0.00  0.00    -0.013 C 
ATOM     32  C   UNL     1       3.259   2.934  -6.816  0.00  0.00    +0.015 C 
ATOM     33  C   UNL     1       3.094   5.393  -6.407  0.00  0.00    +0.015 C 
ENDBRANCH  24  31
ENDBRANCH  21  27
ENDBRANCH  19  21
ENDBRANCH   1  19
BRANCH  10  34
ATOM     34  O   UNL     1       4.737   1.172   0.791  0.00  0.00    -0.479 OA
ATOM     35  H   UNL     1       4.743   0.094   1.012  0.00  0.00    +0.295 HD
ENDBRANCH  10  34
TORSDOF 6
