REMARK  Name = ZINC38678385
REMARK  8 active torsions:
REMARK  status: ('A' for Active; 'I' for Inactive)
REMARK    1  A    between atoms: C_4  and  C_7
REMARK    2  A    between atoms: C_7  and  C_8
REMARK    3  A    between atoms: C_7  and  C_14
REMARK    4  A    between atoms: C_14  and  O_16
REMARK    5  A    between atoms: O_16  and  C_17
REMARK    6  A    between atoms: C_24  and  N_37
REMARK    7  A    between atoms: C_25  and  C_35
REMARK    8  A    between atoms: C_26  and  C_28
REMARK                            x       y       z     vdW  Elec       q    Type
REMARK                         _______ _______ _______ _____ _____    ______ ____
ROOT
ATOM      1  C   UNL     1       4.498  -3.443  -2.453  0.00  0.00    +0.135 A 
ATOM      2  C   UNL     1       3.311  -3.433  -3.171  0.00  0.00    +0.047 A 
ATOM      3  C   UNL     1       3.151  -4.276  -4.253  0.00  0.00    +0.012 A 
ATOM      4  C   UNL     1       4.171  -5.133  -4.625  0.00  0.00    +0.008 A 
ATOM      5  C   UNL     1       5.359  -5.148  -3.911  0.00  0.00    +0.138 A 
ATOM      6  C   UNL     1       5.524  -4.296  -2.826  0.00  0.00    +0.093 A 
ATOM      7  O   UNL     1       6.370  -5.981  -4.260  0.00  0.00    -0.441 OA
ATOM      8  C   UNL     1       6.120  -7.053  -5.031  0.00  0.00    +0.199 C 
ATOM      9  C   UNL     1       5.002  -7.145  -5.789  0.00  0.00    +0.098 C 
ATOM     10  C   UNL     1       3.978  -6.045  -5.808  0.00  0.00    +0.098 C 
ENDROOT
BRANCH  10  11
ATOM     11  C   UNL     1       4.122  -5.250  -7.080  0.00  0.00    -0.032 A 
ATOM     12  C   UNL     1       5.309  -4.597  -7.356  0.00  0.00    +0.005 A 
ATOM     13  C   UNL     1       5.442  -3.868  -8.522  0.00  0.00    +0.003 A 
ATOM     14  C   UNL     1       4.389  -3.790  -9.414  0.00  0.00    +0.038 A 
ATOM     15  C   UNL     1       3.200  -4.444  -9.139  0.00  0.00    +0.124 A 
ATOM     16  C   UNL     1       3.070  -5.179  -7.972  0.00  0.00    +0.043 A 
ATOM     17  F   UNL     1       2.170  -4.368 -10.009  0.00  0.00    -0.205 F 
ENDBRANCH  10  11
BRANCH   8  18
ATOM     18  N   UNL     1       7.025  -8.085  -5.051  0.00  0.00    -0.328 N 
ATOM     19  H   UNL     1       7.831  -8.034  -4.513  0.00  0.00    +0.145 HD
ATOM     20  H   UNL     1       6.859  -8.865  -5.602  0.00  0.00    +0.145 HD
ENDBRANCH   8  18
BRANCH   9  21
ATOM     21  C   UNL     1       4.792  -8.313  -6.589  0.00  0.00    +0.101 C 
ATOM     22  N   UNL     1       4.625  -9.240  -7.224  0.00  0.00    -0.191 NA
ENDBRANCH   9  21
BRANCH   1  23
ATOM     23  O   UNL     1       4.657  -2.613  -1.388  0.00  0.00    -0.425 OA
BRANCH  23  24
ATOM     24  C   UNL     1       4.034  -2.933  -0.242  0.00  0.00    +0.324 C 
ATOM     25  O   UNL     1       3.372  -3.941  -0.175  0.00  0.00    -0.249 OA
BRANCH  24  26
ATOM     26  C   UNL     1       4.161  -2.033   0.960  0.00  0.00    +0.158 C 
BRANCH  26  30
ATOM     27  C   UNL     1       1.927  -3.678   4.209  0.00  0.00    +0.000 A 
ATOM     28  C   UNL     1       1.668  -2.392   3.772  0.00  0.00    +0.000 A 
ATOM     29  C   UNL     1       2.391  -1.859   2.721  0.00  0.00    +0.005 A 
ATOM     30  C   UNL     1       3.373  -2.613   2.107  0.00  0.00    -0.029 A 
ATOM     31  C   UNL     1       3.633  -3.898   2.544  0.00  0.00    +0.005 A 
ATOM     32  C   UNL     1       2.909  -4.431   3.594  0.00  0.00    +0.000 A 
ENDBRANCH  26  30
BRANCH  26  33
ATOM     33  C   UNL     1       5.612  -1.921   1.353  0.00  0.00    -0.029 A 
ATOM     34  C   UNL     1       6.380  -3.062   1.492  0.00  0.00    +0.005 A 
ATOM     35  C   UNL     1       7.710  -2.959   1.852  0.00  0.00    +0.000 A 
ATOM     36  C   UNL     1       8.273  -1.715   2.073  0.00  0.00    +0.000 A 
ATOM     37  C   UNL     1       7.505  -0.575   1.933  0.00  0.00    +0.000 A 
ATOM     38  C   UNL     1       6.175  -0.677   1.569  0.00  0.00    +0.005 A 
ENDBRANCH  26  33
ENDBRANCH  24  26
ENDBRANCH  23  24
ENDBRANCH   1  23
TORSDOF 8
