REMARK  Name = ZINC32540651
REMARK  11 active torsions:
REMARK  status: ('A' for Active; 'I' for Inactive)
REMARK    1  A    between atoms: C_1  and  C_2
REMARK    2  A    between atoms: C_2  and  C_3
REMARK    3  A    between atoms: C_2  and  N_4
REMARK    4  A    between atoms: C_6  and  N_25
REMARK    5  A    between atoms: C_9  and  C_11
REMARK    6  A    between atoms: N_13  and  C_14
REMARK    7  A    between atoms: C_14  and  C_15
REMARK    8  A    between atoms: C_15  and  C_16
REMARK    9  A    between atoms: N_25  and  C_26
REMARK   10  A    between atoms: C_26  and  C_27
REMARK   11  A    between atoms: C_32  and  C_33
REMARK                            x       y       z     vdW  Elec       q    Type
REMARK                         _______ _______ _______ _____ _____    ______ ____
ROOT
ATOM      1  N   UNL     1       0.690  -0.478  -1.207  0.00  0.00    +0.390 N 
ATOM      2  C   UNL     1       0.731  -1.956  -1.209  0.00  0.00    -0.059 C 
ATOM      3  C   UNL     1       2.101  -2.313  -1.836  0.00  0.00    +0.036 C 
ATOM      4  C   UNL     1       3.010  -1.196  -1.259  0.00  0.00    +0.010 C 
ATOM      5  C   UNL     1       2.074   0.030  -1.221  0.00  0.00    +0.021 C 
ATOM      6  H   UNL     1       0.200  -0.152  -2.026  0.00  0.00    -0.080 HD
ENDROOT
BRANCH   5   7
ATOM      7  C   UNL     1       2.294   0.881  -2.445  0.00  0.00    +0.200 C 
ATOM      8  O   UNL     1       1.390   1.054  -3.235  0.00  0.00    -0.278 OA
ATOM      9  N   UNL     1       3.496   1.451  -2.662  0.00  0.00    -0.316 N 
ATOM     10  H   UNL     1       4.219   1.313  -2.030  0.00  0.00    +0.149 HD
BRANCH   9  11
ATOM     11  C   UNL     1       3.711   2.279  -3.852  0.00  0.00    +0.109 C 
BRANCH  11  12
ATOM     12  C   UNL     1       5.149   2.800  -3.858  0.00  0.00    +0.054 C 
BRANCH  12  13
ATOM     13  C   UNL     1       5.370   3.652  -5.082  0.00  0.00    -0.042 A 
ATOM     14  C   UNL     1       5.814   3.071  -6.255  0.00  0.00    +0.007 A 
ATOM     15  C   UNL     1       6.018   3.847  -7.380  0.00  0.00    +0.050 A 
ATOM     16  C   UNL     1       5.777   5.211  -7.335  0.00  0.00    +0.166 A 
ATOM     17  C   UNL     1       5.329   5.796  -6.153  0.00  0.00    +0.166 A 
ATOM     18  C   UNL     1       5.121   5.011  -5.030  0.00  0.00    +0.053 A 
ATOM     19  O   UNL     1       5.167   7.135  -6.363  0.00  0.00    -0.453 OA
ATOM     20  C   UNL     1       5.909   7.428  -7.562  0.00  0.00    +0.466 C 
ATOM     21  O   UNL     1       5.896   6.183  -8.285  0.00  0.00    -0.453 OA
ENDBRANCH  12  13
ENDBRANCH  11  12
ENDBRANCH   9  11
ENDBRANCH   5   7
BRANCH   1  23
ATOM     22  C   UNL     1      -0.019   1.526   0.010  0.00  0.00    -0.013 C 
ATOM     23  C   UNL     1       0.002  -0.004   0.002  0.00  0.00    -0.074 C 
ATOM     24  C   UNL     1      -1.433  -0.534   0.013  0.00  0.00    -0.013 C 
ENDBRANCH   1  23
BRANCH   3  25
ATOM     25  N   UNL     1       2.552  -3.639  -1.395  0.00  0.00    -0.311 NA
ATOM     26  H   UNL     1       2.975  -3.592  -0.480  0.00  0.00    +0.122 HD
BRANCH  25  27
ATOM     27  C   UNL     1       3.476  -4.233  -2.372  0.00  0.00    +0.117 C 
BRANCH  27  28
ATOM     28  C   UNL     1       3.916  -5.590  -1.886  0.00  0.00    -0.022 A 
ATOM     29  C   UNL     1       5.144  -5.739  -1.268  0.00  0.00    +0.005 A 
ATOM     30  C   UNL     1       5.547  -6.983  -0.823  0.00  0.00    +0.000 A 
ATOM     31  C   UNL     1       4.723  -8.080  -0.996  0.00  0.00    +0.001 A 
ATOM     32  C   UNL     1       3.495  -7.931  -1.612  0.00  0.00    +0.013 A 
ATOM     33  C   UNL     1       3.089  -6.685  -2.054  0.00  0.00    +0.059 A 
BRANCH  33  34
ATOM     34  C   UNL     1       1.748  -6.522  -2.722  0.00  0.00    +0.418 C 
ATOM     35  F   UNL     1       1.100  -7.761  -2.775  0.00  0.00    -0.166 F 
ATOM     36  F   UNL     1       0.969  -5.620  -1.989  0.00  0.00    -0.166 F 
ATOM     37  F   UNL     1       1.930  -6.034  -4.020  0.00  0.00    -0.166 F 
ENDBRANCH  33  34
ENDBRANCH  27  28
ENDBRANCH  25  27
ENDBRANCH   3  25
TORSDOF 9
