REMARK  Name = ZINC45245270
REMARK  3 active torsions:
REMARK  status: ('A' for Active; 'I' for Inactive)
REMARK    1  A    between atoms: C_3  and  C_27
REMARK    2  A    between atoms: C_5  and  C_7
REMARK    3  A    between atoms: C_7  and  C_17
REMARK                            x       y       z     vdW  Elec       q    Type
REMARK                         _______ _______ _______ _____ _____    ______ ____
ROOT
ATOM      1  C   UNL     1       1.219  -2.192  -0.022  0.00  0.00    +0.168 C 
ATOM      2  C   UNL     1       0.375  -2.984   0.941  0.00  0.00    +0.114 C 
ATOM      3  N   UNL     1      -0.899  -3.135   0.998  0.00  0.00    -0.373 N 
ATOM      4  C   UNL     1      -1.477  -3.957   2.069  0.00  0.00    +0.115 C 
ATOM      5  C   UNL     1      -0.509  -5.073   2.465  0.00  0.00    +0.040 C 
ATOM      6  C   UNL     1       0.834  -4.466   2.896  0.00  0.00    +0.116 C 
ATOM      7  N   UNL     1       1.274  -3.572   1.813  0.00  0.00    -0.261 N 
ATOM      8  C   UNL     1       2.547  -3.194   1.490  0.00  0.00    +0.182 C 
ATOM      9  N   UNL     1       2.596  -2.410   0.455  0.00  0.00    -0.232 NA
ATOM     10  N   UNL     1       3.659  -3.601   2.187  0.00  0.00    -0.331 N 
ATOM     11  H   UNL     1       3.563  -4.188   2.954  0.00  0.00    +0.145 HD
ATOM     12  H   UNL     1       4.540  -3.302   1.913  0.00  0.00    +0.145 HD
ATOM     13  H   UNL     1      -1.473  -2.711   0.341  0.00  0.00    +0.161 HD
ENDROOT
BRANCH   1  14
ATOM     14  C   UNL     1       1.056  -2.712  -1.426  0.00  0.00    -0.005 A 
ATOM     15  C   UNL     1      -0.209  -2.858  -1.966  0.00  0.00    +0.010 A 
ATOM     16  C   UNL     1      -0.363  -3.337  -3.253  0.00  0.00    +0.050 A 
ATOM     17  C   UNL     1       0.751  -3.672  -4.007  0.00  0.00    +0.162 A 
ATOM     18  C   UNL     1       2.023  -3.523  -3.466  0.00  0.00    +0.162 A 
ATOM     19  C   UNL     1       2.170  -3.038  -2.175  0.00  0.00    +0.056 A 
ATOM     20  O   UNL     1       3.130  -3.839  -4.192  0.00  0.00    -0.485 OA
ATOM     21  C   UNL     1       2.930  -4.665  -5.344  0.00  0.00    +0.270 C 
ATOM     22  C   UNL     1       1.731  -4.115  -6.128  0.00  0.00    +0.270 C 
ATOM     23  O   UNL     1       0.584  -4.146  -5.272  0.00  0.00    -0.485 OA
ENDBRANCH   1  14
BRANCH   1  28
ATOM     24  C   UNL     1       1.529   1.556   0.343  0.00  0.00    +0.001 A 
ATOM     25  C   UNL     1       0.222   1.966   0.167  0.00  0.00    +0.008 A 
ATOM     26  C   UNL     1      -0.775   1.023  -0.073  0.00  0.00    -0.013 A 
ATOM     27  C   UNL     1      -0.447  -0.330  -0.134  0.00  0.00    +0.015 A 
ATOM     28  C   UNL     1       0.863  -0.729   0.043  0.00  0.00    -0.008 A 
ATOM     29  C   UNL     1       1.849   0.212   0.281  0.00  0.00    +0.007 A 
BRANCH  26  30
ATOM     30  C   UNL     1      -2.180   1.458  -0.263  0.00  0.00    +0.036 A 
ATOM     31  C   UNL     1      -2.783   2.330   0.646  0.00  0.00    +0.014 A 
ATOM     32  C   UNL     1      -4.097   2.706   0.425  0.00  0.00    +0.020 A 
ATOM     33  C   UNL     1      -4.767   2.211  -0.678  0.00  0.00    +0.114 A 
ATOM     34  N   UNL     1      -4.174   1.387  -1.521  0.00  0.00    -0.227 NA
ATOM     35  C   UNL     1      -2.922   1.006  -1.357  0.00  0.00    +0.221 A 
ATOM     36  F   UNL     1      -2.354   0.166  -2.250  0.00  0.00    -0.183 F 
ENDBRANCH  26  30
ENDBRANCH   1  28
TORSDOF 3
