REMARK  Name = ZINC33790555
REMARK  11 active torsions:
REMARK  status: ('A' for Active; 'I' for Inactive)
REMARK    1  A    between atoms: C_1  and  C_2
REMARK    2  A    between atoms: C_4  and  C_33
REMARK    3  A    between atoms: N_5  and  C_7
REMARK    4  A    between atoms: C_7  and  C_8
REMARK    5  A    between atoms: C_10  and  C_16
REMARK    6  A    between atoms: C_13  and  O_14
REMARK    7  A    between atoms: O_14  and  C_15
REMARK    8  A    between atoms: C_18  and  C_31
REMARK    9  A    between atoms: C_19  and  N_30
REMARK   10  A    between atoms: C_26  and  C_28
REMARK   11  A    between atoms: C_26  and  C_29
REMARK                            x       y       z     vdW  Elec       q    Type
REMARK                         _______ _______ _______ _____ _____    ______ ____
ROOT
ATOM      1  C   UNL     1      -1.298   6.926   0.792  0.00  0.00    +0.101 C 
ATOM      2  C   UNL     1       0.061   7.557   0.682  0.00  0.00    +0.098 C 
ATOM      3  C   UNL     1       0.516   8.002  -0.515  0.00  0.00    +0.198 C 
ATOM      4  O   UNL     1      -0.224   7.890  -1.629  0.00  0.00    -0.445 OA
ATOM      5  C   UNL     1      -1.559   7.750  -1.534  0.00  0.00    +0.115 C 
ATOM      6  C   UNL     1      -2.134   7.288  -0.412  0.00  0.00    +0.046 C 
ATOM      7  C   UNL     1      -3.530   7.125  -0.322  0.00  0.00    +0.164 C 
ATOM      8  O   UNL     1      -4.018   6.718   0.713  0.00  0.00    -0.292 OA
ATOM      9  C   UNL     1      -4.428   7.447  -1.486  0.00  0.00    +0.086 C 
ATOM     10  C   UNL     1      -3.643   7.253  -2.787  0.00  0.00    -0.021 C 
ATOM     11  C   UNL     1      -2.399   8.131  -2.731  0.00  0.00    +0.081 C 
ATOM     12  C   UNL     1      -3.236   5.785  -2.928  0.00  0.00    +0.012 C 
ATOM     13  C   UNL     1      -4.512   7.662  -3.978  0.00  0.00    +0.012 C 
ENDROOT
BRANCH   1  16
ATOM     14  C   UNL     1      -1.478   3.368   2.040  0.00  0.00    +0.016 A 
ATOM     15  C   UNL     1      -1.613   4.741   1.971  0.00  0.00    +0.013 A 
ATOM     16  C   UNL     1      -1.149   5.428   0.865  0.00  0.00    -0.034 A 
ATOM     17  C   UNL     1      -0.548   4.743  -0.175  0.00  0.00    +0.008 A 
ATOM     18  C   UNL     1      -0.405   3.370  -0.108  0.00  0.00    +0.046 A 
ATOM     19  C   UNL     1      -0.875   2.678   0.999  0.00  0.00    +0.125 A 
BRANCH  19  20
ATOM     20  O   UNL     1      -0.741   1.327   1.064  0.00  0.00    -0.495 OA
ATOM     21  C   UNL     1      -0.110   0.684  -0.045  0.00  0.00    +0.277 C 
ENDBRANCH  19  20
BRANCH  14  22
ATOM     22  C   UNL     1      -1.984   2.620   3.247  0.00  0.00    +0.182 C 
BRANCH  22  27
ATOM     23  C   UNL     1      -5.766  -0.280   1.671  0.00  0.00    +0.068 C 
ATOM     24  C   UNL     1      -4.979   0.848   2.288  0.00  0.00    +0.074 A 
ATOM     25  C   UNL     1      -5.517   1.979   2.911  0.00  0.00    +0.061 A 
ATOM     26  C   UNL     1      -4.488   2.752   3.330  0.00  0.00    +0.051 A 
ATOM     27  N   UNL     1      -3.340   2.131   2.985  0.00  0.00    -0.263 N 
ATOM     28  N   UNL     1      -3.675   0.941   2.327  0.00  0.00    -0.175 NA
ATOM     29  C   UNL     1      -4.604   4.069   4.054  0.00  0.00    +0.066 C 
ATOM     30 BR   UNL     1      -7.356   2.361   3.128  0.00  0.00    -0.047 Br
ENDBRANCH  22  27
ENDBRANCH  14  22
ENDBRANCH   1  16
BRANCH   3  31
ATOM     31  N   UNL     1       1.760   8.578  -0.589  0.00  0.00    -0.328 N 
ATOM     32  H   UNL     1       2.140   8.943  -1.555  0.00  0.00    +0.145 HD
ATOM     33  H   UNL     1       2.376   8.676   0.317  0.00  0.00    +0.145 HD
ENDBRANCH   3  31
BRANCH   2  34
ATOM     34  C   UNL     1       0.881   7.690   1.849  0.00  0.00    +0.101 C 
ATOM     35  N   UNL     1       1.531   7.795   2.774  0.00  0.00    -0.191 NA
ENDBRANCH   2  34
TORSDOF 6
