REMARK  Name = ZINC54967913
REMARK  4 active torsions:
REMARK  status: ('A' for Active; 'I' for Inactive)
REMARK    1  A    between atoms: C_1  and  C_2
REMARK    2  A    between atoms: C_2  and  C_3
REMARK    3  A    between atoms: C_4  and  C_15
REMARK    4  A    between atoms: C_11  and  C_14
REMARK                            x       y       z     vdW  Elec       q    Type
REMARK                         _______ _______ _______ _____ _____    ______ ____
ROOT
ATOM      1  C   UNL     1      -1.412  -0.526   0.013  0.00  0.00    +0.064 A 
ATOM      2  C   UNL     1      -2.091  -0.781   1.200  0.00  0.00    +0.125 A 
ATOM      3  S   UNL     1      -3.658  -1.357   0.565  0.00  0.00    -0.045 S 
ATOM      4  C   UNL     1      -3.308  -1.221  -1.076  0.00  0.00    +0.162 A 
ATOM      5  N   UNL     1      -2.069  -0.758  -1.093  0.00  0.00    -0.229 NA
ATOM      6  N   UNL     1      -4.122  -1.517  -2.147  0.00  0.00    -0.310 N 
ATOM      7  C   UNL     1      -3.640  -1.341  -3.524  0.00  0.00    +0.107 C 
ATOM      8  C   UNL     1      -3.836  -2.654  -4.287  0.00  0.00    +0.022 C 
ATOM      9  C   UNL     1      -5.301  -3.085  -4.184  0.00  0.00    -0.011 C 
ATOM     10  C   UNL     1      -5.663  -3.321  -2.716  0.00  0.00    +0.022 C 
ATOM     11  C   UNL     1      -5.486  -2.020  -1.935  0.00  0.00    +0.107 C 
ATOM     12  C   UNL     1      -5.509  -4.379  -4.974  0.00  0.00    +0.007 C 
ENDROOT
BRANCH   2  13
ATOM     13  C   UNL     1      -1.660  -0.628   2.537  0.00  0.00    +0.395 C 
ATOM     14  O   UNL     1      -0.532  -0.213   2.773  0.00  0.00    -0.240 OA
ATOM     15  O   UNL     1      -2.416  -0.910   3.460  0.00  0.00    -0.240 OA
ENDBRANCH   2  13
BRANCH   1  17
ATOM     16  C   UNL     1      -0.019   1.526   0.010  0.00  0.00    +0.010 C 
ATOM     17  C   UNL     1       0.002  -0.004   0.002  0.00  0.00    +0.053 C 
ENDBRANCH   1  17
TORSDOF 2
