REMARK  Name = ZINC45724954
REMARK  9 active torsions:
REMARK  status: ('A' for Active; 'I' for Inactive)
REMARK    1  A    between atoms: C_1  and  C_2
REMARK    2  A    between atoms: C_5  and  O_25
REMARK    3  A    between atoms: C_6  and  C_8
REMARK    4  A    between atoms: C_8  and  C_10
REMARK    5  A    between atoms: C_8  and  N_11
REMARK    6  A    between atoms: N_14  and  C_15
REMARK    7  A    between atoms: C_20  and  C_21
REMARK    8  A    between atoms: C_21  and  C_22
REMARK    9  A    between atoms: O_25  and  C_26
REMARK                            x       y       z     vdW  Elec       q    Type
REMARK                         _______ _______ _______ _____ _____    ______ ____
ROOT
ATOM      1  N   UNL     1      -0.552  -2.013   3.540  0.00  0.00    -0.292 N 
ATOM      2  C   UNL     1      -1.094  -2.594   4.629  0.00  0.00    +0.304 C 
ATOM      3  O   UNL     1      -1.097  -3.805   4.733  0.00  0.00    -0.252 OA
ATOM      4  N   UNL     1      -1.633  -1.832   5.601  0.00  0.00    -0.269 N 
ATOM      5  H   UNL     1      -0.550  -1.046   3.457  0.00  0.00    +0.151 HD
ATOM      6  H   UNL     1      -1.559  -0.866   5.558  0.00  0.00    +0.156 HD
ENDROOT
BRANCH   4   7
ATOM      7  C   UNL     1      -2.300  -2.436   6.674  0.00  0.00    +0.038 A 
ATOM      8  C   UNL     1      -2.861  -3.697   6.523  0.00  0.00    +0.023 A 
ATOM      9  C   UNL     1      -3.519  -4.290   7.583  0.00  0.00    +0.002 A 
ATOM     10  C   UNL     1      -3.619  -3.628   8.794  0.00  0.00    +0.000 A 
ATOM     11  C   UNL     1      -3.061  -2.372   8.947  0.00  0.00    +0.006 A 
ATOM     12  C   UNL     1      -2.397  -1.777   7.892  0.00  0.00    -0.017 A 
BRANCH  12  13
ATOM     13  C   UNL     1      -1.785  -0.410   8.061  0.00  0.00    +0.132 C 
BRANCH  13  14
ATOM     14  C   UNL     1      -2.755   0.638   7.581  0.00  0.00    +0.215 C 
ATOM     15  O   UNL     1      -3.837   0.308   7.145  0.00  0.00    -0.276 OA
ATOM     16  N   UNL     1      -2.420   1.942   7.637  0.00  0.00    -0.329 N 
ATOM     17  H   UNL     1      -1.554   2.206   7.987  0.00  0.00    +0.145 HD
ATOM     18  H   UNL     1      -3.045   2.617   7.328  0.00  0.00    +0.145 HD
ENDBRANCH  13  14
ENDBRANCH  12  13
ENDBRANCH   4   7
BRANCH   1  19
ATOM     19  C   UNL     1       0.034  -2.841   2.483  0.00  0.00    +0.105 C 
ATOM     20  C   UNL     1       1.482  -3.178   2.843  0.00  0.00    +0.033 C 
BRANCH  19  26
ATOM     21  C   UNL     1      -0.079   1.496  -0.011  0.00  0.00    +0.044 C 
ATOM     22  C   UNL     1      -0.050  -0.011  -0.015  0.00  0.00    -0.050 A 
ATOM     23  C   UNL     1      -0.052  -0.698  -1.216  0.00  0.00    +0.007 A 
ATOM     24  C   UNL     1      -0.027  -2.079  -1.222  0.00  0.00    +0.046 A 
ATOM     25  C   UNL     1       0.001  -2.777  -0.023  0.00  0.00    +0.125 A 
ATOM     26  C   UNL     1       0.004  -2.086   1.179  0.00  0.00    +0.014 A 
ATOM     27  C   UNL     1      -0.017  -0.704   1.181  0.00  0.00    +0.012 A 
BRANCH  25  28
ATOM     28  O   UNL     1       0.026  -4.136  -0.027  0.00  0.00    -0.495 OA
ATOM     29  C   UNL     1       0.021  -4.781  -1.302  0.00  0.00    +0.277 C 
ENDBRANCH  25  28
ENDBRANCH  19  26
ENDBRANCH   1  19
TORSDOF 6
