REMARK  Name = ZINC51039795
REMARK  3 active torsions:
REMARK  status: ('A' for Active; 'I' for Inactive)
REMARK    1  A    between atoms: C_1  and  C_2
REMARK    2  A    between atoms: C_7  and  N_10
REMARK    3  A    between atoms: N_10  and  C_11
REMARK                            x       y       z     vdW  Elec       q    Type
REMARK                         _______ _______ _______ _____ _____    ______ ____
ROOT
ATOM      1  N   UNL     1      -0.612  -2.548   1.244  0.00  0.00    -0.314 N 
ATOM      2  C   UNL     1      -1.790  -1.678   1.273  0.00  0.00    +0.131 C 
ATOM      3  C   UNL     1      -0.767  -3.924   1.218  0.00  0.00    +0.145 A 
ATOM      4  C   UNL     1       0.329  -4.771   1.410  0.00  0.00    +0.178 A 
ATOM      5  N   UNL     1       0.143  -6.076   1.379  0.00  0.00    -0.151 NA
ATOM      6  N   UNL     1      -1.029  -6.564   1.174  0.00  0.00    -0.117 NA
ATOM      7  C   UNL     1      -2.080  -5.786   0.989  0.00  0.00    +0.245 A 
ATOM      8  N   UNL     1      -1.964  -4.470   1.014  0.00  0.00    -0.200 NA
ATOM      9 CL   UNL     1      -3.638  -6.502   0.716  0.00  0.00    -0.039 Cl
ENDROOT
BRANCH   1  15
ATOM     10  C   UNL     1      -0.252   1.562   0.041  0.00  0.00    +0.007 C 
ATOM     11  C   UNL     1      -0.142   0.036   0.022  0.00  0.00    -0.012 C 
ATOM     12  C   UNL     1       0.605  -0.406  -1.238  0.00  0.00    +0.003 C 
ATOM     13  C   UNL     1       0.715  -1.932  -1.257  0.00  0.00    +0.002 C 
ATOM     14  C   UNL     1       1.479  -2.404  -0.018  0.00  0.00    +0.022 C 
ATOM     15  C   UNL     1       0.731  -1.962   1.242  0.00  0.00    +0.075 C 
ATOM     16  C   UNL     1       0.622  -0.436   1.260  0.00  0.00    +0.025 C 
ENDBRANCH   1  15
TORSDOF 1
