REMARK  Name = ZINC47133528
REMARK  9 active torsions:
REMARK  status: ('A' for Active; 'I' for Inactive)
REMARK    1  A    between atoms: C_1  and  C_2
REMARK    2  A    between atoms: C_2  and  C_3
REMARK    3  A    between atoms: C_6  and  C_28
REMARK    4  A    between atoms: C_7  and  C_9
REMARK    5  A    between atoms: C_15  and  C_17
REMARK    6  A    between atoms: C_19  and  C_24
REMARK    7  A    between atoms: C_21  and  C_22
REMARK    8  A    between atoms: C_21  and  C_23
REMARK    9  A    between atoms: C_28  and  C_29
REMARK                            x       y       z     vdW  Elec       q    Type
REMARK                         _______ _______ _______ _____ _____    ______ ____
ROOT
ATOM      1  C   UNL     1      -4.086  -1.499  -2.443  0.00  0.00    +0.156 A 
ATOM      2  C   UNL     1      -3.574  -1.205  -3.786  0.00  0.00    +0.197 A 
ATOM      3  N   UNL     1      -4.472  -1.572  -4.657  0.00  0.00    -0.033 NA
ATOM      4  O   UNL     1      -5.576  -2.105  -3.948  0.00  0.00    -0.240 OA
ATOM      5  N   UNL     1      -5.271  -2.037  -2.566  0.00  0.00    -0.047 NA
ATOM      6  N   UNL     1      -2.338  -0.631  -4.080  0.00  0.00    -0.266 N 
ATOM      7  C   UNL     1      -2.028  -0.316  -5.354  0.00  0.00    +0.223 C 
ATOM      8  O   UNL     1      -2.823  -0.531  -6.243  0.00  0.00    -0.275 OA
ATOM      9  H   UNL     1      -1.702  -0.459  -3.369  0.00  0.00    +0.156 HD
ENDROOT
BRANCH   1  14
ATOM     10  C   UNL     1      -2.143   0.247   0.260  0.00  0.00    -0.047 A 
ATOM     11  C   UNL     1      -2.057  -0.748   1.217  0.00  0.00    +0.004 A 
ATOM     12  C   UNL     1      -2.630  -1.986   0.988  0.00  0.00    +0.004 A 
ATOM     13  C   UNL     1      -3.290  -2.236  -0.198  0.00  0.00    -0.038 A 
ATOM     14  C   UNL     1      -3.379  -1.237  -1.166  0.00  0.00    +0.011 A 
ATOM     15  C   UNL     1      -2.805   0.011  -0.928  0.00  0.00    +0.014 A 
BRANCH  10  17
ATOM     16  C   UNL     1      -2.536   2.508   1.199  0.00  0.00    +0.009 C 
ATOM     17  C   UNL     1      -1.516   1.593   0.516  0.00  0.00    +0.032 C 
ENDBRANCH  10  17
BRANCH  13  18
ATOM     18  C   UNL     1      -3.912  -3.585  -0.447  0.00  0.00    +0.032 C 
ATOM     19  C   UNL     1      -2.934  -4.462  -1.231  0.00  0.00    +0.009 C 
ENDBRANCH  13  18
ENDBRANCH   1  14
BRANCH   7  20
ATOM     20  C   UNL     1      -0.692   0.304  -5.672  0.00  0.00    +0.089 C 
ATOM     21  C   UNL     1       0.309  -0.541  -6.462  0.00  0.00    +0.033 C 
ATOM     22  C   UNL     1      -0.398   0.638  -7.136  0.00  0.00    -0.016 C 
ATOM     23  C   UNL     1      -1.483   0.315  -8.165  0.00  0.00    +0.012 C 
ATOM     24  C   UNL     1       0.432   1.890  -7.422  0.00  0.00    +0.012 C 
BRANCH  21  25
ATOM     25  C   UNL     1       1.771  -0.378  -6.131  0.00  0.00    +0.010 C 
ATOM     26  C   UNL     1       2.657  -1.194  -6.654  0.00  0.00    +0.103 C 
ATOM     27 CL   UNL     1       2.145  -2.461  -7.726  0.00  0.00    -0.071 Cl
ATOM     28 CL   UNL     1       4.340  -1.008  -6.273  0.00  0.00    -0.071 Cl
ENDBRANCH  21  25
ENDBRANCH   7  20
TORSDOF 5
