REMARK  Name = ZINC03431997
REMARK  13 active torsions:
REMARK  status: ('A' for Active; 'I' for Inactive)
REMARK    1  A    between atoms: C_1  and  C_2
REMARK    2  A    between atoms: C_2  and  C_3
REMARK    3  A    between atoms: C_2  and  C_4
REMARK    4  A    between atoms: C_4  and  C_6
REMARK    5  A    between atoms: C_4  and  S_12
REMARK    6  A    between atoms: S_12  and  C_13
REMARK    7  A    between atoms: C_16  and  C_26
REMARK    8  A    between atoms: N_17  and  C_18
REMARK    9  A    between atoms: C_23  and  O_24
REMARK   10  A    between atoms: O_24  and  C_25
REMARK   11  A    between atoms: C_26  and  O_27
REMARK   12  A    between atoms: O_27  and  C_28
REMARK   13  A    between atoms: C_33  and  C_34
REMARK                            x       y       z     vdW  Elec       q    Type
REMARK                         _______ _______ _______ _____ _____    ______ ____
ROOT
ATOM      1  C   UNL     1      -2.100   1.924  -1.064  0.00  0.00    +0.197 A 
ATOM      2  N   UNL     1      -1.506   2.527  -0.061  0.00  0.00    -0.122 NA
ATOM      3  N   UNL     1      -1.563   3.801  -0.222  0.00  0.00    -0.130 NA
ATOM      4  C   UNL     1      -2.192   4.087  -1.327  0.00  0.00    +0.176 A 
ATOM      5  N   UNL     1      -2.553   2.900  -1.908  0.00  0.00    -0.268 N 
ENDROOT
BRANCH   5   6
ATOM      6  C   UNL     1      -3.245   2.724  -3.116  0.00  0.00    +0.092 A 
ATOM      7  C   UNL     1      -4.631   2.671  -3.122  0.00  0.00    +0.030 A 
ATOM      8  C   UNL     1      -5.311   2.498  -4.313  0.00  0.00    +0.002 A 
ATOM      9  C   UNL     1      -4.612   2.375  -5.500  0.00  0.00    +0.004 A 
ATOM     10  C   UNL     1      -3.231   2.426  -5.502  0.00  0.00    +0.048 A 
ATOM     11  C   UNL     1      -2.543   2.607  -4.313  0.00  0.00    +0.144 A 
BRANCH  11  12
ATOM     12  O   UNL     1      -1.184   2.663  -4.313  0.00  0.00    -0.493 OA
ATOM     13  C   UNL     1      -0.530   2.535  -5.577  0.00  0.00    +0.277 C 
ENDBRANCH  11  12
ENDBRANCH   5   6
BRANCH   1  14
ATOM     14  S   UNL     1      -2.276   0.184  -1.286  0.00  0.00    -0.073 S 
BRANCH  14  15
ATOM     15  C   UNL     1      -1.339  -0.530   0.094  0.00  0.00    +0.143 C 
BRANCH  15  16
ATOM     16  C   UNL     1      -2.039  -0.216   1.392  0.00  0.00    +0.234 C 
ATOM     17  O   UNL     1      -3.232   0.002   1.400  0.00  0.00    -0.274 OA
ATOM     18  N   UNL     1      -1.339  -0.178   2.543  0.00  0.00    -0.239 N 
ATOM     19  C   UNL     1      -1.965   0.102   3.703  0.00  0.00    +0.303 C 
ATOM     20  O   UNL     1      -3.160   0.321   3.711  0.00  0.00    -0.253 OA
ATOM     21  N   UNL     1      -1.265   0.140   4.854  0.00  0.00    -0.313 N 
ATOM     22  H   UNL     1      -0.385  -0.353   2.536  0.00  0.00    +0.159 HD
ATOM     23  H   UNL     1      -0.311  -0.035   4.848  0.00  0.00    +0.146 HD
ATOM     24  H   UNL     1      -1.715   0.342   5.689  0.00  0.00    +0.146 HD
ENDBRANCH  15  16
BRANCH  15  26
ATOM     25  C   UNL     1      -0.531  -2.365  -1.395  0.00  0.00    +0.009 C 
ATOM     26  C   UNL     1      -1.248  -2.047  -0.082  0.00  0.00    +0.005 C 
ATOM     27  C   UNL     1      -0.466  -2.650   1.086  0.00  0.00    +0.009 C 
ENDBRANCH  15  26
ENDBRANCH  14  15
ENDBRANCH   1  14
BRANCH   4  28
ATOM     28  C   UNL     1      -2.467   5.466  -1.867  0.00  0.00    +0.305 C 
BRANCH  28  29
ATOM     29  O   UNL     1      -1.387   5.870  -2.712  0.00  0.00    -0.484 OA
BRANCH  29  30
ATOM     30  C   UNL     1      -1.478   7.099  -3.284  0.00  0.00    +0.129 A 
ATOM     31  C   UNL     1      -2.579   7.902  -3.035  0.00  0.00    +0.046 A 
ATOM     32  C   UNL     1      -2.671   9.152  -3.618  0.00  0.00    +0.004 A 
ATOM     33  C   UNL     1      -1.666   9.608  -4.452  0.00  0.00    +0.001 A 
ATOM     34  C   UNL     1      -0.563   8.819  -4.709  0.00  0.00    +0.012 A 
ATOM     35  C   UNL     1      -0.458   7.560  -4.122  0.00  0.00    +0.024 A 
BRANCH  35  36
ATOM     36  C   UNL     1       0.728   6.710  -4.389  0.00  0.00    -0.014 A 
ATOM     37  C   UNL     1       1.420   6.122  -3.332  0.00  0.00    +0.008 A 
ATOM     38  C   UNL     1       2.522   5.332  -3.586  0.00  0.00    +0.001 A 
ATOM     39  C   UNL     1       2.941   5.122  -4.888  0.00  0.00    +0.000 A 
ATOM     40  C   UNL     1       2.258   5.703  -5.941  0.00  0.00    +0.001 A 
ATOM     41  C   UNL     1       1.151   6.491  -5.699  0.00  0.00    +0.008 A 
ENDBRANCH  35  36
ENDBRANCH  29  30
ENDBRANCH  28  29
ENDBRANCH   4  28
TORSDOF 10
