REMARK  Name = ZINC08916595
REMARK  5 active torsions:
REMARK  status: ('A' for Active; 'I' for Inactive)
REMARK    1  A    between atoms: C_1  and  C_2
REMARK    2  A    between atoms: C_9  and  C_28
REMARK    3  A    between atoms: C_14  and  C_19
REMARK    4  A    between atoms: C_22  and  O_25
REMARK    5  A    between atoms: O_25  and  C_26
REMARK                            x       y       z     vdW  Elec       q    Type
REMARK                         _______ _______ _______ _____ _____    ______ ____
ROOT
ATOM      1  C   UNL     1       2.476   0.780  -0.036  0.00  0.00    +0.044 C 
ATOM      2  C   UNL     1       1.193   1.569   0.003  0.00  0.00    -0.049 A 
ATOM      3  C   UNL     1       1.230   2.952   0.047  0.00  0.00    +0.005 A 
ATOM      4  C   UNL     1       0.066   3.684   0.099  0.00  0.00    +0.030 A 
ATOM      5  C   UNL     1      -1.181   3.045   0.102  0.00  0.00    +0.085 A 
ATOM      6  C   UNL     1      -1.201   1.631   0.023  0.00  0.00    +0.054 A 
ATOM      7  C   UNL     1      -0.025   0.912  -0.004  0.00  0.00    +0.028 A 
ATOM      8  N   UNL     1      -2.442   1.028  -0.053  0.00  0.00    -0.334 N 
ATOM      9  C   UNL     1      -3.359   1.331  -1.122  0.00  0.00    +0.116 C 
ATOM     10  C   UNL     1      -4.081   2.626  -0.960  0.00  0.00    +0.124 C 
ATOM     11  C   UNL     1      -5.333   2.698  -1.456  0.00  0.00    +0.145 C 
ATOM     12  C   UNL     1      -6.178   3.933  -1.366  0.00  0.00    +0.083 C 
ATOM     13  C   UNL     1      -5.265   5.162  -1.304  0.00  0.00    +0.032 C 
ATOM     14  C   UNL     1      -4.317   4.990  -0.118  0.00  0.00    +0.060 C 
ATOM     15  C   UNL     1      -3.482   3.732  -0.315  0.00  0.00    +0.032 C 
ATOM     16  N   UNL     1      -2.305   3.765   0.198  0.00  0.00    -0.254 NA
ATOM     17  O   UNL     1      -5.849   1.608  -2.063  0.00  0.00    -0.297 OA
ATOM     18  H   UNL     1      -2.701   0.384   0.625  0.00  0.00    +0.147 HD
ENDROOT
BRANCH   9  19
ATOM     19  C   UNL     1      -2.589   1.372  -2.417  0.00  0.00    -0.026 A 
ATOM     20  C   UNL     1      -1.741   2.431  -2.683  0.00  0.00    +0.008 A 
ATOM     21  C   UNL     1      -1.030   2.466  -3.868  0.00  0.00    +0.038 A 
ATOM     22  C   UNL     1      -1.176   1.446  -4.793  0.00  0.00    +0.123 A 
ATOM     23  C   UNL     1      -2.029   0.389  -4.528  0.00  0.00    +0.038 A 
ATOM     24  C   UNL     1      -2.735   0.353  -3.340  0.00  0.00    +0.008 A 
ATOM     25  F   UNL     1      -0.485   1.483  -5.954  0.00  0.00    -0.205 F 
ENDBRANCH   9  19
BRANCH  13  26
ATOM     26  C   UNL     1      -6.096   6.404  -1.115  0.00  0.00    -0.043 A 
ATOM     27  C   UNL     1      -6.926   6.519  -0.015  0.00  0.00    +0.007 A 
ATOM     28  C   UNL     1      -7.684   7.660   0.163  0.00  0.00    +0.046 A 
ATOM     29  C   UNL     1      -7.622   8.686  -0.769  0.00  0.00    +0.120 A 
ATOM     30  C   UNL     1      -6.793   8.566  -1.875  0.00  0.00    +0.046 A 
ATOM     31  C   UNL     1      -6.032   7.426  -2.045  0.00  0.00    +0.007 A 
BRANCH  29  32
ATOM     32  O   UNL     1      -8.371   9.807  -0.599  0.00  0.00    -0.495 OA
ATOM     33  C   UNL     1      -9.201   9.862   0.563  0.00  0.00    +0.277 C 
ENDBRANCH  29  32
ENDBRANCH  13  26
TORSDOF 3
