REMARK  Name = ZINC08636483
REMARK  5 active torsions:
REMARK  status: ('A' for Active; 'I' for Inactive)
REMARK    1  A    between atoms: C_1  and  C_2
REMARK    2  A    between atoms: C_5  and  N_8
REMARK    3  A    between atoms: C_11  and  C_25
REMARK    4  A    between atoms: C_14  and  O_24
REMARK    5  A    between atoms: C_16  and  O_23
REMARK                            x       y       z     vdW  Elec       q    Type
REMARK                         _______ _______ _______ _____ _____    ______ ____
ROOT
ATOM      1  N   UNL     1       1.259   4.083   3.311  0.00  0.00    -0.277 N 
ATOM      2  C   UNL     1       0.740   3.022   2.448  0.00  0.00    +0.115 C 
ATOM      3  C   UNL     1       1.627   1.836   2.313  0.00  0.00    +0.100 C 
ATOM      4  C   UNL     1       2.513   1.817   1.089  0.00  0.00    +0.048 C 
ATOM      5  C   UNL     1       1.754   2.201  -0.164  0.00  0.00    +0.146 C 
ATOM      6  C   UNL     1       1.075   3.541  -0.038  0.00  0.00    +0.165 C 
ATOM      7  C   UNL     1       0.257   3.736   1.206  0.00  0.00    +0.124 C 
ATOM      8  N   UNL     1       0.288   5.154   1.588  0.00  0.00    -0.319 N 
ATOM      9  C   UNL     1       0.921   5.264   2.765  0.00  0.00    +0.138 C 
ATOM     10  S   UNL     1       1.266   6.769   3.505  0.00  0.00    -0.018 S 
ATOM     11  H   UNL     1      -0.077   5.890   1.071  0.00  0.00    +0.148 HD
ENDROOT
BRANCH   3  12
ATOM     12  C   UNL     1       2.508   1.764   3.534  0.00  0.00    +0.221 C 
ATOM     13  O   UNL     1       3.518   2.433   3.593  0.00  0.00    -0.275 OA
ATOM     14  N   UNL     1       2.173   0.957   4.560  0.00  0.00    -0.301 N 
ATOM     15  C   UNL     1       0.933   0.170   4.519  0.00  0.00    +0.108 C 
ATOM     16  C   UNL     1       1.281  -1.304   4.776  0.00  0.00    +0.019 C 
ATOM     17  C   UNL     1       2.054  -1.418   6.091  0.00  0.00    +0.003 C 
ATOM     18  C   UNL     1       3.360  -0.626   5.988  0.00  0.00    +0.019 C 
ATOM     19  C   UNL     1       3.039   0.851   5.742  0.00  0.00    +0.108 C 
ENDBRANCH   3  12
BRANCH   1  24
ATOM     20  C   UNL     1       4.186   3.342   8.113  0.00  0.00    +0.044 C 
ATOM     21  C   UNL     1       3.409   3.539   6.837  0.00  0.00    -0.050 A 
ATOM     22  C   UNL     1       4.000   4.171   5.759  0.00  0.00    +0.005 A 
ATOM     23  C   UNL     1       3.291   4.353   4.589  0.00  0.00    +0.024 A 
ATOM     24  C   UNL     1       1.981   3.900   4.495  0.00  0.00    +0.036 A 
ATOM     25  C   UNL     1       1.388   3.271   5.581  0.00  0.00    +0.024 A 
ATOM     26  C   UNL     1       2.105   3.087   6.747  0.00  0.00    +0.005 A 
ENDBRANCH   1  24
BRANCH   6  27
ATOM     27  O   UNL     1       2.080   4.557  -0.055  0.00  0.00    -0.387 OA
ATOM     28  H   UNL     1       2.612   4.571  -0.862  0.00  0.00    +0.210 HD
ENDBRANCH   6  27
BRANCH   5  29
ATOM     29  O   UNL     1       0.764   1.205  -0.429  0.00  0.00    -0.389 OA
ATOM     30  H   UNL     1       1.126   0.319  -0.568  0.00  0.00    +0.210 HD
ENDBRANCH   5  29
TORSDOF 4
