REMARK  Name = ZINC58990120
REMARK  10 active torsions:
REMARK  status: ('A' for Active; 'I' for Inactive)
REMARK    1  A    between atoms: C_1  and  O_2
REMARK    2  A    between atoms: O_2  and  C_3
REMARK    3  A    between atoms: C_7  and  C_10
REMARK    4  A    between atoms: C_8  and  O_9
REMARK    5  A    between atoms: N_11  and  N_12
REMARK    6  A    between atoms: C_13  and  C_15
REMARK    7  A    between atoms: C_15  and  S_16
REMARK    8  A    between atoms: S_16  and  C_17
REMARK    9  A    between atoms: C_20  and  C_23
REMARK   10  A    between atoms: N_21  and  N_22
REMARK                            x       y       z     vdW  Elec       q    Type
REMARK                         _______ _______ _______ _____ _____    ______ ____
ROOT
ATOM      1  C   UNL     1      -0.487  -8.482  -0.056  0.00  0.00    +0.174 C 
ENDROOT
BRANCH   1   3
ATOM      2  N   UNL     1      -1.554  -6.251  -0.047  0.00  0.00    -0.206 N 
ATOM      3  C   UNL     1      -0.425  -6.979  -0.147  0.00  0.00    +0.242 C 
ATOM      4  O   UNL     1       0.642  -6.425  -0.312  0.00  0.00    -0.273 OA
ATOM      5  H   UNL     1      -2.407  -6.694   0.084  0.00  0.00    +0.177 HD
BRANCH   2   7
ATOM      6  C   UNL     1      -2.584  -4.152  -0.036  0.00  0.00    +0.142 C 
ATOM      7  N   UNL     1      -1.497  -4.854  -0.132  0.00  0.00    -0.188 NA
BRANCH   6  12
ATOM      8  C   UNL     1      -1.248  -0.653  -0.397  0.00  0.00    +0.162 A 
ATOM      9  C   UNL     1      -2.416   0.087  -0.293  0.00  0.00    +0.049 A 
ATOM     10  C   UNL     1      -3.632  -0.548  -0.106  0.00  0.00    +0.004 A 
ATOM     11  C   UNL     1      -3.692  -1.923  -0.022  0.00  0.00    +0.013 A 
ATOM     12  C   UNL     1      -2.524  -2.682  -0.125  0.00  0.00    +0.040 A 
ATOM     13  C   UNL     1      -1.295  -2.039  -0.320  0.00  0.00    +0.167 A 
BRANCH   8  15
ATOM     14  C   UNL     1      -0.084   1.406  -0.650  0.00  0.00    +0.277 C 
ATOM     15  O   UNL     1      -0.058  -0.021  -0.580  0.00  0.00    -0.491 OA
ENDBRANCH   8  15
BRANCH  13  16
ATOM     16  O   UNL     1      -0.153  -2.768  -0.427  0.00  0.00    -0.503 OA
ATOM     17  H   UNL     1       0.289  -2.934   0.417  0.00  0.00    +0.292 HD
ENDBRANCH  13  16
ENDBRANCH   6  12
ENDBRANCH   2   7
ENDBRANCH   1   3
BRANCH   1  18
ATOM     18  S   UNL     1       1.184  -9.168  -0.226  0.00  0.00    -0.075 S 
BRANCH  18  19
ATOM     19  C   UNL     1       0.945 -10.909  -0.099  0.00  0.00    +0.209 A 
ATOM     20  N   UNL     1      -0.201 -11.528   0.073  0.00  0.00    -0.121 NA
ATOM     21  N   UNL     1      -0.014 -12.798   0.123  0.00  0.00    -0.127 NA
ATOM     22  C   UNL     1       1.264 -13.068  -0.014  0.00  0.00    +0.183 A 
ATOM     23  N   UNL     1       1.916 -11.867  -0.167  0.00  0.00    -0.224 N 
BRANCH  22  24
ATOM     24  C   UNL     1       1.883 -14.411  -0.012  0.00  0.00    +0.035 A 
ATOM     25  C   UNL     1       3.015 -14.659   0.766  0.00  0.00    +0.013 A 
ATOM     26  C   UNL     1       3.588 -15.914   0.765  0.00  0.00    +0.001 A 
ATOM     27  C   UNL     1       3.043 -16.926  -0.006  0.00  0.00    +0.001 A 
ATOM     28  C   UNL     1       1.922 -16.687  -0.780  0.00  0.00    +0.016 A 
ATOM     29  C   UNL     1       1.335 -15.437  -0.784  0.00  0.00    +0.029 A 
ATOM     30 BR   UNL     1      -0.203 -15.115  -1.836  0.00  0.00    -0.050 Br
ENDBRANCH  22  24
BRANCH  23  31
ATOM     31  N   UNL     1       3.256 -11.672  -0.345  0.00  0.00    -0.295 N 
ATOM     32  H   UNL     1       3.740 -11.653   0.540  0.00  0.00    +0.163 HD
ATOM     33  H   UNL     1       3.646 -12.376  -0.955  0.00  0.00    +0.163 HD
ENDBRANCH  23  31
ENDBRANCH  18  19
ENDBRANCH   1  18
TORSDOF 9
