REMARK  Name = ZINC20885303
REMARK  8 active torsions:
REMARK  status: ('A' for Active; 'I' for Inactive)
REMARK    1  A    between atoms: C_1  and  O_2
REMARK    2  A    between atoms: O_2  and  C_3
REMARK    3  A    between atoms: C_8  and  C_9
REMARK    4  A    between atoms: C_14  and  C_24
REMARK    5  A    between atoms: C_26  and  N_33
REMARK    6  A    between atoms: C_27  and  O_32
REMARK    7  A    between atoms: C_28  and  O_30
REMARK    8  A    between atoms: O_30  and  C_31
REMARK                            x       y       z     vdW  Elec       q    Type
REMARK                         _______ _______ _______ _____ _____    ______ ____
ROOT
ATOM      1  C   UNL     1      -0.120   5.346  -0.069  0.00  0.00    +0.035 C 
ATOM      2  C   UNL     1      -0.864   5.896  -1.285  0.00  0.00    +0.060 C 
ATOM      3  C   UNL     1      -0.889   7.415  -1.234  0.00  0.00    +0.017 C 
ATOM      4  C   UNL     1      -0.936   8.054  -0.053  0.00  0.00    +0.036 C 
ATOM      5  C   UNL     1      -0.989   9.551   0.142  0.00  0.00    +0.136 C 
ATOM      6  N   UNL     1      -0.720  10.321  -1.053  0.00  0.00    -0.331 N 
ATOM      7  C   UNL     1      -1.574  10.265  -2.153  0.00  0.00    +0.049 A 
ATOM      8  C   UNL     1      -2.295  11.375  -2.567  0.00  0.00    +0.025 A 
ATOM      9  C   UNL     1      -3.166  11.260  -3.636  0.00  0.00    +0.002 A 
ATOM     10  C   UNL     1      -3.320  10.049  -4.287  0.00  0.00    +0.002 A 
ATOM     11  C   UNL     1      -2.589   8.943  -3.886  0.00  0.00    +0.025 A 
ATOM     12  C   UNL     1      -1.703   9.062  -2.830  0.00  0.00    +0.052 A 
ATOM     13  N   UNL     1      -0.863   8.023  -2.446  0.00  0.00    -0.316 N 
ATOM     14  C   UNL     1      -0.938   7.319   1.156  0.00  0.00    +0.163 C 
ATOM     15  O   UNL     1      -1.005   7.924   2.208  0.00  0.00    -0.292 OA
ATOM     16  C   UNL     1      -0.860   5.822   1.187  0.00  0.00    +0.088 C 
ATOM     17  H   UNL     1       0.172  10.963  -1.105  0.00  0.00    +0.147 HD
ATOM     18  H   UNL     1      -0.139   7.699  -3.209  0.00  0.00    +0.152 HD
ENDROOT
BRANCH   1  24
ATOM     19  C   UNL     1       1.097   3.155  -0.139  0.00  0.00    +0.124 A 
ATOM     20  C   UNL     1       1.103   1.768  -0.182  0.00  0.00    +0.046 A 
ATOM     21  C   UNL     1      -0.090   1.073  -0.200  0.00  0.00    +0.004 A 
ATOM     22  C   UNL     1      -1.291   1.758  -0.181  0.00  0.00    +0.001 A 
ATOM     23  C   UNL     1      -1.300   3.140  -0.133  0.00  0.00    +0.007 A 
ATOM     24  C   UNL     1      -0.109   3.840  -0.115  0.00  0.00    -0.002 A 
BRANCH  19  26
ATOM     25  C   UNL     1       3.473   3.070  -0.149  0.00  0.00    +0.277 C 
ATOM     26  O   UNL     1       2.270   3.841  -0.121  0.00  0.00    -0.495 OA
ENDBRANCH  19  26
ENDBRANCH   1  24
BRANCH   5  27
ATOM     27  C   UNL     1      -2.359   9.919   0.650  0.00  0.00    -0.017 A 
ATOM     28  C   UNL     1      -3.471   9.690  -0.140  0.00  0.00    +0.042 A 
ATOM     29  C   UNL     1      -4.730  10.026   0.321  0.00  0.00    +0.171 A 
ATOM     30  C   UNL     1      -4.880  10.592   1.577  0.00  0.00    +0.189 A 
ATOM     31  C   UNL     1      -3.762  10.821   2.372  0.00  0.00    +0.164 A 
ATOM     32  C   UNL     1      -2.502  10.478   1.906  0.00  0.00    +0.055 A 
BRANCH  29  33
ATOM     33  N   UNL     1      -5.918   9.781  -0.527  0.00  0.00    +0.060 N 
ATOM     34  O   UNL     1      -5.786   9.284  -1.631  0.00  0.00    -0.126 OA
ATOM     35  O   UNL     1      -7.028  10.077  -0.122  0.00  0.00    -0.126 OA
ENDBRANCH  29  33
BRANCH  31  36
ATOM     36  O   UNL     1      -3.904  11.377   3.605  0.00  0.00    -0.491 OA
ATOM     37  C   UNL     1      -2.712  11.583   4.365  0.00  0.00    +0.277 C 
ENDBRANCH  31  36
BRANCH  30  38
ATOM     38  O   UNL     1      -6.119  10.923   2.031  0.00  0.00    -0.502 OA
ATOM     39  H   UNL     1      -6.237  11.373   3.028  0.00  0.00    +0.292 HD
ENDBRANCH  30  38
ENDBRANCH   5  27
TORSDOF 6
