REMARK  Name = ZINC03234489
REMARK  10 active torsions:
REMARK  status: ('A' for Active; 'I' for Inactive)
REMARK    1  A    between atoms: C_1  and  N_2
REMARK    2  A    between atoms: C_6  and  S_7
REMARK    3  A    between atoms: S_7  and  C_8
REMARK    4  A    between atoms: C_8  and  C_9
REMARK    5  A    between atoms: C_12  and  C_15
REMARK    6  A    between atoms: N_17  and  N_18
REMARK    7  A    between atoms: C_19  and  C_20
REMARK    8  A    between atoms: C_23  and  N_26
REMARK    9  A    between atoms: N_26  and  C_27
REMARK   10  A    between atoms: N_26  and  C_33
REMARK                            x       y       z     vdW  Elec       q    Type
REMARK                         _______ _______ _______ _____ _____    ______ ____
ROOT
ATOM      1  N   UNL     1       2.972   9.771  -1.603  0.00  0.00    -0.187 NA
ATOM      2  C   UNL     1       2.744  10.550  -2.616  0.00  0.00    +0.138 C 
ENDROOT
BRANCH   2   3
ATOM      3  C   UNL     1       3.038  11.991  -2.518  0.00  0.00    -0.005 A 
ATOM      4  C   UNL     1       3.556  12.522  -1.333  0.00  0.00    +0.011 A 
ATOM      5  C   UNL     1       3.834  13.868  -1.247  0.00  0.00    +0.024 A 
ATOM      6  C   UNL     1       3.589  14.701  -2.333  0.00  0.00    +0.039 A 
ATOM      7  C   UNL     1       3.068  14.178  -3.512  0.00  0.00    +0.024 A 
ATOM      8  C   UNL     1       2.793  12.832  -3.608  0.00  0.00    +0.011 A 
BRANCH   6   9
ATOM      9  N   UNL     1       3.867  16.066  -2.240  0.00  0.00    -0.269 N 
BRANCH   9  10
ATOM     10  C   UNL     1       3.071  16.888  -1.437  0.00  0.00    +0.039 A 
ATOM     11  C   UNL     1       1.933  16.375  -0.828  0.00  0.00    +0.024 A 
ATOM     12  C   UNL     1       1.152  17.188  -0.030  0.00  0.00    +0.002 A 
ATOM     13  C   UNL     1       1.496  18.514   0.154  0.00  0.00    +0.000 A 
ATOM     14  C   UNL     1       2.626  19.030  -0.455  0.00  0.00    +0.002 A 
ATOM     15  C   UNL     1       3.414  18.221  -1.250  0.00  0.00    +0.024 A 
ENDBRANCH   9  10
BRANCH   9  16
ATOM     16  C   UNL     1       4.940  16.611  -2.951  0.00  0.00    +0.039 A 
ATOM     17  C   UNL     1       4.705  17.430  -4.048  0.00  0.00    +0.024 A 
ATOM     18  C   UNL     1       5.768  17.972  -4.744  0.00  0.00    +0.002 A 
ATOM     19  C   UNL     1       7.065  17.691  -4.357  0.00  0.00    +0.000 A 
ATOM     20  C   UNL     1       7.303  16.871  -3.269  0.00  0.00    +0.002 A 
ATOM     21  C   UNL     1       6.245  16.331  -2.565  0.00  0.00    +0.024 A 
ENDBRANCH   9  16
ENDBRANCH   6   9
ENDBRANCH   2   3
BRANCH   1  24
ATOM     22  C   UNL     1       2.930   7.592  -0.644  0.00  0.00    +0.263 C 
ATOM     23  O   UNL     1       3.386   8.051   0.385  0.00  0.00    -0.268 OA
ATOM     24  N   UNL     1       2.694   8.401  -1.696  0.00  0.00    -0.203 N 
ATOM     25  H   UNL     1       2.330   8.035  -2.518  0.00  0.00    +0.178 HD
BRANCH  22  29
ATOM     26  C   UNL     1       2.084   3.440  -0.927  0.00  0.00    -0.037 A 
ATOM     27  C   UNL     1       1.845   4.267  -2.010  0.00  0.00    +0.005 A 
ATOM     28  C   UNL     1       2.113   5.617  -1.923  0.00  0.00    +0.013 A 
ATOM     29  C   UNL     1       2.636   6.147  -0.743  0.00  0.00    +0.038 A 
ATOM     30  C   UNL     1       2.880   5.306   0.344  0.00  0.00    +0.013 A 
ATOM     31  C   UNL     1       2.603   3.959   0.246  0.00  0.00    +0.005 A 
BRANCH  26  32
ATOM     32  C   UNL     1       1.783   1.966  -1.027  0.00  0.00    +0.112 C 
BRANCH  32  33
ATOM     33  S   UNL     1       0.082   1.660  -0.492  0.00  0.00    -0.081 S 
BRANCH  33  39
ATOM     34  C   UNL     1      -2.380  -0.477   0.062  0.00  0.00    +0.152 C 
ATOM     35  N   UNL     1      -1.070  -0.890  -0.446  0.00  0.00    -0.312 N 
ATOM     36  C   UNL     1      -0.669  -2.159  -0.762  0.00  0.00    +0.225 A 
ATOM     37  N   UNL     1       0.567  -2.085  -1.169  0.00  0.00    -0.137 NA
ATOM     38  N   UNL     1       0.969  -0.865  -1.139  0.00  0.00    -0.123 NA
ATOM     39  C   UNL     1       0.004  -0.087  -0.705  0.00  0.00    +0.191 A 
ENDBRANCH  33  39
ENDBRANCH  32  33
ENDBRANCH  26  32
ENDBRANCH  22  29
ENDBRANCH   1  24
TORSDOF 9
