REMARK  Name = ZINC12571305
REMARK  19 active torsions:
REMARK  status: ('A' for Active; 'I' for Inactive)
REMARK    1  A    between atoms: C_1  and  C_2
REMARK    2  A    between atoms: C_2  and  C_3
REMARK    3  A    between atoms: C_6  and  C_9
REMARK    4  A    between atoms: C_9  and  N_67
REMARK    5  A    between atoms: C_10  and  N_67
REMARK    6  A    between atoms: C_11  and  C_12
REMARK    7  A    between atoms: C_11  and  N_67
REMARK    8  A    between atoms: C_15  and  O_20
REMARK    9  A    between atoms: C_16  and  O_18
REMARK   10  A    between atoms: O_18  and  C_19
REMARK   11  A    between atoms: O_20  and  C_21
REMARK   12  A    between atoms: C_21  and  C_22
REMARK   13  A    between atoms: C_22  and  C_24
REMARK   14  A    between atoms: C_22  and  O_29
REMARK   15  A    between atoms: C_24  and  N_69
REMARK   16  A    between atoms: C_25  and  C_26
REMARK   17  A    between atoms: C_25  and  N_69
REMARK   18  A    between atoms: C_27  and  C_28
REMARK   19  A    between atoms: C_27  and  N_69
REMARK                            x       y       z     vdW  Elec       q    Type
REMARK                         _______ _______ _______ _____ _____    ______ ____
ROOT
ATOM      1  C   UNL     1      -2.872   1.470   8.161  0.00  0.00    -0.060 A 
ATOM      2  C   UNL     1      -3.009   0.123   8.442  0.00  0.00    +0.005 A 
ATOM      3  C   UNL     1      -2.348  -0.432   9.522  0.00  0.00    +0.049 A 
ATOM      4  C   UNL     1      -1.554   0.364  10.332  0.00  0.00    +0.162 A 
ATOM      5  C   UNL     1      -1.420   1.721  10.052  0.00  0.00    +0.162 A 
ATOM      6  C   UNL     1      -2.081   2.270   8.966  0.00  0.00    +0.051 A 
ENDROOT
BRANCH   5   7
ATOM      7  O   UNL     1      -0.642   2.506  10.844  0.00  0.00    -0.491 OA
ATOM      8  C   UNL     1      -0.551   3.889  10.497  0.00  0.00    +0.277 C 
ENDBRANCH   5   7
BRANCH   1   9
ATOM      9  C   UNL     1      -3.591   2.069   6.980  0.00  0.00    -0.043 C 
BRANCH   9  11
ATOM     10  C   UNL     1      -1.542   2.840   5.946  0.00  0.00    -0.095 C 
ATOM     11  N   UNL     1      -2.721   1.963   5.789  0.00  0.00    +0.383 N 
ATOM     12  H   UNL     1      -2.404   0.991   5.694  0.00  0.00    -0.081 HD
BRANCH  11  13
ATOM     13  C   UNL     1      -3.476   2.343   4.577  0.00  0.00    -0.043 C 
BRANCH  13  17
ATOM     14  C   UNL     1      -1.116   1.421   1.137  0.00  0.00    -0.048 A 
ATOM     15  C   UNL     1      -1.022   2.668   1.726  0.00  0.00    +0.004 A 
ATOM     16  C   UNL     1      -1.789   2.968   2.836  0.00  0.00    +0.002 A 
ATOM     17  C   UNL     1      -2.643   2.018   3.364  0.00  0.00    -0.064 A 
ATOM     18  C   UNL     1      -2.734   0.769   2.778  0.00  0.00    +0.002 A 
ATOM     19  C   UNL     1      -1.970   0.470   1.665  0.00  0.00    +0.004 A 
BRANCH  14  21
ATOM     20  C   UNL     1      -1.061   1.462  -1.341  0.00  0.00    +0.009 C 
ATOM     21  C   UNL     1      -0.283   1.096  -0.076  0.00  0.00    +0.032 C 
ENDBRANCH  14  21
ENDBRANCH  13  17
ENDBRANCH  11  13
ENDBRANCH   9  11
ENDBRANCH   1   9
BRANCH   4  22
ATOM     22  O   UNL     1      -0.906  -0.179  11.397  0.00  0.00    -0.486 OA
BRANCH  22  23
ATOM     23  C   UNL     1      -1.090  -1.578  11.623  0.00  0.00    +0.258 C 
BRANCH  23  24
ATOM     24  C   UNL     1      -0.290  -2.005  12.856  0.00  0.00    +0.135 C 
BRANCH  24  25
ATOM     25  O   UNL     1       1.106  -1.844  12.597  0.00  0.00    -0.390 OA
ATOM     26  H   UNL     1       1.431  -2.366  11.851  0.00  0.00    +0.210 HD
ENDBRANCH  24  25
BRANCH  24  27
ATOM     27  C   UNL     1      -0.584  -3.473  13.171  0.00  0.00    -0.044 C 
BRANCH  27  28
ATOM     28  N   UNL     1       0.102  -3.834  14.430  0.00  0.00    +0.381 N 
ATOM     29  H   UNL     1      -0.050  -3.088  15.118  0.00  0.00    -0.082 HD
BRANCH  28  30
ATOM     30  C   UNL     1      -0.451  -5.097  14.962  0.00  0.00    -0.082 C 
ATOM     31  C   UNL     1      -0.009  -5.253  16.418  0.00  0.00    -0.017 C 
ENDBRANCH  28  30
BRANCH  28  32
ATOM     32  C   UNL     1       1.553  -3.979  14.191  0.00  0.00    -0.082 C 
ATOM     33  C   UNL     1       1.813  -4.967  13.051  0.00  0.00    -0.017 C 
ENDBRANCH  28  32
ENDBRANCH  27  28
ENDBRANCH  24  27
ENDBRANCH  23  24
ENDBRANCH  22  23
ENDBRANCH   4  22
TORSDOF 14
