REMARK  Name = ZINC39846502
REMARK  11 active torsions:
REMARK  status: ('A' for Active; 'I' for Inactive)
REMARK    1  A    between atoms: C_1  and  C_2
REMARK    2  A    between atoms: C_2  and  O_3
REMARK    3  A    between atoms: O_3  and  C_4
REMARK    4  A    between atoms: C_4  and  C_6
REMARK    5  A    between atoms: C_11  and  N_12
REMARK    6  A    between atoms: C_13  and  C_15
REMARK    7  A    between atoms: C_18  and  C_32
REMARK    8  A    between atoms: C_19  and  C_20
REMARK    9  A    between atoms: C_19  and  C_21
REMARK   10  A    between atoms: C_25  and  C_30
REMARK   11  A    between atoms: C_26  and  C_28
REMARK                            x       y       z     vdW  Elec       q    Type
REMARK                         _______ _______ _______ _____ _____    ______ ____
ROOT
ATOM      1  C   UNL     1       0.357  -6.996   1.129  0.00  0.00    +0.097 C 
ATOM      2  C   UNL     1       1.104  -7.090  -0.238  0.00  0.00    +0.024 C 
ATOM      3  C   UNL     1       0.631  -8.438  -0.833  0.00  0.00    +0.015 C 
ATOM      4  C   UNL     1      -0.347  -9.005   0.244  0.00  0.00    +0.018 C 
ATOM      5  C   UNL     1       0.361  -8.510   1.557  0.00  0.00    -0.005 C 
ATOM      6  C   UNL     1       1.778  -9.075   1.682  0.00  0.00    +0.013 C 
ATOM      7  C   UNL     1      -0.469  -8.760   2.818  0.00  0.00    +0.013 C 
ATOM      8  C   UNL     1      -1.542  -8.049   0.208  0.00  0.00    +0.072 A 
ATOM      9  C   UNL     1      -1.119  -6.827   0.765  0.00  0.00    +0.080 A 
ATOM     10  N   UNL     1      -1.942  -5.810   0.870  0.00  0.00    -0.236 NA
ATOM     11  C   UNL     1      -3.205  -5.938   0.467  0.00  0.00    +0.176 A 
ATOM     12  C   UNL     1      -3.647  -7.161  -0.067  0.00  0.00    +0.176 A 
ATOM     13  N   UNL     1      -2.776  -8.196  -0.210  0.00  0.00    -0.236 NA
ATOM     14  C   UNL     1      -0.656 -10.501   0.155  0.00  0.00    +0.018 C 
ENDROOT
BRANCH   1  16
ATOM     15  N   UNL     1       0.945  -4.698   1.831  0.00  0.00    -0.284 N 
ATOM     16  C   UNL     1       0.915  -6.013   2.126  0.00  0.00    +0.230 C 
ATOM     17  O   UNL     1       1.336  -6.404   3.194  0.00  0.00    -0.274 OA
ATOM     18  H   UNL     1       0.539  -4.376   1.011  0.00  0.00    +0.155 HD
BRANCH  15  24
ATOM     19  C   UNL     1       1.042  -2.507   2.863  0.00  0.00    +0.080 A 
ATOM     20  C   UNL     1       1.665  -1.621   3.745  0.00  0.00    +0.017 A 
ATOM     21  C   UNL     1       2.781  -2.020   4.447  0.00  0.00    +0.001 A 
ATOM     22  C   UNL     1       3.291  -3.297   4.283  0.00  0.00    +0.002 A 
ATOM     23  C   UNL     1       2.688  -4.185   3.415  0.00  0.00    +0.024 A 
ATOM     24  C   UNL     1       1.559  -3.803   2.703  0.00  0.00    +0.047 A 
BRANCH  19  25
ATOM     25  C   UNL     1      -0.153  -2.087   2.109  0.00  0.00    +0.341 C 
ATOM     26  O   UNL     1      -0.640  -2.830   1.280  0.00  0.00    -0.245 OA
BRANCH  25  27
ATOM     27  O   UNL     1      -0.704  -0.880   2.339  0.00  0.00    -0.461 OA
BRANCH  27  29
ATOM     28  C   UNL     1      -2.341   0.859   1.969  0.00  0.00    +0.048 C 
ATOM     29  C   UNL     1      -1.861  -0.538   1.572  0.00  0.00    +0.229 C 
ENDBRANCH  27  29
ENDBRANCH  25  27
ENDBRANCH  19  25
ENDBRANCH  15  24
ENDBRANCH   1  16
BRANCH  12  30
ATOM     30  C   UNL     1      -5.004  -7.308  -0.502  0.00  0.00    +0.122 C 
ATOM     31  N   UNL     1      -6.080  -7.424  -0.847  0.00  0.00    -0.189 NA
ENDBRANCH  12  30
BRANCH  11  32
ATOM     32  C   UNL     1      -4.110  -4.833   0.578  0.00  0.00    +0.122 C 
ATOM     33  N   UNL     1      -4.828  -3.957   0.666  0.00  0.00    -0.189 NA
ENDBRANCH  11  32
TORSDOF 7
