REMARK  Name = ZINC40740204
REMARK  11 active torsions:
REMARK  status: ('A' for Active; 'I' for Inactive)
REMARK    1  A    between atoms: C_1  and  C_2
REMARK    2  A    between atoms: C_2  and  O_3
REMARK    3  A    between atoms: O_3  and  C_4
REMARK    4  A    between atoms: C_6  and  C_20
REMARK    5  A    between atoms: C_9  and  O_10
REMARK    6  A    between atoms: O_10  and  C_11
REMARK    7  A    between atoms: C_11  and  C_12
REMARK    8  A    between atoms: C_17  and  C_18
REMARK    9  A    between atoms: C_20  and  N_21
REMARK   10  A    between atoms: N_21  and  C_22
REMARK   11  A    between atoms: C_22  and  C_23
REMARK                            x       y       z     vdW  Elec       q    Type
REMARK                         _______ _______ _______ _____ _____    ______ ____
ROOT
ATOM      1  C   UNL     1       0.802  -1.825   1.306  0.00  0.00    +0.163 A 
ATOM      2  C   UNL     1       0.260  -2.673   0.352  0.00  0.00    +0.051 A 
ATOM      3  C   UNL     1       0.371  -4.043   0.502  0.00  0.00    -0.060 A 
ATOM      4  C   UNL     1       1.022  -4.571   1.602  0.00  0.00    +0.021 A 
ATOM      5  C   UNL     1       1.565  -3.730   2.557  0.00  0.00    +0.063 A 
ATOM      6  C   UNL     1       1.462  -2.356   2.409  0.00  0.00    +0.176 A 
ATOM      7 BR   UNL     1       2.453  -4.456   4.061  0.00  0.00    -0.046 Br
ENDROOT
BRANCH   1   8
ATOM      8  O   UNL     1       0.693  -0.477   1.160  0.00  0.00    -0.489 OA
BRANCH   8  10
ATOM      9  C   UNL     1      -0.019   1.526   0.010  0.00  0.00    +0.048 C 
ATOM     10  C   UNL     1       0.002  -0.004   0.002  0.00  0.00    +0.226 C 
ENDBRANCH   8  10
ENDBRANCH   1   8
BRANCH   6  11
ATOM     11  O   UNL     1       2.000  -1.528   3.345  0.00  0.00    -0.483 OA
BRANCH  11  12
ATOM     12  C   UNL     1       1.161  -1.151   4.438  0.00  0.00    +0.265 C 
BRANCH  12  13
ATOM     13  C   UNL     1       1.922  -0.238   5.365  0.00  0.00    -0.007 A 
ATOM     14  C   UNL     1       3.229   0.106   5.076  0.00  0.00    +0.007 A 
ATOM     15  C   UNL     1       3.927   0.943   5.926  0.00  0.00    +0.000 A 
ATOM     16  C   UNL     1       3.318   1.436   7.065  0.00  0.00    +0.000 A 
ATOM     17  C   UNL     1       2.010   1.092   7.354  0.00  0.00    +0.004 A 
ATOM     18  C   UNL     1       1.311   0.258   6.501  0.00  0.00    -0.044 A 
ATOM     19  C   UNL     1      -0.116  -0.113   6.812  0.00  0.00    +0.044 C 
ENDBRANCH  12  13
ENDBRANCH  11  12
ENDBRANCH   6  11
BRANCH   3  20
ATOM     20  C   UNL     1      -0.219  -4.963  -0.535  0.00  0.00    -0.046 C 
BRANCH  20  21
ATOM     21  N   UNL     1       0.785  -5.241  -1.571  0.00  0.00    +0.384 N 
ATOM     22  H   UNL     1       1.066  -4.376  -2.008  0.00  0.00    -0.085 HD
ATOM     23  H   UNL     1       1.589  -5.681  -1.149  0.00  0.00    -0.085 HD
BRANCH  21  24
ATOM     24  C   UNL     1       0.210  -6.138  -2.582  0.00  0.00    -0.046 C 
BRANCH  24  25
ATOM     25  C   UNL     1       1.240  -6.423  -3.644  0.00  0.00    -0.061 A 
ATOM     26  C   UNL     1       1.334  -5.602  -4.752  0.00  0.00    +0.005 A 
ATOM     27  C   UNL     1       2.278  -5.860  -5.729  0.00  0.00    +0.050 A 
ATOM     28  C   UNL     1       3.132  -6.943  -5.600  0.00  0.00    +0.166 A 
ATOM     29  C   UNL     1       3.037  -7.771  -4.484  0.00  0.00    +0.166 A 
ATOM     30  C   UNL     1       2.092  -7.503  -3.506  0.00  0.00    +0.051 A 
ATOM     31  O   UNL     1       3.976  -8.755  -4.589  0.00  0.00    -0.453 OA
ATOM     32  C   UNL     1       4.372  -8.762  -5.974  0.00  0.00    +0.466 C 
ATOM     33  O   UNL     1       4.131  -7.409  -6.405  0.00  0.00    -0.453 OA
ENDBRANCH  24  25
ENDBRANCH  21  24
ENDBRANCH  20  21
ENDBRANCH   3  20
TORSDOF 9
