REMARK  Name = ZINC36249676
REMARK  16 active torsions:
REMARK  status: ('A' for Active; 'I' for Inactive)
REMARK    1  A    between atoms: C_1  and  C_2
REMARK    2  A    between atoms: C_2  and  N_3
REMARK    3  A    between atoms: N_3  and  C_4
REMARK    4  A    between atoms: N_3  and  C_6
REMARK    5  A    between atoms: C_4  and  C_5
REMARK    6  A    between atoms: C_7  and  C_18
REMARK    7  A    between atoms: C_8  and  C_11
REMARK    8  A    between atoms: C_18  and  N_19
REMARK    9  A    between atoms: N_19  and  C_20
REMARK   10  A    between atoms: N_19  and  S_25
REMARK   11  A    between atoms: C_20  and  C_21
REMARK   12  A    between atoms: C_21  and  N_22
REMARK   13  A    between atoms: N_22  and  C_23
REMARK   14  A    between atoms: N_22  and  C_24
REMARK   15  A    between atoms: S_25  and  C_28
REMARK   16  A    between atoms: C_31  and  C_34
REMARK                            x       y       z     vdW  Elec       q    Type
REMARK                         _______ _______ _______ _____ _____    ______ ____
ROOT
ATOM      1  C   UNL     1       1.875  -2.739   2.687  0.00  0.00    +0.152 C 
ENDROOT
BRANCH   1   3
ATOM      2  C   UNL     1       1.261  -0.607   1.424  0.00  0.00    +0.225 A 
ATOM      3  C   UNL     1       2.079  -1.665   1.650  0.00  0.00    +0.057 A 
ATOM      4  C   UNL     1       3.157  -1.582   0.743  0.00  0.00    +0.120 A 
ATOM      5  N   UNL     1       2.982  -0.510   0.004  0.00  0.00    -0.076 NA
ATOM      6  O   UNL     1       1.782   0.116   0.419  0.00  0.00    -0.339 OA
BRANCH   4   7
ATOM      7  C   UNL     1       4.288  -2.538   0.641  0.00  0.00    +0.004 A 
ATOM      8  C   UNL     1       5.269  -2.567   1.630  0.00  0.00    +0.013 A 
ATOM      9  C   UNL     1       6.319  -3.457   1.532  0.00  0.00    +0.039 A 
ATOM     10  C   UNL     1       6.398  -4.321   0.451  0.00  0.00    +0.123 A 
ATOM     11  C   UNL     1       5.425  -4.295  -0.535  0.00  0.00    +0.039 A 
ATOM     12  C   UNL     1       4.369  -3.412  -0.441  0.00  0.00    +0.013 A 
ATOM     13  F   UNL     1       7.428  -5.190   0.359  0.00  0.00    -0.205 F 
ENDBRANCH   4   7
BRANCH   2  14
ATOM     14  N   UNL     1       0.091  -0.325   2.106  0.00  0.00    -0.300 N 
BRANCH  14  16
ATOM     15  C   UNL     1      -1.832  -1.494   1.149  0.00  0.00    +0.024 C 
ATOM     16  C   UNL     1      -0.889  -1.386   2.349  0.00  0.00    +0.104 C 
ENDBRANCH  14  16
BRANCH  14  17
ATOM     17  C   UNL     1      -0.168   1.036   2.585  0.00  0.00    +0.104 C 
ATOM     18  C   UNL     1       0.500   1.232   3.947  0.00  0.00    +0.024 C 
ENDBRANCH  14  17
ENDBRANCH   2  14
ENDBRANCH   1   3
BRANCH   1  19
ATOM     19  N   UNL     1       1.721  -4.036   2.023  0.00  0.00    -0.174 NA
BRANCH  19  20
ATOM     20  S   UNL     1       0.655  -4.202   0.767  0.00  0.00    +0.061 S 
ATOM     21  O   UNL     1       0.263  -5.567   0.746  0.00  0.00    -0.153 OA
ATOM     22  O   UNL     1      -0.283  -3.141   0.887  0.00  0.00    -0.153 OA
BRANCH  20  23
ATOM     23  C   UNL     1       1.554  -3.913  -0.721  0.00  0.00    +0.106 A 
ATOM     24  C   UNL     1       1.628  -2.637  -1.247  0.00  0.00    +0.029 A 
ATOM     25  C   UNL     1       2.333  -2.410  -2.414  0.00  0.00    +0.005 A 
ATOM     26  C   UNL     1       2.965  -3.459  -3.055  0.00  0.00    -0.050 A 
ATOM     27  C   UNL     1       2.892  -4.736  -2.528  0.00  0.00    +0.005 A 
ATOM     28  C   UNL     1       2.190  -4.961  -1.359  0.00  0.00    +0.029 A 
ATOM     29  C   UNL     1       3.733  -3.212  -4.328  0.00  0.00    +0.044 C 
ENDBRANCH  20  23
ENDBRANCH  19  20
BRANCH  19  30
ATOM     30  C   UNL     1       2.511  -5.186   2.471  0.00  0.00    +0.091 C 
BRANCH  30  31
ATOM     31  C   UNL     1       1.801  -5.866   3.643  0.00  0.00    -0.062 C 
BRANCH  31  32
ATOM     32  N   UNL     1       2.593  -7.019   4.092  0.00  0.00    +0.377 N 
ATOM     33  C   UNL     1       3.876  -6.551   4.633  0.00  0.00    -0.097 C 
ATOM     34  C   UNL     1       1.855  -7.743   5.136  0.00  0.00    -0.097 C 
ATOM     35  H   UNL     1       2.762  -7.636   3.311  0.00  0.00    -0.083 HD
ENDBRANCH  31  32
ENDBRANCH  30  31
ENDBRANCH  19  30
ENDBRANCH   1  19
TORSDOF 11
