REMARK  Name = ZINC66983088
REMARK  4 active torsions:
REMARK  status: ('A' for Active; 'I' for Inactive)
REMARK    1  A    between atoms: C_7  and  C_11
REMARK    2  A    between atoms: C_11  and  C_12
REMARK    3  A    between atoms: C_12  and  N_13
REMARK    4  A    between atoms: C_22  and  C_24
REMARK                            x       y       z     vdW  Elec       q    Type
REMARK                         _______ _______ _______ _____ _____    ______ ____
ROOT
ATOM      1  N   UNL     1      -0.226  -5.335  -1.304  0.00  0.00    -0.299 N 
ATOM      2  C   UNL     1      -0.731  -5.760  -2.479  0.00  0.00    +0.302 C 
ATOM      3  O   UNL     1      -0.374  -5.239  -3.519  0.00  0.00    -0.253 OA
ATOM      4  N   UNL     1      -1.633  -6.761  -2.503  0.00  0.00    -0.283 N 
ATOM      5  C   UNL     1      -2.163  -7.320  -1.251  0.00  0.00    +0.128 C 
ATOM      6  C   UNL     1      -3.694  -7.236  -1.286  0.00  0.00    +0.127 C 
ATOM      7  N   UNL     1      -4.165  -7.789  -2.564  0.00  0.00    -0.298 N 
ATOM      8  C   UNL     1      -3.635  -7.230  -3.816  0.00  0.00    +0.127 C 
ATOM      9  C   UNL     1      -2.108  -7.311  -3.780  0.00  0.00    +0.128 C 
ATOM     10  C   UNL     1      -5.067  -8.790  -2.587  0.00  0.00    +0.219 C 
ATOM     11  O   UNL     1      -5.574  -9.174  -1.554  0.00  0.00    -0.275 OA
ATOM     12  H   UNL     1      -0.563  -5.700  -0.471  0.00  0.00    +0.150 HD
ENDROOT
BRANCH  10  13
ATOM     13  C   UNL     1      -5.445  -9.434  -3.897  0.00  0.00    +0.075 C 
ATOM     14  C   UNL     1      -6.347  -8.485  -4.689  0.00  0.00    +0.013 C 
ATOM     15  C   UNL     1      -6.731  -9.138  -6.018  0.00  0.00    +0.001 C 
ATOM     16  C   UNL     1      -7.478 -10.445  -5.747  0.00  0.00    +0.000 C 
ATOM     17  C   UNL     1      -6.576 -11.394  -4.955  0.00  0.00    +0.001 C 
ATOM     18  C   UNL     1      -6.192 -10.741  -3.625  0.00  0.00    +0.013 C 
ENDBRANCH  10  13
BRANCH   1  19
ATOM     19  C   UNL     1       0.833  -4.323  -1.286  0.00  0.00    +0.110 C 
BRANCH  19  20
ATOM     20  C   UNL     1       1.225  -4.022   0.162  0.00  0.00    +0.056 C 
BRANCH  20  27
ATOM     21  C   UNL     1       1.186   0.664   0.029  0.00  0.00    +0.001 A 
ATOM     22  C   UNL     1       2.459   1.217   0.071  0.00  0.00    +0.002 A 
ATOM     23  C   UNL     1       3.573   0.410   0.144  0.00  0.00    +0.026 A 
ATOM     24  C   UNL     1       3.424  -0.973   0.176  0.00  0.00    +0.047 A 
ATOM     25  C   UNL     1       2.132  -1.528   0.133  0.00  0.00    +0.003 A 
ATOM     26  C   UNL     1       1.017  -0.692   0.059  0.00  0.00    +0.010 A 
ATOM     27  C   UNL     1       2.314  -2.981   0.182  0.00  0.00    -0.021 A 
ATOM     28  C   UNL     1       3.636  -3.209   0.247  0.00  0.00    +0.087 A 
ATOM     29  N   UNL     1       4.315  -2.021   0.245  0.00  0.00    -0.360 N 
ATOM     30  H   UNL     1       5.279  -1.930   0.286  0.00  0.00    +0.165 HD
ENDBRANCH  20  27
ENDBRANCH  19  20
ENDBRANCH   1  19
TORSDOF 4
