REMARK  Name = ZINC36848264
REMARK  7 active torsions:
REMARK  status: ('A' for Active; 'I' for Inactive)
REMARK    1  A    between atoms: C_1  and  C_2
REMARK    2  A    between atoms: C_2  and  C_23
REMARK    3  A    between atoms: N_5  and  C_9
REMARK    4  A    between atoms: C_9  and  C_10
REMARK    5  A    between atoms: N_12  and  C_13
REMARK    6  A    between atoms: C_18  and  O_19
REMARK    7  A    between atoms: O_19  and  C_20
REMARK                            x       y       z     vdW  Elec       q    Type
REMARK                         _______ _______ _______ _____ _____    ______ ____
ROOT
ATOM      1  C   UNL     1      -0.064   1.657  -0.002  0.00  0.00    +0.047 C 
ATOM      2  C   UNL     1      -0.036   0.132   0.104  0.00  0.00    +0.136 C 
ATOM      3  C   UNL     1       0.711  -0.471  -1.069  0.00  0.00    +0.251 C 
ATOM      4  O   UNL     1       0.424  -0.382  -2.244  0.00  0.00    -0.272 OA
ATOM      5  N   UNL     1       1.762  -1.125  -0.535  0.00  0.00    -0.215 N 
ATOM      6  C   UNL     1       1.782  -1.020   0.798  0.00  0.00    +0.310 C 
ATOM      7  O   UNL     1       2.633  -1.526   1.503  0.00  0.00    -0.252 OA
ATOM      8  N   UNL     1       0.754  -0.293   1.272  0.00  0.00    -0.281 N 
ATOM      9  H   UNL     1       0.570  -0.087   2.202  0.00  0.00    +0.152 HD
ENDROOT
BRANCH   2  10
ATOM     10  C   UNL     1      -1.437  -0.419   0.183  0.00  0.00    -0.008 A 
ATOM     11  C   UNL     1      -1.828  -1.141   1.269  0.00  0.00    +0.007 A 
ATOM     12  C   UNL     1      -3.118  -1.657   1.360  0.00  0.00    +0.001 A 
ATOM     13  C   UNL     1      -4.026  -1.455   0.366  0.00  0.00    +0.008 A 
ATOM     14  C   UNL     1      -3.659  -0.715  -0.770  0.00  0.00    -0.018 A 
ATOM     15  C   UNL     1      -2.348  -0.184  -0.860  0.00  0.00    -0.012 A 
ATOM     16  C   UNL     1      -1.983   0.562  -1.994  0.00  0.00    +0.009 A 
ATOM     17  C   UNL     1      -2.892   0.769  -2.985  0.00  0.00    +0.001 A 
ATOM     18  C   UNL     1      -4.184   0.253  -2.893  0.00  0.00    +0.001 A 
ATOM     19  C   UNL     1      -4.569  -0.485  -1.817  0.00  0.00    +0.008 A 
ENDBRANCH   2  10
BRANCH   5  20
ATOM     20  C   UNL     1       2.758  -1.860  -1.318  0.00  0.00    +0.214 C 
BRANCH  20  21
ATOM     21  C   UNL     1       3.886  -0.933  -1.692  0.00  0.00    +0.235 C 
ATOM     22  O   UNL     1       3.861   0.227  -1.339  0.00  0.00    -0.274 OA
ATOM     23  N   UNL     1       4.924  -1.394  -2.418  0.00  0.00    -0.281 N 
ATOM     24  H   UNL     1       4.908  -2.299  -2.767  0.00  0.00    +0.155 HD
BRANCH  23  25
ATOM     25  C   UNL     1       6.026  -0.565  -2.670  0.00  0.00    +0.076 A 
ATOM     26  C   UNL     1       6.316   0.485  -1.812  0.00  0.00    +0.027 A 
ATOM     27  C   UNL     1       7.403   1.301  -2.062  0.00  0.00    +0.002 A 
ATOM     28  C   UNL     1       8.203   1.073  -3.167  0.00  0.00    +0.004 A 
ATOM     29  C   UNL     1       7.920   0.028  -4.026  0.00  0.00    +0.048 A 
ATOM     30  C   UNL     1       6.835  -0.798  -3.779  0.00  0.00    +0.148 A 
BRANCH  30  31
ATOM     31  O   UNL     1       6.559  -1.830  -4.621  0.00  0.00    -0.432 OA
BRANCH  31  32
ATOM     32  C   UNL     1       7.432  -2.008  -5.738  0.00  0.00    +0.541 C 
ATOM     33  F   UNL     1       7.412  -0.858  -6.534  0.00  0.00    -0.166 F 
ATOM     34  F   UNL     1       8.734  -2.235  -5.280  0.00  0.00    -0.166 F 
ENDBRANCH  31  32
ENDBRANCH  30  31
ENDBRANCH  23  25
ENDBRANCH  20  21
ENDBRANCH   5  20
TORSDOF 6
