REMARK  Name = ZINC06198121
REMARK  14 active torsions:
REMARK  status: ('A' for Active; 'I' for Inactive)
REMARK    1  A    between atoms: C_1  and  C_2
REMARK    2  A    between atoms: C_2  and  C_3
REMARK    3  A    between atoms: C_10  and  C_15
REMARK    4  A    between atoms: C_15  and  C_17
REMARK    5  A    between atoms: C_15  and  N_75
REMARK    6  A    between atoms: N_21  and  C_22
REMARK    7  A    between atoms: C_22  and  C_23
REMARK    8  A    between atoms: C_22  and  C_24
REMARK    9  A    between atoms: C_22  and  C_25
REMARK   10  A    between atoms: C_26  and  C_27
REMARK   11  A    between atoms: C_26  and  N_75
REMARK   12  A    between atoms: C_27  and  C_28
REMARK   13  A    between atoms: C_34  and  C_35
REMARK   14  A    between atoms: C_34  and  N_75
REMARK                            x       y       z     vdW  Elec       q    Type
REMARK                         _______ _______ _______ _____ _____    ______ ____
ROOT
ATOM      1  C   UNL     1      -1.056  -2.227   0.094  0.00  0.00    +0.039 C 
ENDROOT
BRANCH   1   9
ATOM      2  C   UNL     1      -6.031  -4.928  -2.404  0.00  0.00    -0.047 A 
ATOM      3  C   UNL     1      -6.976  -4.212  -1.682  0.00  0.00    +0.005 A 
ATOM      4  C   UNL     1      -6.587  -3.259  -0.765  0.00  0.00    +0.026 A 
ATOM      5  C   UNL     1      -5.234  -3.011  -0.560  0.00  0.00    +0.049 A 
ATOM      6  C   UNL     1      -4.279  -3.739  -1.294  0.00  0.00    -0.001 A 
ATOM      7  C   UNL     1      -4.697  -4.702  -2.219  0.00  0.00    +0.013 A 
ATOM      8  C   UNL     1      -2.857  -3.471  -1.070  0.00  0.00    +0.017 A 
ATOM      9  C   UNL     1      -2.511  -2.527  -0.160  0.00  0.00    +0.011 A 
ATOM     10  C   UNL     1      -3.509  -1.829   0.553  0.00  0.00    +0.251 A 
ATOM     11  O   UNL     1      -3.176  -0.987   1.370  0.00  0.00    -0.268 OA
ATOM     12  N   UNL     1      -4.817  -2.064   0.351  0.00  0.00    -0.322 N 
ATOM     13  H   UNL     1      -5.497  -1.545   0.868  0.00  0.00    +0.169 HD
BRANCH   2  15
ATOM     14  C   UNL     1      -6.606  -7.322  -2.704  0.00  0.00    +0.009 C 
ATOM     15  C   UNL     1      -6.481  -5.965  -3.400  0.00  0.00    +0.032 C 
ENDBRANCH   2  15
ENDBRANCH   1   9
BRANCH   1  16
ATOM     16  C   UNL     1      -0.689  -2.665   1.488  0.00  0.00    +0.143 A 
ATOM     17  N   UNL     1      -1.103  -2.130   2.611  0.00  0.00    -0.115 NA
ATOM     18  N   UNL     1      -0.570  -2.785   3.584  0.00  0.00    -0.023 NA
ATOM     19  N   UNL     1       0.179  -3.719   3.111  0.00  0.00    -0.043 NA
ATOM     20  N   UNL     1       0.132  -3.678   1.822  0.00  0.00    -0.225 N 
BRANCH  20  21
ATOM     21  C   UNL     1       0.840  -4.566   0.896  0.00  0.00    +0.059 C 
ATOM     22  C   UNL     1       1.801  -3.744   0.035  0.00  0.00    +0.036 C 
ATOM     23  C   UNL     1       1.631  -5.606   1.692  0.00  0.00    +0.036 C 
ATOM     24  C   UNL     1      -0.173  -5.275  -0.005  0.00  0.00    +0.036 C 
ENDBRANCH  20  21
ENDBRANCH   1  16
BRANCH   1  25
ATOM     25  N   UNL     1      -0.842  -0.769  -0.026  0.00  0.00    +0.392 N 
ATOM     26  H   UNL     1      -1.511  -0.283   0.583  0.00  0.00    -0.080 HD
BRANCH  25  27
ATOM     27  C   UNL     1       0.531  -0.424   0.397  0.00  0.00    -0.072 C 
BRANCH  27  28
ATOM     28  C   UNL     1       0.655   1.099   0.478  0.00  0.00    +0.016 C 
BRANCH  28  29
ATOM     29  C   UNL     1       2.045   1.467   0.929  0.00  0.00    -0.049 A 
ATOM     30  C   UNL     1       2.319   1.610   2.276  0.00  0.00    +0.003 A 
ATOM     31  C   UNL     1       3.595   1.942   2.691  0.00  0.00    +0.000 A 
ATOM     32  C   UNL     1       4.595   2.142   1.758  0.00  0.00    +0.000 A 
ATOM     33  C   UNL     1       4.320   2.004   0.410  0.00  0.00    +0.000 A 
ATOM     34  C   UNL     1       3.045   1.666  -0.004  0.00  0.00    +0.003 A 
ENDBRANCH  28  29
ENDBRANCH  27  28
ENDBRANCH  25  27
BRANCH  25  35
ATOM     35  C   UNL     1      -1.063  -0.339  -1.423  0.00  0.00    -0.042 C 
BRANCH  35  36
ATOM     36  C   UNL     1      -0.017  -0.932  -2.330  0.00  0.00    -0.064 A 
ATOM     37  C   UNL     1       1.171  -0.260  -2.548  0.00  0.00    +0.002 A 
ATOM     38  C   UNL     1       2.133  -0.806  -3.376  0.00  0.00    +0.000 A 
ATOM     39  C   UNL     1       1.903  -2.021  -3.996  0.00  0.00    +0.000 A 
ATOM     40  C   UNL     1       0.713  -2.691  -3.783  0.00  0.00    +0.000 A 
ATOM     41  C   UNL     1      -0.247  -2.147  -2.950  0.00  0.00    +0.002 A 
ENDBRANCH  35  36
ENDBRANCH  25  35
ENDBRANCH   1  25
TORSDOF 10
