REMARK  Name = ZINC12524618
REMARK  11 active torsions:
REMARK  status: ('A' for Active; 'I' for Inactive)
REMARK    1  A    between atoms: C_1  and  N_2
REMARK    2  A    between atoms: N_2  and  C_3
REMARK    3  A    between atoms: N_2  and  C_4
REMARK    4  A    between atoms: C_7  and  C_10
REMARK    5  A    between atoms: C_20  and  C_22
REMARK    6  A    between atoms: C_25  and  N_28
REMARK    7  A    between atoms: N_28  and  C_29
REMARK    8  A    between atoms: N_28  and  C_30
REMARK    9  A    between atoms: C_31  and  C_33
REMARK   10  A    between atoms: C_33  and  O_34
REMARK   11  A    between atoms: O_34  and  C_35
REMARK                            x       y       z     vdW  Elec       q    Type
REMARK                         _______ _______ _______ _____ _____    ______ ____
ROOT
ATOM      1  C   UNL     1       0.905  -2.373  -0.195  0.00  0.00    +0.013 C 
ATOM      2  C   UNL     1       1.945  -3.216  -0.367  0.00  0.00    -0.024 C 
ATOM      3  C   UNL     1       3.308  -2.659  -0.645  0.00  0.00    +0.037 C 
ATOM      4  C   UNL     1       4.353  -3.706  -0.973  0.00  0.00    +0.005 C 
ATOM      5  C   UNL     1       4.135  -5.031  -0.245  0.00  0.00    +0.012 C 
ATOM      6  C   UNL     1       2.800  -5.615  -0.708  0.00  0.00    +0.066 C 
ATOM      7  C   UNL     1       1.734  -4.611  -0.275  0.00  0.00    +0.068 C 
ATOM      8  N   UNL     1       0.715  -5.270   0.154  0.00  0.00    -0.181 NA
ATOM      9  N   UNL     1       0.960  -6.640   0.309  0.00  0.00    -0.182 N 
ATOM     10  C   UNL     1       2.409  -6.864   0.100  0.00  0.00    +0.140 C 
ATOM     11  C   UNL     1       0.042  -7.584   0.596  0.00  0.00    +0.273 C 
ATOM     12  O   UNL     1       0.379  -8.744   0.705  0.00  0.00    -0.270 OA
ENDROOT
BRANCH   1  16
ATOM     13  C   UNL     1       1.576   1.812   0.014  0.00  0.00    +0.029 A 
ATOM     14  C   UNL     1       0.509   1.316  -0.730  0.00  0.00    +0.023 A 
ATOM     15  C   UNL     1       0.288  -0.041  -0.801  0.00  0.00    +0.010 A 
ATOM     16  C   UNL     1       1.138  -0.922  -0.123  0.00  0.00    -0.025 A 
ATOM     17  C   UNL     1       2.209  -0.420   0.624  0.00  0.00    +0.010 A 
ATOM     18  C   UNL     1       2.423   0.939   0.689  0.00  0.00    +0.023 A 
BRANCH  13  20
ATOM     19  C   UNL     1       0.839   4.113  -0.527  0.00  0.00    +0.129 C 
ATOM     20  N   UNL     1       1.796   3.187   0.083  0.00  0.00    -0.336 N 
ATOM     21  C   UNL     1       2.985   3.705   0.764  0.00  0.00    +0.129 C 
ENDBRANCH  13  20
ENDBRANCH   1  16
BRANCH  10  22
ATOM     22  C   UNL     1       2.653  -8.121  -0.696  0.00  0.00    -0.024 A 
ATOM     23  C   UNL     1       1.735  -8.522  -1.650  0.00  0.00    +0.007 A 
ATOM     24  C   UNL     1       1.958  -9.670  -2.385  0.00  0.00    +0.023 A 
ATOM     25  C   UNL     1       3.100 -10.427  -2.157  0.00  0.00    +0.029 A 
ATOM     26  C   UNL     1       4.017 -10.024  -1.195  0.00  0.00    +0.023 A 
ATOM     27  C   UNL     1       3.791  -8.872  -0.467  0.00  0.00    +0.007 A 
BRANCH  25  28
ATOM     28  N   UNL     1       3.327 -11.591  -2.895  0.00  0.00    -0.336 N 
ATOM     29  C   UNL     1       4.532 -12.389  -2.654  0.00  0.00    +0.129 C 
ATOM     30  C   UNL     1       2.359 -12.015  -3.910  0.00  0.00    +0.129 C 
ENDBRANCH  25  28
ENDBRANCH  10  22
BRANCH  11  31
ATOM     31  C   UNL     1      -1.403  -7.199   0.781  0.00  0.00    +0.326 C 
BRANCH  31  32
ATOM     32  O   UNL     1      -2.173  -8.366   1.075  0.00  0.00    -0.480 OA
BRANCH  32  33
ATOM     33  C   UNL     1      -3.507  -8.192   1.272  0.00  0.00    +0.156 A 
ATOM     34  C   UNL     1      -4.062  -6.924   1.184  0.00  0.00    +0.048 A 
ATOM     35  C   UNL     1      -5.419  -6.750   1.384  0.00  0.00    +0.004 A 
ATOM     36  C   UNL     1      -6.223  -7.837   1.671  0.00  0.00    +0.003 A 
ATOM     37  C   UNL     1      -5.673  -9.102   1.760  0.00  0.00    +0.042 A 
ATOM     38  C   UNL     1      -4.317  -9.284   1.556  0.00  0.00    +0.165 A 
ATOM     39  F   UNL     1      -3.780 -10.521   1.638  0.00  0.00    -0.202 F 
ENDBRANCH  32  33
ENDBRANCH  31  32
ENDBRANCH  11  31
TORSDOF 7
