REMARK  Name = ZINC00921395
REMARK  3 active torsions:
REMARK  status: ('A' for Active; 'I' for Inactive)
REMARK    1  A    between atoms: C_3  and  O_27
REMARK    2  A    between atoms: C_6  and  C_7
REMARK    3  A    between atoms: O_27  and  C_28
REMARK                            x       y       z     vdW  Elec       q    Type
REMARK                         _______ _______ _______ _____ _____    ______ ____
ROOT
ATOM      1  C   UNL     1       3.833   1.851  -0.522  0.00  0.00    +0.092 C 
ATOM      2  C   UNL     1       4.734   1.176  -1.515  0.00  0.00    +0.067 A 
ATOM      3  C   UNL     1       4.395  -0.024  -2.064  0.00  0.00    +0.113 A 
ATOM      4  N   UNL     1       5.242  -0.621  -2.966  0.00  0.00    -0.295 N 
ATOM      5  H   UNL     1       4.997  -1.502  -3.371  0.00  0.00    +0.172 HD
ATOM      6  C   UNL     1       6.401  -0.026  -3.307  0.00  0.00    +0.328 A 
ATOM      7  O   UNL     1       7.140  -0.568  -4.105  0.00  0.00    -0.247 OA
ATOM      8  N   UNL     1       6.751   1.160  -2.777  0.00  0.00    -0.275 N 
ATOM      9  H   UNL     1       7.616   1.586  -3.045  0.00  0.00    +0.173 HD
ATOM     10  C   UNL     1       5.948   1.779  -1.890  0.00  0.00    +0.260 A 
ATOM     11  O   UNL     1       6.272   2.854  -1.415  0.00  0.00    -0.267 OA
ATOM     12  N   UNL     1       3.212  -0.629  -1.722  0.00  0.00    -0.303 N 
ATOM     13  C   UNL     1       2.193   0.095  -1.163  0.00  0.00    +0.017 C 
ATOM     14  C   UNL     1       2.437   1.287  -0.579  0.00  0.00    +0.024 C 
ATOM     15  C   UNL     1       1.397   2.037  -0.000  0.00  0.00    +0.162 C 
ATOM     16  O   UNL     1       1.646   3.115   0.500  0.00  0.00    -0.292 OA
ATOM     17  C   UNL     1      -0.019   1.528   0.010  0.00  0.00    +0.080 C 
ATOM     18  C   UNL     1       0.002  -0.004   0.002  0.00  0.00    +0.014 C 
ATOM     19  C   UNL     1       0.796  -0.471  -1.220  0.00  0.00    +0.051 C 
ATOM     20  H   UNL     1       3.096  -1.580  -1.877  0.00  0.00    +0.153 HD
ENDROOT
BRANCH   1  26
ATOM     21  C   UNL     1       4.514   0.376   1.381  0.00  0.00    +0.008 A 
ATOM     22  C   UNL     1       5.030   0.191   2.649  0.00  0.00    +0.046 A 
ATOM     23  C   UNL     1       5.414   1.287   3.408  0.00  0.00    +0.127 A 
ATOM     24  C   UNL     1       5.284   2.567   2.888  0.00  0.00    +0.046 A 
ATOM     25  C   UNL     1       4.773   2.747   1.617  0.00  0.00    +0.008 A 
ATOM     26  C   UNL     1       4.391   1.652   0.864  0.00  0.00    -0.035 A 
BRANCH  23  27
ATOM     27  O   UNL     1       5.916   1.108   4.658  0.00  0.00    -0.434 OA
BRANCH  27  28
ATOM     28  C   UNL     1       6.021  -0.238   5.128  0.00  0.00    +0.541 C 
ATOM     29  F   UNL     1       4.751  -0.826   5.144  0.00  0.00    -0.166 F 
ATOM     30  F   UNL     1       6.861  -0.965   4.278  0.00  0.00    -0.166 F 
ENDBRANCH  27  28
ENDBRANCH  23  27
ENDBRANCH   1  26
TORSDOF 3
