REMARK  Name = ZINC08762743
REMARK  12 active torsions:
REMARK  status: ('A' for Active; 'I' for Inactive)
REMARK    1  A    between atoms: C_1  and  N_60
REMARK    2  A    between atoms: C_8  and  O_30
REMARK    3  A    between atoms: C_10  and  C_12
REMARK    4  A    between atoms: C_12  and  C_13
REMARK    5  A    between atoms: C_13  and  C_16
REMARK    6  A    between atoms: N_14  and  O_15
REMARK    7  A    between atoms: C_17  and  O_29
REMARK    8  A    between atoms: C_18  and  O_27
REMARK    9  A    between atoms: C_21  and  O_22
REMARK   10  A    between atoms: O_22  and  C_23
REMARK   11  A    between atoms: O_27  and  C_28
REMARK   12  A    between atoms: O_30  and  C_31
REMARK                            x       y       z     vdW  Elec       q    Type
REMARK                         _______ _______ _______ _____ _____    ______ ____
ROOT
ATOM      1  C   UNL     1      -2.099   1.339  -1.462  0.00  0.00    +0.093 C 
ATOM      2  N   UNL     1      -1.181   0.429  -1.381  0.00  0.00    -0.091 NA
ENDROOT
BRANCH   1   3
ATOM      3  C   UNL     1      -2.474   1.891  -2.775  0.00  0.00    +0.087 A 
ATOM      4  C   UNL     1      -3.501   1.291  -3.524  0.00  0.00    +0.175 A 
ATOM      5  C   UNL     1      -3.860   1.804  -4.757  0.00  0.00    +0.205 A 
ATOM      6  C   UNL     1      -3.204   2.924  -5.268  0.00  0.00    +0.183 A 
ATOM      7  C   UNL     1      -2.177   3.527  -4.524  0.00  0.00    +0.066 A 
ATOM      8  C   UNL     1      -1.814   3.017  -3.276  0.00  0.00    +0.144 A 
ATOM      9  C   UNL     1      -1.713   4.657  -5.340  0.00  0.00    +0.053 A 
ATOM     10  C   UNL     1      -2.458   4.645  -6.453  0.00  0.00    +0.196 A 
ATOM     11  O   UNL     1      -3.336   3.626  -6.412  0.00  0.00    -0.459 OA
BRANCH   8  12
ATOM     12  O   UNL     1      -0.825   3.606  -2.557  0.00  0.00    -0.494 OA
ATOM     13  C   UNL     1       0.506   3.134  -2.777  0.00  0.00    +0.277 C 
ENDBRANCH   8  12
BRANCH   5  14
ATOM     14  O   UNL     1      -4.856   1.215  -5.473  0.00  0.00    -0.488 OA
ATOM     15  C   UNL     1      -6.185   1.692  -5.252  0.00  0.00    +0.277 C 
ENDBRANCH   5  14
BRANCH   4  16
ATOM     16  O   UNL     1      -4.146   0.200  -3.033  0.00  0.00    -0.503 OA
ATOM     17  H   UNL     1      -4.925   0.411  -2.500  0.00  0.00    +0.292 HD
ENDBRANCH   4  16
ENDBRANCH   1   3
BRANCH   2  18
ATOM     18  O   UNL     1      -0.539  -0.036  -2.554  0.00  0.00    -0.409 OA
ATOM     19  H   UNL     1       0.130  -0.715  -2.394  0.00  0.00    +0.328 HD
ENDBRANCH   2  18
BRANCH   1  20
ATOM     20  C   UNL     1      -2.782   1.834  -0.213  0.00  0.00    +0.049 C 
BRANCH  20  30
ATOM     21  C   UNL     1      -3.844  -0.549   1.069  0.00  0.00    -0.095 C 
ATOM     22  C   UNL     1      -1.661  -0.949   2.045  0.00  0.00    -0.074 C 
ATOM     23  C   UNL     1      -0.174  -0.933   1.691  0.00  0.00    +0.017 C 
ATOM     24  C   UNL     1       0.254   0.467   1.330  0.00  0.00    -0.040 A 
ATOM     25  C   UNL     1       1.609   0.761   1.324  0.00  0.00    +0.053 A 
ATOM     26  C   UNL     1       2.052   2.031   0.996  0.00  0.00    +0.170 A 
ATOM     27  C   UNL     1       1.129   3.019   0.669  0.00  0.00    +0.208 A 
ATOM     28  C   UNL     1      -0.226   2.722   0.677  0.00  0.00    +0.167 A 
ATOM     29  C   UNL     1      -0.664   1.444   1.010  0.00  0.00    -0.012 A 
ATOM     30  C   UNL     1      -2.146   1.173   1.012  0.00  0.00    -0.028 C 
ATOM     31  O   UNL     1       1.805   4.172   0.386  0.00  0.00    -0.449 OA
ATOM     32  C   UNL     1       3.166   3.769   0.146  0.00  0.00    +0.467 C 
ATOM     33  O   UNL     1       3.307   2.563   0.919  0.00  0.00    -0.452 OA
ATOM     34  N   UNL     1      -2.393  -0.277   0.952  0.00  0.00    +0.383 N 
ATOM     35  H   UNL     1      -2.057  -0.638   0.052  0.00  0.00    -0.081 HD
BRANCH  28  36
ATOM     36  O   UNL     1      -1.131   3.685   0.357  0.00  0.00    -0.491 OA
ATOM     37  C   UNL     1      -1.534   4.570   1.405  0.00  0.00    +0.277 C 
ENDBRANCH  28  36
ENDBRANCH  20  30
ENDBRANCH   1  20
TORSDOF 8
