REMARK  Name = ZINC02725351
REMARK  3 active torsions:
REMARK  status: ('A' for Active; 'I' for Inactive)
REMARK    1  A    between atoms: C_4  and  N_8
REMARK    2  A    between atoms: N_11  and  C_12
REMARK    3  A    between atoms: C_12  and  C_22
REMARK                            x       y       z     vdW  Elec       q    Type
REMARK                         _______ _______ _______ _____ _____    ______ ____
ROOT
ATOM      1  N   UNL     1      -2.602   2.498  -3.988  0.00  0.00    -0.265 N 
ATOM      2  C   UNL     1      -3.053   3.535  -3.256  0.00  0.00    +0.310 C 
ATOM      3  O   UNL     1      -2.449   4.591  -3.260  0.00  0.00    -0.252 OA
ATOM      4  N   UNL     1      -4.174   3.403  -2.519  0.00  0.00    -0.220 N 
ATOM      5  H   UNL     1      -3.040   1.635  -3.928  0.00  0.00    +0.157 HD
ATOM      6  H   UNL     1      -4.655   2.562  -2.516  0.00  0.00    +0.158 HD
ENDROOT
BRANCH   4   7
ATOM      7  C   UNL     1      -4.664   4.531  -1.723  0.00  0.00    +0.436 C 
ATOM      8  O   UNL     1      -3.671   4.945  -0.766  0.00  0.00    -0.426 OA
ATOM      9  C   UNL     1      -2.941   5.912  -1.394  0.00  0.00    +0.169 A 
ATOM     10  C   UNL     1      -1.694   6.449  -1.114  0.00  0.00    +0.051 A 
ATOM     11  C   UNL     1      -1.167   7.435  -1.927  0.00  0.00    +0.024 A 
ATOM     12  C   UNL     1      -1.884   7.893  -3.018  0.00  0.00    +0.045 A 
ATOM     13  C   UNL     1      -3.132   7.366  -3.300  0.00  0.00    +0.069 A 
ATOM     14  C   UNL     1      -3.665   6.377  -2.489  0.00  0.00    +0.170 A 
ATOM     15  O   UNL     1      -4.851   5.703  -2.546  0.00  0.00    -0.426 OA
ATOM     16 CL   UNL     1      -1.217   9.132  -4.035  0.00  0.00    -0.083 Cl
BRANCH   7  17
ATOM     17  C   UNL     1      -5.970   4.162  -1.017  0.00  0.00    +0.490 C 
ATOM     18  F   UNL     1      -6.443   5.267  -0.303  0.00  0.00    -0.162 F 
ATOM     19  F   UNL     1      -6.922   3.779  -1.968  0.00  0.00    -0.162 F 
ATOM     20  F   UNL     1      -5.739   3.100  -0.136  0.00  0.00    -0.162 F 
ENDBRANCH   7  17
ENDBRANCH   4   7
BRANCH   1  24
ATOM     21  C   UNL     1       0.682   2.996  -6.512  0.00  0.00    +0.006 A 
ATOM     22  C   UNL     1       0.873   2.581  -5.207  0.00  0.00    +0.040 A 
ATOM     23  C   UNL     1      -0.214   2.415  -4.367  0.00  0.00    +0.147 A 
ATOM     24  C   UNL     1      -1.498   2.666  -4.836  0.00  0.00    +0.106 A 
ATOM     25  C   UNL     1      -1.685   3.078  -6.150  0.00  0.00    +0.147 A 
ATOM     26  C   UNL     1      -0.593   3.247  -6.983  0.00  0.00    +0.040 A 
ATOM     27  F   UNL     1      -2.932   3.318  -6.612  0.00  0.00    -0.203 F 
ATOM     28  F   UNL     1      -0.027   2.009  -3.092  0.00  0.00    -0.203 F 
ENDBRANCH   1  24
TORSDOF 3
