REMARK  Name = ZINC39688218
REMARK  7 active torsions:
REMARK  status: ('A' for Active; 'I' for Inactive)
REMARK    1  A    between atoms: C_6  and  C_7
REMARK    2  A    between atoms: C_7  and  C_8
REMARK    3  A    between atoms: C_12  and  C_21
REMARK    4  A    between atoms: N_23  and  C_24
REMARK    5  A    between atoms: C_24  and  C_25
REMARK    6  A    between atoms: C_25  and  O_26
REMARK    7  A    between atoms: O_26  and  C_27
REMARK                            x       y       z     vdW  Elec       q    Type
REMARK                         _______ _______ _______ _____ _____    ______ ____
ROOT
ATOM      1  C   UNL     1      -1.739  -1.063  -1.567  0.00  0.00    +0.220 C 
ATOM      2  O   UNL     1      -1.120  -0.620  -2.511  0.00  0.00    -0.275 OA
ATOM      3  N   UNL     1      -2.902  -1.713  -1.769  0.00  0.00    -0.300 N 
ATOM      4  C   UNL     1      -3.796  -2.313  -0.751  0.00  0.00    +0.121 C 
ATOM      5  C   UNL     1      -5.224  -1.993  -1.248  0.00  0.00    +0.100 C 
ATOM      6  C   UNL     1      -5.074  -1.784  -2.764  0.00  0.00    -0.004 C 
ATOM      7  C   UNL     1      -3.580  -1.983  -3.060  0.00  0.00    +0.115 C 
ATOM      8  C   UNL     1      -5.906  -2.811  -3.525  0.00  0.00    -0.010 C 
ATOM      9  C   UNL     1      -5.786  -2.546  -5.029  0.00  0.00    -0.082 C 
ATOM     10  N   UNL     1      -6.257  -1.188  -5.327  0.00  0.00    +0.379 N 
ATOM     11  C   UNL     1      -5.394  -0.202  -4.665  0.00  0.00    -0.082 C 
ATOM     12  C   UNL     1      -5.497  -0.368  -3.147  0.00  0.00    -0.010 C 
ATOM     13  H   UNL     1      -6.234  -1.037  -6.324  0.00  0.00    -0.086 HD
ATOM     14  H   UNL     1      -7.204  -1.081  -4.995  0.00  0.00    -0.086 HD
ENDROOT
BRANCH   5  15
ATOM     15  C   UNL     1      -6.149  -3.149  -0.966  0.00  0.00    +0.218 C 
ATOM     16  O   UNL     1      -5.718  -4.282  -0.955  0.00  0.00    -0.275 OA
ATOM     17  N   UNL     1      -7.456  -2.923  -0.724  0.00  0.00    -0.312 N 
ATOM     18  H   UNL     1      -7.801  -2.016  -0.733  0.00  0.00    +0.149 HD
BRANCH  17  19
ATOM     19  C   UNL     1      -8.355  -4.046  -0.449  0.00  0.00    +0.145 C 
BRANCH  19  20
ATOM     20  C   UNL     1      -9.771  -3.519  -0.211  0.00  0.00    +0.247 C 
BRANCH  20  21
ATOM     21  O   UNL     1     -10.266  -2.924  -1.413  0.00  0.00    -0.490 OA
BRANCH  21  22
ATOM     22  C   UNL     1     -11.521  -2.403  -1.372  0.00  0.00    +0.121 A 
ATOM     23  C   UNL     1     -12.258  -2.458  -0.198  0.00  0.00    +0.048 A 
ATOM     24  C   UNL     1     -13.533  -1.929  -0.158  0.00  0.00    +0.042 A 
ATOM     25  C   UNL     1     -14.076  -1.343  -1.290  0.00  0.00    +0.124 A 
ATOM     26  C   UNL     1     -13.341  -1.288  -2.462  0.00  0.00    +0.042 A 
ATOM     27  C   UNL     1     -12.064  -1.811  -2.503  0.00  0.00    +0.048 A 
ATOM     28  F   UNL     1     -15.323  -0.826  -1.249  0.00  0.00    -0.205 F 
ENDBRANCH  21  22
ENDBRANCH  20  21
ENDBRANCH  19  20
ENDBRANCH  17  19
ENDBRANCH   5  15
BRANCH   1  29
ATOM     29  C   UNL     1      -1.207  -0.887  -0.168  0.00  0.00    +0.131 C 
BRANCH  29  35
ATOM     30  C   UNL     1       0.100   1.247  -0.144  0.00  0.00    +0.005 A 
ATOM     31  C   UNL     1       1.296   1.939  -0.189  0.00  0.00    +0.020 A 
ATOM     32  C   UNL     1       2.490   1.249  -0.306  0.00  0.00    +0.041 A 
ATOM     33  C   UNL     1       2.486  -0.133  -0.380  0.00  0.00    +0.020 A 
ATOM     34  C   UNL     1       1.289  -0.823  -0.335  0.00  0.00    +0.005 A 
ATOM     35  C   UNL     1       0.097  -0.134  -0.217  0.00  0.00    -0.039 A 
ATOM     36 CL   UNL     1       3.992   2.117  -0.363  0.00  0.00    -0.084 Cl
ENDBRANCH  29  35
ENDBRANCH   1  29
TORSDOF 7
