REMARK  Name = ZINC64155910
REMARK  9 active torsions:
REMARK  status: ('A' for Active; 'I' for Inactive)
REMARK    1  A    between atoms: C_1  and  S_2
REMARK    2  A    between atoms: S_2  and  C_3
REMARK    3  A    between atoms: C_3  and  C_4
REMARK    4  A    between atoms: N_13  and  C_14
REMARK    5  A    between atoms: C_14  and  C_15
REMARK    6  A    between atoms: N_17  and  C_18
REMARK    7  A    between atoms: C_18  and  C_19
REMARK    8  A    between atoms: C_19  and  C_21
REMARK    9  A    between atoms: C_19  and  C_27
REMARK                            x       y       z     vdW  Elec       q    Type
REMARK                         _______ _______ _______ _____ _____    ______ ____
ROOT
ATOM      1  C   UNL     1       3.073  -1.053   0.828  0.00  0.00    +0.230 C 
ATOM      2  O   UNL     1       2.033  -0.513   1.142  0.00  0.00    -0.274 OA
ATOM      3  N   UNL     1       4.242  -0.607   1.328  0.00  0.00    -0.313 N 
ATOM      4  H   UNL     1       5.073  -1.040   1.078  0.00  0.00    +0.149 HD
ENDROOT
BRANCH   1   5
ATOM      5  C   UNL     1       3.057  -2.225  -0.120  0.00  0.00    +0.202 C 
BRANCH   5  14
ATOM      6  C   UNL     1       0.966  -1.944  -1.668  0.00  0.00    +0.169 C 
ATOM      7  N   UNL     1      -0.377  -2.537  -1.644  0.00  0.00    -0.324 N 
ATOM      8  C   UNL     1      -0.432  -3.398  -0.538  0.00  0.00    +0.050 A 
ATOM      9  C   UNL     1      -1.468  -4.197  -0.068  0.00  0.00    +0.025 A 
ATOM     10  C   UNL     1      -1.287  -4.973   1.060  0.00  0.00    +0.002 A 
ATOM     11  C   UNL     1      -0.076  -4.959   1.726  0.00  0.00    +0.002 A 
ATOM     12  C   UNL     1       0.959  -4.168   1.266  0.00  0.00    +0.025 A 
ATOM     13  C   UNL     1       0.787  -3.383   0.132  0.00  0.00    +0.053 A 
ATOM     14  N   UNL     1       1.676  -2.513  -0.517  0.00  0.00    -0.301 N 
ATOM     15  H   UNL     1      -1.093  -2.365  -2.275  0.00  0.00    +0.148 HD
BRANCH   6  16
ATOM     16  C   UNL     1       0.873  -0.423  -1.533  0.00  0.00    +0.111 C 
BRANCH  16  18
ATOM     17  C   UNL     1      -0.022   1.810   0.012  0.00  0.00    +0.084 C 
ATOM     18  S   UNL     1       0.002  -0.004   0.002  0.00  0.00    -0.161 S 
ENDBRANCH  16  18
ENDBRANCH   6  16
ENDBRANCH   5  14
ENDBRANCH   1   5
BRANCH   3  19
ATOM     19  C   UNL     1       4.258   0.532   2.250  0.00  0.00    +0.116 C 
BRANCH  19  20
ATOM     20  C   UNL     1       5.699   0.833   2.664  0.00  0.00    +0.064 C 
BRANCH  20  21
ATOM     21  C   UNL     1       5.705   1.922   3.705  0.00  0.00    -0.033 C 
ATOM     22  C   UNL     1       6.194   1.841   4.964  0.00  0.00    -0.000 A 
ATOM     23  C   UNL     1       6.839   0.756   5.713  0.00  0.00    +0.010 A 
ATOM     24  C   UNL     1       7.227   0.980   6.989  0.00  0.00    +0.001 A 
ATOM     25  C   UNL     1       7.030   2.219   7.613  0.00  0.00    +0.002 A 
ATOM     26  C   UNL     1       6.445   3.264   6.990  0.00  0.00    +0.026 A 
ATOM     27  C   UNL     1       5.997   3.141   5.646  0.00  0.00    +0.043 A 
ATOM     28  N   UNL     1       5.410   3.992   4.840  0.00  0.00    -0.380 N 
ATOM     29  C   UNL     1       5.173   3.329   3.552  0.00  0.00    +0.145 C 
ATOM     30  H   UNL     1       5.175   4.908   5.057  0.00  0.00    +0.160 HD
ENDBRANCH  20  21
BRANCH  20  31
ATOM     31  C   UNL     1       6.484   1.284   1.460  0.00  0.00    -0.039 A 
ATOM     32  C   UNL     1       6.098   2.416   0.767  0.00  0.00    +0.004 A 
ATOM     33  C   UNL     1       6.818   2.830  -0.337  0.00  0.00    +0.000 A 
ATOM     34  C   UNL     1       7.926   2.112  -0.749  0.00  0.00    +0.000 A 
ATOM     35  C   UNL     1       8.313   0.981  -0.056  0.00  0.00    +0.000 A 
ATOM     36  C   UNL     1       7.595   0.569   1.051  0.00  0.00    +0.004 A 
ENDBRANCH  20  31
ENDBRANCH  19  20
ENDBRANCH   3  19
TORSDOF 8
