REMARK  Name = ZINC23281950
REMARK  9 active torsions:
REMARK  status: ('A' for Active; 'I' for Inactive)
REMARK    1  A    between atoms: C_1  and  C_2
REMARK    2  A    between atoms: C_2  and  C_4
REMARK    3  A    between atoms: C_2  and  N_14
REMARK    4  A    between atoms: C_15  and  C_17
REMARK    5  A    between atoms: C_17  and  C_19
REMARK    6  A    between atoms: C_17  and  S_20
REMARK    7  A    between atoms: S_20  and  C_21
REMARK    8  A    between atoms: C_24  and  C_27
REMARK    9  A    between atoms: N_25  and  N_26
REMARK                            x       y       z     vdW  Elec       q    Type
REMARK                         _______ _______ _______ _____ _____    ______ ____
ROOT
ATOM      1  N   UNL     1      -3.052  -2.304  -0.741  0.00  0.00    -0.308 N 
ATOM      2  C   UNL     1      -2.141  -1.824  -1.612  0.00  0.00    +0.227 C 
ATOM      3  O   UNL     1      -1.602  -2.573  -2.399  0.00  0.00    -0.275 OA
ATOM      4  H   UNL     1      -3.540  -1.625  -0.027  0.00  0.00    +0.149 HD
ENDROOT
BRANCH   1   6
ATOM      5  C   UNL     1      -3.869  -4.144   0.647  0.00  0.00    +0.033 C 
ATOM      6  C   UNL     1      -3.390  -3.729  -0.746  0.00  0.00    +0.101 C 
BRANCH   6   7
ATOM      7  C   UNL     1      -4.485  -3.982  -1.750  0.00  0.00    -0.020 A 
ATOM      8  C   UNL     1      -5.298  -2.964  -2.147  0.00  0.00    +0.006 A 
ATOM      9  C   UNL     1      -6.313  -3.178  -3.077  0.00  0.00    +0.001 A 
ATOM     10  C   UNL     1      -6.527  -4.412  -3.609  0.00  0.00    +0.008 A 
ATOM     11  C   UNL     1      -5.712  -5.488  -3.220  0.00  0.00    -0.018 A 
ATOM     12  C   UNL     1      -4.677  -5.270  -2.277  0.00  0.00    -0.013 A 
ATOM     13  C   UNL     1      -3.861  -6.346  -1.888  0.00  0.00    +0.009 A 
ATOM     14  C   UNL     1      -4.075  -7.580  -2.420  0.00  0.00    +0.001 A 
ATOM     15  C   UNL     1      -5.094  -7.795  -3.348  0.00  0.00    +0.001 A 
ATOM     16  C   UNL     1      -5.903  -6.777  -3.748  0.00  0.00    +0.008 A 
ENDBRANCH   6   7
ENDBRANCH   1   6
BRANCH   2  17
ATOM     17  C   UNL     1      -1.793  -0.358  -1.607  0.00  0.00    +0.137 C 
ATOM     18  C   UNL     1      -0.712  -0.094  -0.557  0.00  0.00    +0.029 C 
BRANCH  17  19
ATOM     19  S   UNL     1      -1.178   0.122  -3.240  0.00  0.00    -0.072 S 
BRANCH  19  20
ATOM     20  C   UNL     1      -0.999   1.858  -3.002  0.00  0.00    +0.209 A 
ATOM     21  N   UNL     1      -1.270   2.528  -1.905  0.00  0.00    -0.121 NA
ATOM     22  N   UNL     1      -1.020   3.776  -2.083  0.00  0.00    -0.123 NA
ATOM     23  C   UNL     1      -0.587   3.977  -3.295  0.00  0.00    +0.255 A 
ATOM     24  N   UNL     1      -0.558   2.763  -3.924  0.00  0.00    -0.220 N 
BRANCH  23  25
ATOM     25  C   UNL     1      -0.190   5.303  -3.893  0.00  0.00    +0.454 C 
ATOM     26  F   UNL     1      -0.027   6.245  -2.872  0.00  0.00    -0.163 F 
ATOM     27  F   UNL     1       1.014   5.158  -4.591  0.00  0.00    -0.163 F 
ATOM     28  F   UNL     1      -1.189   5.735  -4.772  0.00  0.00    -0.163 F 
ENDBRANCH  23  25
BRANCH  24  29
ATOM     29  N   UNL     1      -0.167   2.509  -5.208  0.00  0.00    -0.295 N 
ATOM     30  H   UNL     1       0.170   3.332  -5.854  0.00  0.00    +0.163 HD
ATOM     31  H   UNL     1      -0.190   1.480  -5.596  0.00  0.00    +0.163 HD
ENDBRANCH  24  29
ENDBRANCH  19  20
ENDBRANCH  17  19
ENDBRANCH   2  17
TORSDOF 7
