REMARK  Name = ZINC09485807
REMARK  4 active torsions:
REMARK  status: ('A' for Active; 'I' for Inactive)
REMARK    1  A    between atoms: C_7  and  O_29
REMARK    2  A    between atoms: C_9  and  C_15
REMARK    3  A    between atoms: C_15  and  C_16
REMARK    4  A    between atoms: C_19  and  C_21
REMARK                            x       y       z     vdW  Elec       q    Type
REMARK                         _______ _______ _______ _____ _____    ______ ____
ROOT
ATOM      1  C   UNL     1      10.537   6.295   1.707  0.00  0.00    +0.000 A 
ATOM      2  C   UNL     1      10.358   7.091   0.590  0.00  0.00    +0.002 A 
ATOM      3  C   UNL     1       9.084   7.491   0.238  0.00  0.00    +0.029 A 
ATOM      4  C   UNL     1       7.995   7.098   0.996  0.00  0.00    +0.111 A 
ATOM      5  C   UNL     1       8.165   6.323   2.123  0.00  0.00    +0.009 A 
ATOM      6  C   UNL     1       9.452   5.916   2.467  0.00  0.00    +0.008 A 
ATOM      7  C   UNL     1       7.042   5.888   3.018  0.00  0.00    +0.165 C 
ATOM      8  C   UNL     1       5.698   5.785   2.315  0.00  0.00    +0.117 C 
ATOM      9  N   UNL     1       5.368   7.090   1.709  0.00  0.00    -0.184 NA
ATOM     10  S   UNL     1       6.376   7.584   0.477  0.00  0.00    +0.059 S 
ATOM     11  O   UNL     1       6.353   9.004   0.466  0.00  0.00    -0.153 OA
ATOM     12  O   UNL     1       6.053   6.799  -0.663  0.00  0.00    -0.153 OA
ATOM     13  H   UNL     1       4.615   7.624   2.008  0.00  0.00    +0.148 HD
ENDROOT
BRANCH   7  14
ATOM     14  O   UNL     1       6.925   6.825   4.090  0.00  0.00    -0.386 OA
ATOM     15  H   UNL     1       7.741   6.952   4.593  0.00  0.00    +0.210 HD
ENDBRANCH   7  14
BRANCH   8  16
ATOM     16  C   UNL     1       5.774   4.718   1.221  0.00  0.00    +0.097 C 
BRANCH  16  17
ATOM     17  C   UNL     1       4.398   4.483   0.653  0.00  0.00    +0.107 A 
ATOM     18  C   UNL     1       3.901   5.050  -0.464  0.00  0.00    +0.045 A 
ATOM     19  C   UNL     1       2.593   4.554  -0.632  0.00  0.00    +0.050 A 
ATOM     20  C   UNL     1       2.357   3.710   0.408  0.00  0.00    +0.137 A 
ATOM     21  O   UNL     1       3.462   3.674   1.177  0.00  0.00    -0.460 OA
BRANCH  20  22
ATOM     22  C   UNL     1       1.108   2.958   0.648  0.00  0.00    +0.036 A 
ATOM     23  C   UNL     1      -0.123   3.617   0.625  0.00  0.00    +0.014 A 
ATOM     24  C   UNL     1      -1.285   2.910   0.849  0.00  0.00    +0.021 A 
ATOM     25  C   UNL     1      -1.235   1.547   1.093  0.00  0.00    +0.042 A 
ATOM     26  C   UNL     1      -0.018   0.888   1.123  0.00  0.00    +0.040 A 
ATOM     27  C   UNL     1       1.153   1.585   0.900  0.00  0.00    +0.053 A 
ATOM     28 CL   UNL     1       2.678   0.756   0.930  0.00  0.00    -0.083 Cl
ATOM     29 CL   UNL     1      -2.703   0.663   1.368  0.00  0.00    -0.083 Cl
ENDBRANCH  20  22
ENDBRANCH  16  17
ENDBRANCH   8  16
TORSDOF 4
