REMARK  Name = ZINC47873269
REMARK  5 active torsions:
REMARK  status: ('A' for Active; 'I' for Inactive)
REMARK    1  A    between atoms: C_1  and  C_2
REMARK    2  A    between atoms: C_2  and  C_4
REMARK    3  A    between atoms: C_2  and  N_11
REMARK    4  A    between atoms: N_11  and  C_12
REMARK    5  A    between atoms: C_15  and  N_19
REMARK                            x       y       z     vdW  Elec       q    Type
REMARK                         _______ _______ _______ _____ _____    ______ ____
ROOT
ATOM      1  N   UNL     1      -1.372  -0.511   0.012  0.00  0.00    -0.335 N 
ATOM      2  H   UNL     1      -1.794  -0.752   0.852  0.00  0.00    +0.147 HD
ENDROOT
BRANCH   1   3
ATOM      3  C   UNL     1      -2.076  -0.648  -1.188  0.00  0.00    +0.063 A 
ATOM      4  C   UNL     1      -1.472  -0.309  -2.391  0.00  0.00    +0.028 A 
ATOM      5  C   UNL     1      -2.170  -0.445  -3.576  0.00  0.00    +0.035 A 
ATOM      6  C   UNL     1      -3.469  -0.919  -3.565  0.00  0.00    +0.129 A 
ATOM      7  C   UNL     1      -4.075  -1.257  -2.369  0.00  0.00    +0.073 A 
ATOM      8  C   UNL     1      -3.381  -1.129  -1.180  0.00  0.00    +0.146 A 
ATOM      9  F   UNL     1      -3.971  -1.465  -0.012  0.00  0.00    -0.203 F 
BRANCH   6  10
ATOM     10  N   UNL     1      -4.213  -1.063  -4.837  0.00  0.00    +0.057 N 
ATOM     11  O   UNL     1      -3.685  -0.767  -5.883  0.00  0.00    -0.126 OA
ATOM     12  O   UNL     1      -5.349  -1.477  -4.829  0.00  0.00    -0.126 OA
ENDBRANCH   6  10
ENDBRANCH   1   3
BRANCH   1  14
ATOM     13  C   UNL     1      -0.019   1.526   0.010  0.00  0.00    +0.033 C 
ATOM     14  C   UNL     1       0.002  -0.004   0.002  0.00  0.00    +0.098 C 
BRANCH  14  15
ATOM     15  C   UNL     1       0.731  -0.503   1.223  0.00  0.00    -0.027 A 
ATOM     16  C   UNL     1       0.081  -0.558   2.442  0.00  0.00    +0.007 A 
ATOM     17  C   UNL     1       0.749  -1.016   3.562  0.00  0.00    +0.020 A 
ATOM     18  C   UNL     1       2.068  -1.419   3.463  0.00  0.00    +0.041 A 
ATOM     19  C   UNL     1       2.719  -1.364   2.243  0.00  0.00    +0.020 A 
ATOM     20  C   UNL     1       2.048  -0.911   1.123  0.00  0.00    +0.007 A 
ATOM     21 CL   UNL     1       2.908  -1.994   4.870  0.00  0.00    -0.084 Cl
ENDBRANCH  14  15
ENDBRANCH   1  14
TORSDOF 4
