REMARK  Name = ZINC20705517
REMARK  8 active torsions:
REMARK  status: ('A' for Active; 'I' for Inactive)
REMARK    1  A    between atoms: C_1  and  C_2
REMARK    2  A    between atoms: C_2  and  C_3
REMARK    3  A    between atoms: C_3  and  C_5
REMARK    4  A    between atoms: C_3  and  N_6
REMARK    5  A    between atoms: N_6  and  S_7
REMARK    6  A    between atoms: S_7  and  C_10
REMARK    7  A    between atoms: C_23  and  C_26
REMARK    8  A    between atoms: C_30  and  N_32
REMARK                            x       y       z     vdW  Elec       q    Type
REMARK                         _______ _______ _______ _____ _____    ______ ____
ROOT
ATOM      1  C   UNL     1      -0.954   1.915  -1.397  0.00  0.00    +0.106 A 
ATOM      2  C   UNL     1      -1.879   1.049  -1.950  0.00  0.00    +0.030 A 
ATOM      3  C   UNL     1      -2.615   1.445  -3.049  0.00  0.00    +0.025 A 
ATOM      4  C   UNL     1      -2.417   2.704  -3.602  0.00  0.00    +0.031 A 
ATOM      5  C   UNL     1      -1.487   3.574  -3.053  0.00  0.00    -0.018 A 
ATOM      6  C   UNL     1      -0.757   3.166  -1.945  0.00  0.00    +0.034 A 
ATOM      7  C   UNL     1      -1.241   4.940  -3.612  0.00  0.00    +0.049 C 
ATOM      8  C   UNL     1       0.058   4.997  -4.380  0.00  0.00    -0.023 C 
ATOM      9  C   UNL     1      -0.064   5.786  -5.419  0.00  0.00    -0.030 C 
ATOM     10  C   UNL     1      -1.462   6.369  -5.483  0.00  0.00    +0.033 C 
ATOM     11  C   UNL     1      -2.307   5.371  -4.638  0.00  0.00    +0.029 C 
ATOM     12  C   UNL     1      -2.663   4.191  -5.547  0.00  0.00    +0.105 C 
ATOM     13  N   UNL     1      -3.164   3.088  -4.721  0.00  0.00    -0.336 N 
ATOM     14  H   UNL     1      -4.105   2.585  -4.986  0.00  0.00    +0.147 HD
ENDROOT
BRANCH  12  15
ATOM     15  C   UNL     1      -3.729   4.613  -6.526  0.00  0.00    -0.025 A 
ATOM     16  C   UNL     1      -5.053   4.660  -6.128  0.00  0.00    +0.005 A 
ATOM     17  C   UNL     1      -6.030   5.046  -7.026  0.00  0.00    +0.003 A 
ATOM     18  C   UNL     1      -5.685   5.386  -8.321  0.00  0.00    +0.033 A 
ATOM     19  C   UNL     1      -4.362   5.340  -8.718  0.00  0.00    +0.127 A 
ATOM     20  C   UNL     1      -3.383   4.957  -7.819  0.00  0.00    +0.038 A 
BRANCH  19  21
ATOM     21  N   UNL     1      -3.992   5.703 -10.104  0.00  0.00    +0.056 N 
ATOM     22  O   UNL     1      -4.853   6.043 -10.895  0.00  0.00    -0.126 OA
ATOM     23  O   UNL     1      -2.826   5.662 -10.454  0.00  0.00    -0.126 OA
ENDBRANCH  19  21
ENDBRANCH  12  15
BRANCH   1  24
ATOM     24  S   UNL     1      -0.017   1.417   0.010  0.00  0.00    +0.059 S 
ATOM     25  O   UNL     1       0.002  -0.004   0.002  0.00  0.00    -0.153 OA
ATOM     26  O   UNL     1       1.172   2.195   0.003  0.00  0.00    -0.153 OA
BRANCH  24  27
ATOM     27  N   UNL     1      -0.872   1.871   1.353  0.00  0.00    -0.187 NA
ATOM     28  H   UNL     1      -0.535   2.742   1.936  0.00  0.00    +0.148 HD
BRANCH  27  29
ATOM     29  C   UNL     1      -2.174   1.261   1.634  0.00  0.00    +0.073 C 
ATOM     30  C   UNL     1      -3.285   2.152   1.074  0.00  0.00    +0.025 C 
BRANCH  29  32
ATOM     31  C   UNL     1      -1.318   0.124   3.687  0.00  0.00    +0.005 C 
ATOM     32  C   UNL     1      -2.353   1.113   3.146  0.00  0.00    +0.017 C 
ENDBRANCH  29  32
ENDBRANCH  27  29
ENDBRANCH  24  27
ENDBRANCH   1  24
TORSDOF 6
