REMARK  Name = ZINC40947049
REMARK  6 active torsions:
REMARK  status: ('A' for Active; 'I' for Inactive)
REMARK    1  A    between atoms: C_3  and  O_21
REMARK    2  A    between atoms: C_6  and  C_7
REMARK    3  A    between atoms: N_8  and  N_9
REMARK    4  A    between atoms: C_10  and  C_12
REMARK    5  A    between atoms: C_12  and  S_13
REMARK    6  A    between atoms: S_13  and  C_14
REMARK                            x       y       z     vdW  Elec       q    Type
REMARK                         _______ _______ _______ _____ _____    ______ ____
ROOT
ATOM      1  N   UNL     1      -2.446  -2.777   0.011  0.00  0.00    -0.206 N 
ATOM      2  C   UNL     1      -2.425  -4.125   0.004  0.00  0.00    +0.242 C 
ATOM      3  O   UNL     1      -1.366  -4.715  -0.010  0.00  0.00    -0.273 OA
ATOM      4  H   UNL     1      -3.293  -2.305   0.022  0.00  0.00    +0.177 HD
ENDROOT
BRANCH   1   6
ATOM      5  C   UNL     1      -1.263  -0.761   0.011  0.00  0.00    +0.138 C 
ATOM      6  N   UNL     1      -1.243  -2.058   0.003  0.00  0.00    -0.188 NA
BRANCH   5  12
ATOM      7  C   UNL     1      -0.017   1.393   0.010  0.00  0.00    +0.013 A 
ATOM      8  C   UNL     1       1.168   2.096   0.002  0.00  0.00    +0.047 A 
ATOM      9  C   UNL     1       2.380   1.419  -0.013  0.00  0.00    +0.131 A 
ATOM     10  C   UNL     1       2.405   0.029  -0.021  0.00  0.00    +0.060 A 
ATOM     11  C   UNL     1       1.224  -0.682  -0.014  0.00  0.00    +0.028 A 
ATOM     12  C   UNL     1       0.002  -0.004   0.002  0.00  0.00    -0.004 A 
ATOM     13 BR   UNL     1       4.059  -0.886  -0.043  0.00  0.00    -0.047 Br
BRANCH   9  14
ATOM     14  O   UNL     1       3.546   2.117  -0.020  0.00  0.00    -0.506 OA
ATOM     15  H   UNL     1       3.892   2.314   0.861  0.00  0.00    +0.292 HD
ENDBRANCH   9  14
ENDBRANCH   5  12
ENDBRANCH   1   6
BRANCH   2  16
ATOM     16  C   UNL     1      -3.719  -4.898   0.013  0.00  0.00    +0.173 C 
BRANCH  16  17
ATOM     17  S   UNL     1      -3.360  -6.676  -0.000  0.00  0.00    -0.088 S 
BRANCH  17  18
ATOM     18  C   UNL     1      -4.952  -7.432   0.011  0.00  0.00    +0.160 A 
ATOM     19  N   UNL     1      -6.145  -6.869   0.020  0.00  0.00    -0.133 NA
ATOM     20  N   UNL     1      -7.273  -7.656   0.028  0.00  0.00    -0.125 NA
ATOM     21  C   UNL     1      -7.157  -8.970   0.027  0.00  0.00    +0.180 A 
ATOM     22  S   UNL     1      -5.381  -9.166   0.006  0.00  0.00    -0.025 S 
ATOM     23  N   UNL     1      -8.150  -9.942   0.033  0.00  0.00    -0.336 N 
ATOM     24  H   UNL     1      -9.085  -9.680   0.040  0.00  0.00    +0.144 HD
ATOM     25  H   UNL     1      -7.910 -10.881   0.032  0.00  0.00    +0.144 HD
ENDBRANCH  17  18
ENDBRANCH  16  17
ENDBRANCH   2  16
TORSDOF 6
