REMARK  Name = ZINC09723395
REMARK  9 active torsions:
REMARK  status: ('A' for Active; 'I' for Inactive)
REMARK    1  A    between atoms: C_1  and  C_2
REMARK    2  A    between atoms: C_2  and  C_3
REMARK    3  A    between atoms: C_3  and  C_4
REMARK    4  A    between atoms: C_4  and  N_5
REMARK    5  A    between atoms: C_6  and  N_34
REMARK    6  A    between atoms: C_7  and  N_14
REMARK    7  A    between atoms: N_14  and  C_15
REMARK    8  A    between atoms: C_20  and  C_22
REMARK    9  A    between atoms: C_22  and  N_71
REMARK                            x       y       z     vdW  Elec       q    Type
REMARK                         _______ _______ _______ _____ _____    ______ ____
ROOT
ATOM      1  N   UNL     1      -0.663   1.877   3.660  0.00  0.00    -0.263 N 
ATOM      2  C   UNL     1       0.035   1.560   2.550  0.00  0.00    +0.204 C 
ATOM      3  O   UNL     1      -0.376   1.896   1.459  0.00  0.00    -0.277 OA
ENDROOT
BRANCH   1   6
ATOM      4  N   UNL     1      -0.180   0.414   6.997  0.00  0.00    -0.280 N 
ATOM      5  C   UNL     1      -0.729   0.669   5.761  0.00  0.00    +0.127 A 
ATOM      6  C   UNL     1      -0.127   1.596   4.935  0.00  0.00    +0.140 A 
ATOM      7  C   UNL     1       1.029   2.261   5.388  0.00  0.00    +0.277 A 
ATOM      8  O   UNL     1       1.578   3.088   4.680  0.00  0.00    -0.266 OA
ATOM      9  N   UNL     1       1.523   1.977   6.609  0.00  0.00    -0.273 N 
ATOM     10  H   UNL     1       2.344   2.448   6.931  0.00  0.00    +0.173 HD
ATOM     11  C   UNL     1       0.925   1.067   7.399  0.00  0.00    +0.331 A 
ATOM     12  O   UNL     1       1.392   0.830   8.496  0.00  0.00    -0.246 OA
BRANCH   5  13
ATOM     13  N   UNL     1      -1.861   0.006   5.353  0.00  0.00    -0.343 N 
ATOM     14  H   UNL     1      -2.199   0.132   4.452  0.00  0.00    +0.144 HD
ATOM     15  H   UNL     1      -2.323  -0.588   5.965  0.00  0.00    +0.144 HD
ENDBRANCH   5  13
BRANCH   4  16
ATOM     16  C   UNL     1      -0.806  -0.571   7.882  0.00  0.00    +0.128 C 
BRANCH  16  17
ATOM     17  C   UNL     1      -1.846   0.124   8.763  0.00  0.00    +0.021 C 
BRANCH  17  19
ATOM     18  C   UNL     1      -3.540  -0.210  10.570  0.00  0.00    +0.004 C 
ATOM     19  C   UNL     1      -2.500  -0.905   9.688  0.00  0.00    -0.002 C 
ENDBRANCH  17  19
ENDBRANCH  16  17
ENDBRANCH   4  16
ENDBRANCH   1   6
BRANCH   1  20
ATOM     20  C   UNL     1      -1.978   2.512   3.543  0.00  0.00    +0.082 C 
ATOM     21  C   UNL     1      -2.883   1.683   2.609  0.00  0.00    +0.023 C 
ATOM     22  C   UNL     1      -3.699   2.745   1.830  0.00  0.00    +0.002 C 
ATOM     23  C   UNL     1      -2.660   3.869   1.594  0.00  0.00    +0.002 C 
ATOM     24  C   UNL     1      -1.836   3.902   2.898  0.00  0.00    +0.023 C 
ENDBRANCH   1  20
BRANCH   2  25
ATOM     25  C   UNL     1       1.326   0.790   2.665  0.00  0.00    +0.019 C 
BRANCH  25  35
ATOM     26  C   UNL     1       2.200   1.669   0.586  0.00  0.00    -0.078 C 
ATOM     27  C   UNL     1       2.838   1.279  -0.749  0.00  0.00    -0.015 C 
ATOM     28  C   UNL     1       1.835   0.459  -1.566  0.00  0.00    -0.011 C 
ATOM     29  C   UNL     1       0.598   1.315  -1.847  0.00  0.00    +0.004 C 
ATOM     30  C   UNL     1      -0.428   0.503  -2.628  0.00  0.00    +0.000 C 
ATOM     31  C   UNL     1      -0.839  -0.723  -1.809  0.00  0.00    +0.000 C 
ATOM     32  C   UNL     1       0.394  -1.587  -1.537  0.00  0.00    +0.002 C 
ATOM     33  C   UNL     1       1.427  -0.775  -0.757  0.00  0.00    -0.025 C 
ATOM     34  C   UNL     1       0.827  -0.329   0.577  0.00  0.00    -0.074 C 
ATOM     35  N   UNL     1       1.843   0.440   1.327  0.00  0.00    +0.386 N 
ATOM     36  H   UNL     1       2.685  -0.139   1.436  0.00  0.00    -0.081 HD
ENDBRANCH  25  35
ENDBRANCH   2  25
TORSDOF 8
