REMARK  Name = ZINC59019543
REMARK  11 active torsions:
REMARK  status: ('A' for Active; 'I' for Inactive)
REMARK    1  A    between atoms: C_1  and  C_2
REMARK    2  A    between atoms: C_2  and  O_3
REMARK    3  A    between atoms: O_3  and  C_4
REMARK    4  A    between atoms: C_4  and  C_6
REMARK    5  A    between atoms: C_10  and  N_11
REMARK    6  A    between atoms: C_12  and  C_14
REMARK    7  A    between atoms: C_14  and  S_15
REMARK    8  A    between atoms: S_15  and  C_16
REMARK    9  A    between atoms: N_21  and  N_22
REMARK   10  A    between atoms: C_23  and  C_24
REMARK   11  A    between atoms: C_27  and  C_30
REMARK                            x       y       z     vdW  Elec       q    Type
REMARK                         _______ _______ _______ _____ _____    ______ ____
ROOT
ATOM      1  C   UNL     1       6.009  -2.515   0.401  0.00  0.00    +0.173 C 
ENDROOT
BRANCH   1   3
ATOM      2  N   UNL     1       3.744  -2.426   1.392  0.00  0.00    -0.279 N 
ATOM      3  C   UNL     1       5.047  -2.736   1.540  0.00  0.00    +0.228 C 
ATOM      4  O   UNL     1       5.445  -3.193   2.591  0.00  0.00    -0.275 OA
ATOM      5  H   UNL     1       3.425  -2.060   0.551  0.00  0.00    +0.155 HD
BRANCH   2  10
ATOM      6  C   UNL     1       1.496  -2.371   2.467  0.00  0.00    +0.091 A 
ATOM      7  C   UNL     1       0.787  -2.682   3.696  0.00  0.00    -0.021 A 
ATOM      8  C   UNL     1       1.570  -3.187   4.673  0.00  0.00    -0.004 A 
ATOM      9  S   UNL     1       3.191  -3.243   3.966  0.00  0.00    -0.077 S 
ATOM     10  C   UNL     1       2.859  -2.629   2.439  0.00  0.00    +0.086 A 
ATOM     11  C   UNL     1       1.140  -3.603   6.046  0.00  0.00    +0.043 C 
ATOM     12  C   UNL     1      -0.255  -3.018   6.312  0.00  0.00    +0.005 C 
ATOM     13  C   UNL     1      -1.153  -3.312   5.107  0.00  0.00    +0.005 C 
ATOM     14  C   UNL     1      -0.705  -2.473   3.907  0.00  0.00    +0.037 C 
BRANCH   6  15
ATOM     15  C   UNL     1       0.801  -1.814   1.305  0.00  0.00    +0.342 C 
ATOM     16  O   UNL     1       0.321  -2.557   0.470  0.00  0.00    -0.245 OA
BRANCH  15  17
ATOM     17  O   UNL     1       0.693  -0.477   1.160  0.00  0.00    -0.461 OA
BRANCH  17  19
ATOM     18  C   UNL     1      -0.019   1.526   0.010  0.00  0.00    +0.048 C 
ATOM     19  C   UNL     1       0.002  -0.004   0.002  0.00  0.00    +0.229 C 
ENDBRANCH  17  19
ENDBRANCH  15  17
ENDBRANCH   6  15
ENDBRANCH   2  10
ENDBRANCH   1   3
BRANCH   1  20
ATOM     20  S   UNL     1       7.674  -3.025   0.908  0.00  0.00    -0.075 S 
BRANCH  20  21
ATOM     21  C   UNL     1       8.668  -2.709  -0.512  0.00  0.00    +0.211 A 
ATOM     22  N   UNL     1       9.982  -2.939  -0.607  0.00  0.00    -0.186 NA
ATOM     23  C   UNL     1      10.406  -2.589  -1.804  0.00  0.00    +0.232 A 
ATOM     24  N   UNL     1       9.349  -2.123  -2.501  0.00  0.00    -0.245 N 
ATOM     25  N   UNL     1       8.238  -2.215  -1.648  0.00  0.00    -0.144 NA
ATOM     26  N   UNL     1      11.707  -2.684  -2.264  0.00  0.00    -0.205 N 
ATOM     27  H   UNL     1      11.924  -2.399  -3.166  0.00  0.00    +0.177 HD
ATOM     28  H   UNL     1       9.355  -1.792  -3.413  0.00  0.00    +0.192 HD
BRANCH  26  29
ATOM     29  N   UNL     1      12.711  -3.191  -1.429  0.00  0.00    -0.188 NA
ATOM     30  C   UNL     1      13.931  -3.279  -1.861  0.00  0.00    +0.138 C 
BRANCH  30  31
ATOM     31  C   UNL     1      14.988  -3.813  -0.982  0.00  0.00    -0.005 A 
ATOM     32  C   UNL     1      14.678  -4.229   0.315  0.00  0.00    +0.010 A 
ATOM     33  C   UNL     1      15.672  -4.727   1.132  0.00  0.00    +0.004 A 
ATOM     34  C   UNL     1      16.973  -4.815   0.670  0.00  0.00    -0.050 A 
ATOM     35  C   UNL     1      17.287  -4.405  -0.614  0.00  0.00    +0.004 A 
ATOM     36  C   UNL     1      16.303  -3.910  -1.444  0.00  0.00    +0.010 A 
ATOM     37  C   UNL     1      18.053  -5.361   1.568  0.00  0.00    +0.044 C 
ENDBRANCH  30  31
ENDBRANCH  26  29
ENDBRANCH  20  21
ENDBRANCH   1  20
TORSDOF 9
