REMARK  Name = ZINC17145570
REMARK  4 active torsions:
REMARK  status: ('A' for Active; 'I' for Inactive)
REMARK    1  A    between atoms: C_1  and  C_2
REMARK    2  A    between atoms: C_2  and  C_32
REMARK    3  A    between atoms: C_6  and  C_22
REMARK    4  A    between atoms: C_16  and  C_18
REMARK                            x       y       z     vdW  Elec       q    Type
REMARK                         _______ _______ _______ _____ _____    ______ ____
ROOT
ATOM      1  C   UNL     1       4.983   2.082   3.400  0.00  0.00    +0.011 C 
ATOM      2  C   UNL     1       5.762   3.062   2.519  0.00  0.00    -0.023 C 
ATOM      3  C   UNL     1       5.467   2.781   1.047  0.00  0.00    +0.058 C 
ATOM      4  C   UNL     1       3.980   2.939   0.777  0.00  0.00    +0.017 C 
ATOM      5  C   UNL     1       3.254   3.838   1.464  0.00  0.00    +0.037 C 
ATOM      6  C   UNL     1       1.778   4.104   1.288  0.00  0.00    +0.147 C 
ATOM      7  N   UNL     1       1.192   3.495   0.114  0.00  0.00    -0.251 N 
ATOM      8  C   UNL     1       1.123   2.107  -0.019  0.00  0.00    +0.059 A 
ATOM      9  C   UNL     1      -0.089   1.438  -0.009  0.00  0.00    +0.025 A 
ATOM     10  C   UNL     1      -0.102   0.054  -0.035  0.00  0.00    +0.002 A 
ATOM     11  C   UNL     1       1.085  -0.655  -0.076  0.00  0.00    +0.002 A 
ATOM     12  C   UNL     1       2.297   0.012  -0.113  0.00  0.00    +0.025 A 
ATOM     13  C   UNL     1       2.311   1.396  -0.098  0.00  0.00    +0.053 A 
ATOM     14  N   UNL     1       3.487   2.129  -0.194  0.00  0.00    -0.316 N 
ATOM     15  C   UNL     1       0.704   4.280  -0.868  0.00  0.00    +0.325 C 
ATOM     16  O   UNL     1       0.758   5.487  -0.763  0.00  0.00    -0.265 OA
ATOM     17  C   UNL     1       3.865   4.632   2.463  0.00  0.00    +0.163 C 
ATOM     18  O   UNL     1       3.190   5.453   3.053  0.00  0.00    -0.292 OA
ATOM     19  C   UNL     1       5.315   4.498   2.819  0.00  0.00    +0.086 C 
ATOM     20  C   UNL     1       7.262   2.920   2.784  0.00  0.00    +0.011 C 
ATOM     21  H   UNL     1       4.029   2.017  -1.145  0.00  0.00    +0.152 HD
ENDROOT
BRANCH   6  22
ATOM     22  C   UNL     1       1.053   3.591   2.505  0.00  0.00    -0.022 A 
ATOM     23  C   UNL     1       1.065   2.240   2.798  0.00  0.00    +0.007 A 
ATOM     24  C   UNL     1       0.405   1.770   3.917  0.00  0.00    +0.020 A 
ATOM     25  C   UNL     1      -0.279   2.649   4.738  0.00  0.00    +0.041 A 
ATOM     26  C   UNL     1      -0.295   4.001   4.441  0.00  0.00    +0.020 A 
ATOM     27  C   UNL     1       0.370   4.471   3.325  0.00  0.00    +0.007 A 
ATOM     28 CL   UNL     1      -1.115   2.058   6.139  0.00  0.00    -0.084 Cl
ENDBRANCH   6  22
BRANCH  15  29
ATOM     29  C   UNL     1       0.090   3.657  -2.095  0.00  0.00    +0.470 C 
ATOM     30  F   UNL     1      -0.341   4.666  -2.964  0.00  0.00    -0.162 F 
ATOM     31  F   UNL     1       1.043   2.862  -2.741  0.00  0.00    -0.162 F 
ATOM     32  F   UNL     1      -1.001   2.866  -1.721  0.00  0.00    -0.162 F 
ENDBRANCH  15  29
TORSDOF 2
