REMARK  Name = ZINC57992151
REMARK  2 active torsions:
REMARK  status: ('A' for Active; 'I' for Inactive)
REMARK    1  A    between atoms: C_8  and  C_17
REMARK    2  A    between atoms: N_19  and  C_20
REMARK                            x       y       z     vdW  Elec       q    Type
REMARK                         _______ _______ _______ _____ _____    ______ ____
ROOT
ATOM      1  C   UNL     1       0.082   1.551   0.091  0.00  0.00    +0.000 A 
ATOM      2  C   UNL     1       1.274   2.250   0.038  0.00  0.00    +0.002 A 
ATOM      3  C   UNL     1       2.476   1.575   0.004  0.00  0.00    +0.023 A 
ATOM      4  C   UNL     1       2.498   0.182   0.022  0.00  0.00    +0.039 A 
ATOM      5  C   UNL     1       1.293  -0.510   0.076  0.00  0.00    +0.004 A 
ATOM      6  C   UNL     1       0.095   0.167   0.110  0.00  0.00    +0.008 A 
ATOM      7  C   UNL     1       1.653  -1.972   0.082  0.00  0.00    +0.137 C 
ATOM      8  C   UNL     1       1.054  -2.687  -1.139  0.00  0.00    +0.111 C 
ATOM      9  C   UNL     1       0.683  -4.084  -0.572  0.00  0.00    +0.034 C 
ATOM     10  C   UNL     1       0.242  -3.733   0.869  0.00  0.00    +0.059 C 
ATOM     11  N   UNL     1       1.157  -2.640   1.291  0.00  0.00    -0.282 NA
ATOM     12  C   UNL     1       2.284  -3.302   1.996  0.00  0.00    +0.086 C 
ATOM     13  C   UNL     1       1.605  -4.458   2.770  0.00  0.00    +0.017 C 
ATOM     14  C   UNL     1       0.494  -4.941   1.784  0.00  0.00    +0.020 C 
ATOM     15  C   UNL     1       3.160  -1.996   0.027  0.00  0.00    +0.243 C 
ATOM     16  O   UNL     1       3.867  -2.981   0.013  0.00  0.00    -0.273 OA
ATOM     17  N   UNL     1       3.569  -0.714  -0.004  0.00  0.00    -0.283 N 
ATOM     18  H   UNL     1       4.500  -0.444  -0.041  0.00  0.00    +0.155 HD
ENDROOT
BRANCH   8  19
ATOM     19  C   UNL     1      -0.172  -1.963  -1.633  0.00  0.00    +0.223 C 
ATOM     20  O   UNL     1      -1.256  -2.206  -1.146  0.00  0.00    -0.275 OA
ATOM     21  N   UNL     1      -0.064  -1.047  -2.615  0.00  0.00    -0.285 N 
ATOM     22  H   UNL     1       0.791  -0.901  -3.050  0.00  0.00    +0.155 HD
BRANCH  21  23
ATOM     23  C   UNL     1      -1.186  -0.306  -3.008  0.00  0.00    +0.037 A 
ATOM     24  C   UNL     1      -1.040   1.017  -3.403  0.00  0.00    +0.027 A 
ATOM     25  C   UNL     1      -2.147   1.749  -3.790  0.00  0.00    +0.051 A 
ATOM     26  C   UNL     1      -3.405   1.165  -3.786  0.00  0.00    +0.162 A 
ATOM     27  C   UNL     1      -3.553  -0.160  -3.393  0.00  0.00    +0.164 A 
ATOM     28  C   UNL     1      -2.442  -0.895  -3.009  0.00  0.00    +0.072 A 
ATOM     29  O   UNL     1      -4.778  -0.753  -3.390  0.00  0.00    -0.485 OA
ATOM     30  C   UNL     1      -5.915   0.117  -3.429  0.00  0.00    +0.270 C 
ATOM     31  C   UNL     1      -5.670   1.179  -4.510  0.00  0.00    +0.270 C 
ATOM     32  O   UNL     1      -4.484   1.903  -4.167  0.00  0.00    -0.485 OA
ENDBRANCH  21  23
ENDBRANCH   8  19
TORSDOF 2
