REMARK  Name = ZINC65074841
REMARK  7 active torsions:
REMARK  status: ('A' for Active; 'I' for Inactive)
REMARK    1  A    between atoms: C_1  and  C_2
REMARK    2  A    between atoms: C_2  and  C_3
REMARK    3  A    between atoms: C_2  and  C_4
REMARK    4  A    between atoms: C_7  and  S_10
REMARK    5  A    between atoms: S_10  and  N_13
REMARK    6  A    between atoms: N_24  and  C_25
REMARK    7  A    between atoms: C_25  and  C_26
REMARK                            x       y       z     vdW  Elec       q    Type
REMARK                         _______ _______ _______ _____ _____    ______ ____
ROOT
ATOM      1  N   UNL     1       2.686  -0.888   6.091  0.00  0.00    -0.176 NA
ATOM      2  C   UNL     1       3.617   0.236   6.262  0.00  0.00    +0.111 C 
ATOM      3  C   UNL     1       4.111   0.251   7.712  0.00  0.00    +0.047 C 
ATOM      4  C   UNL     1       2.907   0.286   8.657  0.00  0.00    +0.075 C 
ATOM      5  C   UNL     1       2.061  -0.973   8.449  0.00  0.00    +0.047 C 
ATOM      6  C   UNL     1       1.540  -1.000   7.004  0.00  0.00    +0.111 C 
ATOM      7  C   UNL     1       3.387   0.340  10.080  0.00  0.00    +0.089 C 
ATOM      8  N   UNL     1       3.376   1.403  10.790  0.00  0.00    -0.374 N 
ATOM      9  C   UNL     1       2.886   2.692  10.313  0.00  0.00    +0.129 C 
ATOM     10  C   UNL     1       2.803   2.689   8.785  0.00  0.00    +0.102 C 
ATOM     11  N   UNL     1       2.092   1.472   8.359  0.00  0.00    -0.303 NA
ATOM     12  N   UNL     1       3.862  -0.814  10.647  0.00  0.00    -0.329 N 
ATOM     13  H   UNL     1       1.859   1.514   7.378  0.00  0.00    +0.123 HD
ATOM     14  H   UNL     1       3.882  -1.635  10.132  0.00  0.00    +0.147 HD
ATOM     15  H   UNL     1       3.711   1.349  11.699  0.00  0.00    +0.161 HD
ENDROOT
BRANCH   1  16
ATOM     16  S   UNL     1       2.921  -2.003   4.890  0.00  0.00    +0.061 S 
ATOM     17  O   UNL     1       2.256  -3.190   5.302  0.00  0.00    -0.153 OA
ATOM     18  O   UNL     1       4.306  -1.976   4.575  0.00  0.00    -0.153 OA
BRANCH  16  22
ATOM     19  C   UNL     1       0.731  -0.503   1.223  0.00  0.00    -0.045 A 
ATOM     20  C   UNL     1       2.050  -0.148   1.434  0.00  0.00    +0.006 A 
ATOM     21  C   UNL     1       2.719  -0.606   2.554  0.00  0.00    +0.029 A 
ATOM     22  C   UNL     1       2.068  -1.419   3.463  0.00  0.00    +0.105 A 
ATOM     23  C   UNL     1       0.749  -1.773   3.252  0.00  0.00    +0.029 A 
ATOM     24  C   UNL     1       0.079  -1.312   2.135  0.00  0.00    +0.006 A 
BRANCH  19  26
ATOM     25  C   UNL     1      -0.019   1.526   0.010  0.00  0.00    +0.012 C 
ATOM     26  C   UNL     1       0.002  -0.004   0.002  0.00  0.00    +0.013 C 
ATOM     27  C   UNL     1       0.718  -0.497  -1.257  0.00  0.00    +0.012 C 
ENDBRANCH  19  26
ENDBRANCH  16  22
ENDBRANCH   1  16
BRANCH  12  28
ATOM     28  C   UNL     1       4.340  -0.806  12.032  0.00  0.00    +0.138 C 
BRANCH  28  29
ATOM     29  C   UNL     1       4.806  -2.188  12.410  0.00  0.00    -0.027 A 
ATOM     30  C   UNL     1       3.914  -3.090  12.961  0.00  0.00    +0.009 A 
ATOM     31  C   UNL     1       4.336  -4.359  13.309  0.00  0.00    +0.050 A 
ATOM     32  C   UNL     1       5.655  -4.731  13.108  0.00  0.00    +0.166 A 
ATOM     33  C   UNL     1       6.554  -3.822  12.553  0.00  0.00    +0.167 A 
ATOM     34  C   UNL     1       6.122  -2.554  12.201  0.00  0.00    +0.054 A 
ATOM     35  O   UNL     1       7.777  -4.421  12.458  0.00  0.00    -0.453 OA
ATOM     36  C   UNL     1       7.715  -5.562  13.334  0.00  0.00    +0.466 C 
ATOM     37  O   UNL     1       6.315  -5.899  13.360  0.00  0.00    -0.453 OA
ENDBRANCH  28  29
ENDBRANCH  12  28
TORSDOF 5
