REMARK  Name = ZINC36232064
REMARK  4 active torsions:
REMARK  status: ('A' for Active; 'I' for Inactive)
REMARK    1  A    between atoms: C_1  and  C_2
REMARK    2  A    between atoms: C_2  and  C_21
REMARK    3  A    between atoms: C_8  and  C_10
REMARK    4  A    between atoms: C_16  and  C_18
REMARK                            x       y       z     vdW  Elec       q    Type
REMARK                         _______ _______ _______ _____ _____    ______ ____
ROOT
ATOM      1  C   UNL     1      -0.379   1.460   0.020  0.00  0.00    +0.043 C 
ATOM      2  C   UNL     1      -0.346  -0.069  -0.029  0.00  0.00    +0.080 C 
ATOM      3  C   UNL     1       0.567  -0.526  -1.172  0.00  0.00    +0.142 C 
ATOM      4  N   UNL     1       0.730  -1.986  -1.081  0.00  0.00    -0.296 N 
ATOM      5  C   UNL     1       1.120  -2.558   0.217  0.00  0.00    +0.136 C 
ATOM      6  C   UNL     1       0.180  -2.002   1.293  0.00  0.00    +0.179 C 
ATOM      7  O   UNL     1       0.160  -0.575   1.209  0.00  0.00    -0.371 OA
ATOM      8  C   UNL     1       0.528  -2.775  -2.155  0.00  0.00    +0.220 C 
ATOM      9  O   UNL     1       0.115  -2.296  -3.190  0.00  0.00    -0.275 OA
ATOM     10  C   UNL     1      -1.761  -0.603  -0.259  0.00  0.00    +0.043 C 
ENDROOT
BRANCH   8  11
ATOM     11  C   UNL     1       0.817  -4.251  -2.070  0.00  0.00    +0.093 C 
ATOM     12  C   UNL     1       1.794  -4.649  -3.177  0.00  0.00    +0.040 C 
ATOM     13  C   UNL     1       1.117  -4.579  -4.515  0.00  0.00    -0.030 C 
ATOM     14  C   UNL     1      -0.167  -4.545  -4.677  0.00  0.00    -0.030 C 
ATOM     15  C   UNL     1      -1.157  -4.561  -3.549  0.00  0.00    +0.042 C 
ATOM     16  C   UNL     1      -0.484  -5.042  -2.257  0.00  0.00    +0.118 C 
BRANCH  16  17
ATOM     17  C   UNL     1      -1.397  -4.803  -1.082  0.00  0.00    +0.360 C 
ATOM     18  O   UNL     1      -2.606  -4.846  -1.231  0.00  0.00    -0.246 OA
ATOM     19  O   UNL     1      -0.926  -4.566   0.017  0.00  0.00    -0.246 OA
ENDBRANCH  16  17
ENDBRANCH   8  11
TORSDOF 2
