REMARK  Name = ZINC40404669
REMARK  12 active torsions:
REMARK  status: ('A' for Active; 'I' for Inactive)
REMARK    1  A    between atoms: C_1  and  C_2
REMARK    2  A    between atoms: C_2  and  C_3
REMARK    3  A    between atoms: C_2  and  O_4
REMARK    4  A    between atoms: O_4  and  C_5
REMARK    5  A    between atoms: C_5  and  C_6
REMARK    6  A    between atoms: C_6  and  C_8
REMARK    7  A    between atoms: C_6  and  O_35
REMARK    8  A    between atoms: C_8  and  N_9
REMARK    9  A    between atoms: N_9  and  C_10
REMARK   10  A    between atoms: N_9  and  C_29
REMARK   11  A    between atoms: C_10  and  C_11
REMARK   12  A    between atoms: C_17  and  C_22
REMARK                            x       y       z     vdW  Elec       q    Type
REMARK                         _______ _______ _______ _____ _____    ______ ____
ROOT
ATOM      1  C   UNL     1      -4.714  -5.370  -1.610  0.00  0.00    -0.003 C 
ENDROOT
BRANCH   1   2
ATOM      2  C   UNL     1      -6.188  -5.663  -1.724  0.00  0.00    +0.094 A 
ATOM      3  N   UNL     1      -6.594  -6.878  -2.172  0.00  0.00    -0.312 N 
ATOM      4  H   UNL     1      -5.930  -7.542  -2.414  0.00  0.00    +0.170 HD
ATOM      5  C   UNL     1      -7.901  -7.180  -2.288  0.00  0.00    +0.260 A 
ATOM      6  O   UNL     1      -8.249  -8.276  -2.692  0.00  0.00    -0.267 OA
ATOM      7  C   UNL     1      -8.874  -6.194  -1.929  0.00  0.00    +0.080 A 
ATOM      8  C   UNL     1     -10.329  -6.279  -1.965  0.00  0.00    +0.006 A 
ATOM      9  C   UNL     1     -11.055  -5.204  -1.572  0.00  0.00    +0.056 A 
ATOM     10  S   UNL     1      -9.811  -4.007  -1.128  0.00  0.00    -0.076 S 
ATOM     11  C   UNL     1      -8.361  -4.968  -1.476  0.00  0.00    +0.116 A 
ATOM     12  N   UNL     1      -7.052  -4.745  -1.384  0.00  0.00    -0.229 NA
BRANCH   8  13
ATOM     13  C   UNL     1     -11.003  -7.517  -2.423  0.00  0.00    +0.019 A 
ATOM     14  C   UNL     1     -11.767  -7.508  -3.589  0.00  0.00    +0.011 A 
ATOM     15  C   UNL     1     -12.391  -8.665  -4.011  0.00  0.00    +0.001 A 
ATOM     16  C   UNL     1     -12.261  -9.832  -3.280  0.00  0.00    +0.003 A 
ATOM     17  C   UNL     1     -11.505  -9.849  -2.122  0.00  0.00    +0.039 A 
ATOM     18  C   UNL     1     -10.870  -8.699  -1.692  0.00  0.00    +0.131 A 
ATOM     19  F   UNL     1     -10.127  -8.717  -0.563  0.00  0.00    -0.205 F 
ENDBRANCH   8  13
ENDBRANCH   1   2
BRANCH   1  20
ATOM     20  N   UNL     1      -4.521  -4.080  -0.936  0.00  0.00    +0.388 N 
ATOM     21  H   UNL     1      -5.227  -3.429  -1.247  0.00  0.00    -0.081 HD
BRANCH  20  22
ATOM     22  C   UNL     1      -4.633  -4.265   0.517  0.00  0.00    -0.068 C 
ATOM     23  C   UNL     1      -6.036  -4.767   0.861  0.00  0.00    -0.015 C 
ATOM     24  C   UNL     1      -6.152  -4.960   2.375  0.00  0.00    -0.002 C 
ATOM     25  C   UNL     1      -5.116  -5.985   2.839  0.00  0.00    -0.000 C 
ATOM     26  C   UNL     1      -3.712  -5.483   2.495  0.00  0.00    -0.002 C 
ATOM     27  C   UNL     1      -3.596  -5.290   0.982  0.00  0.00    -0.015 C 
ENDBRANCH  20  22
BRANCH  20  28
ATOM     28  C   UNL     1      -3.190  -3.551  -1.261  0.00  0.00    -0.044 C 
BRANCH  28  29
ATOM     29  C   UNL     1      -3.042  -2.146  -0.674  0.00  0.00    +0.124 C 
BRANCH  29  30
ATOM     30  O   UNL     1      -3.979  -1.267  -1.299  0.00  0.00    -0.391 OA
ATOM     31  H   UNL     1      -3.868  -1.190  -2.257  0.00  0.00    +0.210 HD
ENDBRANCH  29  30
BRANCH  29  32
ATOM     32  C   UNL     1      -1.621  -1.636  -0.923  0.00  0.00    +0.189 C 
BRANCH  32  33
ATOM     33  O   UNL     1      -1.447  -0.374  -0.275  0.00  0.00    -0.375 OA
BRANCH  33  35
ATOM     34  C   UNL     1      -0.247   1.719  -0.417  0.00  0.00    +0.037 C 
ATOM     35  C   UNL     1      -0.146   0.192  -0.446  0.00  0.00    +0.112 C 
ATOM     36  C   UNL     1       0.769  -0.280   0.685  0.00  0.00    +0.037 C 
ENDBRANCH  33  35
ENDBRANCH  32  33
ENDBRANCH  29  32
ENDBRANCH  28  29
ENDBRANCH  20  28
ENDBRANCH   1  20
TORSDOF 10
