REMARK  Name = ZINC39688505
REMARK  7 active torsions:
REMARK  status: ('A' for Active; 'I' for Inactive)
REMARK    1  A    between atoms: C_1  and  C_2
REMARK    2  A    between atoms: C_2  and  C_4
REMARK    3  A    between atoms: C_2  and  N_12
REMARK    4  A    between atoms: C_4  and  C_5
REMARK    5  A    between atoms: C_13  and  C_15
REMARK    6  A    between atoms: C_26  and  C_28
REMARK    7  A    between atoms: C_32  and  C_34
REMARK                            x       y       z     vdW  Elec       q    Type
REMARK                         _______ _______ _______ _____ _____    ______ ____
ROOT
ATOM      1  C   UNL     1      -0.400   2.693  -1.786  0.00  0.00    +0.100 C 
ATOM      2  C   UNL     1      -1.426   2.844  -0.640  0.00  0.00    +0.121 C 
ATOM      3  N   UNL     1      -0.603   3.057   0.574  0.00  0.00    -0.296 N 
ATOM      4  C   UNL     1       0.500   3.937   0.121  0.00  0.00    +0.115 C 
ATOM      5  C   UNL     1       0.862   3.415  -1.283  0.00  0.00    -0.004 C 
ATOM      6  C   UNL     1       1.207   4.580  -2.207  0.00  0.00    -0.010 C 
ATOM      7  C   UNL     1       2.497   5.246  -1.720  0.00  0.00    -0.082 C 
ATOM      8  N   UNL     1       3.586   4.261  -1.713  0.00  0.00    +0.379 N 
ATOM      9  C   UNL     1       3.288   3.192  -0.752  0.00  0.00    -0.082 C 
ATOM     10  C   UNL     1       2.031   2.439  -1.198  0.00  0.00    -0.010 C 
ATOM     11  C   UNL     1      -0.812   2.562   1.810  0.00  0.00    +0.247 C 
ATOM     12  O   UNL     1      -0.094   2.903   2.730  0.00  0.00    -0.270 OA
ATOM     13  H   UNL     1       3.686   3.865  -2.635  0.00  0.00    -0.086 HD
ATOM     14  H   UNL     1       4.447   4.717  -1.450  0.00  0.00    -0.086 HD
ENDROOT
BRANCH  11  15
ATOM     15  C   UNL     1      -1.912   1.605   2.047  0.00  0.00    +0.038 A 
ATOM     16  C   UNL     1      -1.793   0.281   1.617  0.00  0.00    +0.016 A 
ATOM     17  C   UNL     1      -2.823  -0.608   1.840  0.00  0.00    +0.039 A 
ATOM     18  C   UNL     1      -3.974  -0.190   2.490  0.00  0.00    +0.135 A 
ATOM     19  C   UNL     1      -4.097   1.122   2.919  0.00  0.00    +0.091 A 
ATOM     20  C   UNL     1      -3.071   2.018   2.706  0.00  0.00    +0.028 A 
ATOM     21  F   UNL     1      -4.980  -1.066   2.706  0.00  0.00    -0.205 F 
BRANCH  19  22
ATOM     22  C   UNL     1      -5.351   1.569   3.625  0.00  0.00    +0.420 C 
ATOM     23  F   UNL     1      -5.241   2.924   3.958  0.00  0.00    -0.166 F 
ATOM     24  F   UNL     1      -6.452   1.384   2.781  0.00  0.00    -0.166 F 
ATOM     25  F   UNL     1      -5.525   0.815   4.790  0.00  0.00    -0.166 F 
ENDBRANCH  19  22
ENDBRANCH  11  15
BRANCH   1  27
ATOM     26  N   UNL     1      -0.093   0.760  -3.299  0.00  0.00    -0.312 N 
ATOM     27  C   UNL     1      -0.105   1.237  -2.038  0.00  0.00    +0.218 C 
ATOM     28  O   UNL     1       0.121   0.494  -1.107  0.00  0.00    -0.275 OA
ATOM     29  H   UNL     1      -0.337   1.339  -4.038  0.00  0.00    +0.149 HD
BRANCH  26  31
ATOM     30  C   UNL     1       1.722  -0.676  -4.088  0.00  0.00    +0.028 C 
ATOM     31  C   UNL     1       0.290  -0.631  -3.552  0.00  0.00    +0.074 C 
BRANCH  31  32
ATOM     32  C   UNL     1      -0.661  -1.241  -4.585  0.00  0.00    +0.057 C 
BRANCH  32  33
ATOM     33  C   UNL     1      -0.659  -0.395  -5.831  0.00  0.00    -0.045 A 
ATOM     34  C   UNL     1      -1.448   0.739  -5.898  0.00  0.00    +0.006 A 
ATOM     35  C   UNL     1      -1.447   1.516  -7.040  0.00  0.00    +0.038 A 
ATOM     36  C   UNL     1      -0.655   1.159  -8.119  0.00  0.00    +0.123 A 
ATOM     37  C   UNL     1       0.135   0.024  -8.051  0.00  0.00    +0.038 A 
ATOM     38  C   UNL     1       0.136  -0.749  -6.905  0.00  0.00    +0.006 A 
ATOM     39  F   UNL     1      -0.653   1.918  -9.237  0.00  0.00    -0.205 F 
ENDBRANCH  32  33
ENDBRANCH  31  32
ENDBRANCH  26  31
ENDBRANCH   1  27
TORSDOF 6
