REMARK  Name = ZINC59594242
REMARK  6 active torsions:
REMARK  status: ('A' for Active; 'I' for Inactive)
REMARK    1  A    between atoms: C_1  and  N_2
REMARK    2  A    between atoms: N_2  and  C_3
REMARK    3  A    between atoms: N_2  and  N_13
REMARK    4  A    between atoms: C_4  and  N_10
REMARK    5  A    between atoms: C_14  and  C_15
REMARK    6  A    between atoms: C_20  and  O_21
REMARK                            x       y       z     vdW  Elec       q    Type
REMARK                         _______ _______ _______ _____ _____    ______ ____
ROOT
ATOM      1  C   UNL     1       0.566   1.835  -0.615  0.00  0.00    +0.158 C 
ATOM      2  N   UNL     1       0.411   0.379  -0.573  0.00  0.00    -0.224 N 
ENDROOT
BRANCH   2   3
ATOM      3  C   UNL     1       0.890  -0.343   0.521  0.00  0.00    +0.100 A 
ATOM      4  C   UNL     1       2.258  -0.448   0.742  0.00  0.00    +0.150 A 
ATOM      5  C   UNL     1       2.729  -1.163   1.825  0.00  0.00    +0.035 A 
ATOM      6  C   UNL     1       1.841  -1.775   2.691  0.00  0.00    +0.004 A 
ATOM      7  C   UNL     1       0.478  -1.674   2.475  0.00  0.00    +0.022 A 
ATOM      8  C   UNL     1      -0.001  -0.955   1.397  0.00  0.00    +0.066 A 
ATOM      9 CL   UNL     1      -1.711  -0.821   1.131  0.00  0.00    -0.081 Cl
BRANCH   4  10
ATOM     10  N   UNL     1       3.210   0.206  -0.185  0.00  0.00    +0.058 N 
ATOM     11  O   UNL     1       4.400   0.115   0.008  0.00  0.00    -0.126 OA
ATOM     12  O   UNL     1       2.798   0.832  -1.133  0.00  0.00    -0.126 OA
ENDBRANCH   4  10
ENDBRANCH   2   3
BRANCH   2  13
ATOM     13  N   UNL     1      -0.218  -0.289  -1.632  0.00  0.00    -0.187 NA
ATOM     14  C   UNL     1      -1.460  -0.036  -1.913  0.00  0.00    +0.142 C 
BRANCH  14  15
ATOM     15  C   UNL     1      -2.139   1.111  -1.283  0.00  0.00    +0.039 A 
ATOM     16  C   UNL     1      -1.662   1.635  -0.079  0.00  0.00    +0.033 A 
ATOM     17  C   UNL     1      -2.302   2.708   0.506  0.00  0.00    +0.043 A 
ATOM     18  C   UNL     1      -3.417   3.269  -0.097  0.00  0.00    +0.043 A 
ATOM     19  C   UNL     1      -3.898   2.759  -1.289  0.00  0.00    +0.084 A 
ATOM     20  C   UNL     1      -3.263   1.685  -1.892  0.00  0.00    +0.144 A 
ATOM     21 CL   UNL     1      -5.295   3.470  -2.035  0.00  0.00    -0.080 Cl
ATOM     22 CL   UNL     1      -1.709   3.358   2.002  0.00  0.00    -0.083 Cl
BRANCH  20  23
ATOM     23  O   UNL     1      -3.732   1.187  -3.066  0.00  0.00    -0.505 OA
ATOM     24  H   UNL     1      -4.445   0.542  -2.963  0.00  0.00    +0.292 HD
ENDBRANCH  20  23
ENDBRANCH  14  15
ENDBRANCH   2  13
TORSDOF 5
