REMARK  Name = ZINC10450631
REMARK  9 active torsions:
REMARK  status: ('A' for Active; 'I' for Inactive)
REMARK    1  A    between atoms: C_4  and  C_7
REMARK    2  A    between atoms: C_7  and  C_8
REMARK    3  A    between atoms: C_7  and  C_14
REMARK    4  A    between atoms: N_16  and  N_17
REMARK    5  A    between atoms: N_17  and  C_18
REMARK    6  A    between atoms: C_18  and  N_20
REMARK    7  A    between atoms: C_21  and  C_23
REMARK    8  A    between atoms: C_24  and  C_25
REMARK    9  A    between atoms: C_29  and  N_31
REMARK                            x       y       z     vdW  Elec       q    Type
REMARK                         _______ _______ _______ _____ _____    ______ ____
ROOT
ATOM      1  N   UNL     1       4.632  -3.381  -2.526  0.00  0.00    -0.246 N 
ATOM      2  H   UNL     1       3.848  -3.403  -3.097  0.00  0.00    +0.172 HD
ENDROOT
BRANCH   1   5
ATOM      3  C   UNL     1       3.652  -1.665  -1.200  0.00  0.00    +0.241 C 
ATOM      4  O   UNL     1       2.672  -1.691  -1.914  0.00  0.00    -0.273 OA
ATOM      5  N   UNL     1       4.687  -2.491  -1.446  0.00  0.00    -0.234 N 
ATOM      6  H   UNL     1       5.471  -2.470  -0.874  0.00  0.00    +0.173 HD
BRANCH   3   7
ATOM      7  C   UNL     1       3.711  -0.707  -0.038  0.00  0.00    +0.136 C 
BRANCH   7  11
ATOM      8  C   UNL     1       0.102   1.573   0.113  0.00  0.00    +0.000 A 
ATOM      9  C   UNL     1       1.325   2.216   0.082  0.00  0.00    +0.000 A 
ATOM     10  C   UNL     1       2.493   1.478   0.034  0.00  0.00    +0.005 A 
ATOM     11  C   UNL     1       2.438   0.097   0.016  0.00  0.00    -0.031 A 
ATOM     12  C   UNL     1       1.215  -0.546   0.048  0.00  0.00    +0.005 A 
ATOM     13  C   UNL     1       0.047   0.192   0.095  0.00  0.00    +0.000 A 
ENDBRANCH   7  11
BRANCH   7  14
ATOM     14  C   UNL     1       3.870  -1.483   1.245  0.00  0.00    -0.031 A 
ATOM     15  C   UNL     1       3.012  -2.528   1.531  0.00  0.00    +0.005 A 
ATOM     16  C   UNL     1       3.158  -3.240   2.707  0.00  0.00    +0.000 A 
ATOM     17  C   UNL     1       4.161  -2.906   3.597  0.00  0.00    +0.000 A 
ATOM     18  C   UNL     1       5.020  -1.861   3.310  0.00  0.00    +0.000 A 
ATOM     19  C   UNL     1       4.877  -1.153   2.132  0.00  0.00    +0.005 A 
ENDBRANCH   7  14
ENDBRANCH   3   7
ENDBRANCH   1   5
BRANCH   1  20
ATOM     20  C   UNL     1       5.668  -4.208  -2.772  0.00  0.00    +0.153 C 
ATOM     21  S   UNL     1       5.600  -5.296  -4.092  0.00  0.00    -0.017 S 
BRANCH  20  22
ATOM     22  N   UNL     1       6.757  -4.179  -1.978  0.00  0.00    -0.263 N 
ATOM     23  C   UNL     1       7.792  -5.005  -2.224  0.00  0.00    +0.242 C 
ATOM     24  O   UNL     1       7.744  -5.779  -3.162  0.00  0.00    -0.270 OA
ATOM     25  H   UNL     1       6.795  -3.562  -1.230  0.00  0.00    +0.157 HD
BRANCH  23  26
ATOM     26  C   UNL     1       8.974  -4.973  -1.362  0.00  0.00    +0.068 C 
ATOM     27  C   UNL     1      10.011  -5.801  -1.608  0.00  0.00    +0.013 C 
BRANCH  27  28
ATOM     28  C   UNL     1      11.200  -5.769  -0.741  0.00  0.00    -0.023 A 
ATOM     29  C   UNL     1      11.256  -4.885   0.342  0.00  0.00    +0.008 A 
ATOM     30  C   UNL     1      12.374  -4.861   1.149  0.00  0.00    +0.003 A 
ATOM     31  C   UNL     1      13.438  -5.707   0.890  0.00  0.00    +0.033 A 
ATOM     32  C   UNL     1      13.389  -6.584  -0.180  0.00  0.00    +0.127 A 
ATOM     33  C   UNL     1      12.276  -6.625  -0.993  0.00  0.00    +0.040 A 
BRANCH  32  34
ATOM     34  N   UNL     1      14.533  -7.485  -0.448  0.00  0.00    +0.056 N 
ATOM     35  O   UNL     1      15.508  -7.454   0.266  0.00  0.00    -0.126 OA
ATOM     36  O   UNL     1      14.492  -8.251  -1.383  0.00  0.00    -0.126 OA
ENDBRANCH  32  34
ENDBRANCH  27  28
ENDBRANCH  23  26
ENDBRANCH  20  22
ENDBRANCH   1  20
TORSDOF 9
