REMARK  Name = ZINC40428574
REMARK  7 active torsions:
REMARK  status: ('A' for Active; 'I' for Inactive)
REMARK    1  A    between atoms: C_1  and  C_2
REMARK    2  A    between atoms: C_3  and  C_25
REMARK    3  A    between atoms: N_5  and  C_17
REMARK    4  A    between atoms: C_6  and  O_7
REMARK    5  A    between atoms: O_7  and  C_8
REMARK    6  A    between atoms: C_9  and  N_16
REMARK    7  A    between atoms: C_12  and  C_14
REMARK                            x       y       z     vdW  Elec       q    Type
REMARK                         _______ _______ _______ _____ _____    ______ ____
ROOT
ATOM      1  C   UNL     1      -0.448   1.440  -0.028  0.00  0.00    +0.051 C 
ATOM      2  C   UNL     1      -0.184  -0.043  -0.012  0.00  0.00    +0.034 A 
ATOM      3  C   UNL     1      -0.068  -0.871  -1.132  0.00  0.00    +0.067 A 
ATOM      4  N   UNL     1       0.160  -2.093  -0.723  0.00  0.00    -0.168 NA
ATOM      5  N   UNL     1       0.198  -2.090   0.677  0.00  0.00    -0.200 N 
ATOM      6  C   UNL     1      -0.011  -0.813   1.096  0.00  0.00    +0.229 A 
ATOM      7  C   UNL     1      -0.185  -0.431  -2.569  0.00  0.00    +0.068 C 
ENDROOT
BRANCH   5   8
ATOM      8  C   UNL     1       0.418  -3.203   1.500  0.00  0.00    +0.071 A 
ATOM      9  C   UNL     1       1.234  -3.091   2.618  0.00  0.00    +0.029 A 
ATOM     10  C   UNL     1       1.449  -4.189   3.428  0.00  0.00    +0.023 A 
ATOM     11  C   UNL     1       0.853  -5.401   3.127  0.00  0.00    +0.059 A 
ATOM     12  C   UNL     1       0.039  -5.516   2.012  0.00  0.00    +0.061 A 
ATOM     13  C   UNL     1      -0.184  -4.418   1.202  0.00  0.00    +0.049 A 
ATOM     14 CL   UNL     1      -0.707  -7.037   1.636  0.00  0.00    -0.082 Cl
ATOM     15 CL   UNL     1       1.127  -6.779   4.146  0.00  0.00    -0.082 Cl
ENDBRANCH   5   8
BRANCH   6  16
ATOM     16  O   UNL     1      -0.045  -0.385   2.384  0.00  0.00    -0.418 OA
BRANCH  16  17
ATOM     17  C   UNL     1      -1.232  -0.429   3.038  0.00  0.00    +0.248 A 
ATOM     18  C   UNL     1      -1.350   0.089   4.333  0.00  0.00    +0.125 A 
ATOM     19  C   UNL     1      -2.589   0.019   4.958  0.00  0.00    +0.157 A 
ATOM     20  N   UNL     1      -3.607  -0.531   4.311  0.00  0.00    -0.219 NA
ATOM     21  C   UNL     1      -3.458  -1.008   3.092  0.00  0.00    +0.132 A 
ATOM     22  N   UNL     1      -2.303  -0.959   2.459  0.00  0.00    -0.196 NA
ATOM     23  C   UNL     1      -4.645  -1.625   2.398  0.00  0.00    +0.088 C 
ATOM     24 CL   UNL     1      -2.800   0.643   6.564  0.00  0.00    -0.060 Cl
BRANCH  18  25
ATOM     25  N   UNL     1      -0.248   0.662   4.981  0.00  0.00    -0.351 N 
ATOM     26  H   UNL     1       0.611   0.703   4.532  0.00  0.00    +0.143 HD
ATOM     27  H   UNL     1      -0.344   1.017   5.878  0.00  0.00    +0.143 HD
ENDBRANCH  18  25
ENDBRANCH  16  17
ENDBRANCH   6  16
TORSDOF 4
