REMARK  Name = ZINC39933428
REMARK  12 active torsions:
REMARK  status: ('A' for Active; 'I' for Inactive)
REMARK    1  A    between atoms: C_1  and  C_2
REMARK    2  A    between atoms: C_7  and  O_8
REMARK    3  A    between atoms: O_8  and  C_9
REMARK    4  A    between atoms: C_9  and  C_10
REMARK    5  A    between atoms: C_12  and  S_16
REMARK    6  A    between atoms: S_16  and  C_17
REMARK    7  A    between atoms: C_17  and  C_18
REMARK    8  A    between atoms: N_20  and  C_21
REMARK    9  A    between atoms: C_23  and  C_37
REMARK   10  A    between atoms: C_24  and  C_36
REMARK   11  A    between atoms: C_25  and  C_35
REMARK   12  A    between atoms: N_27  and  C_28
REMARK                            x       y       z     vdW  Elec       q    Type
REMARK                         _______ _______ _______ _____ _____    ______ ____
ROOT
ATOM      1  C   UNL     1       4.557   2.415   8.077  0.00  0.00    +0.225 C 
ATOM      2  O   UNL     1       4.317   3.038   9.089  0.00  0.00    -0.275 OA
ATOM      3  N   UNL     1       5.825   2.317   7.631  0.00  0.00    -0.292 N 
ATOM      4  H   UNL     1       6.029   1.753   6.869  0.00  0.00    +0.151 HD
ENDROOT
BRANCH   3   5
ATOM      5  C   UNL     1       6.895   3.064   8.297  0.00  0.00    +0.203 C 
ATOM      6  C   UNL     1       8.084   2.167   8.518  0.00  0.00    +0.068 C 
ATOM      7  C   UNL     1       9.139   2.654   7.881  0.00  0.00    -0.036 C 
ATOM      8  C   UNL     1       8.761   3.926   7.168  0.00  0.00    +0.099 C 
ATOM      9  N   UNL     1       7.336   4.175   7.443  0.00  0.00    -0.300 N 
ATOM     10  C   UNL     1       8.986   3.766   5.663  0.00  0.00    +0.033 C 
ATOM     11  C   UNL     1      10.511   2.029   7.870  0.00  0.00    +0.042 C 
BRANCH   9  12
ATOM     12  C   UNL     1       6.562   5.244   6.985  0.00  0.00    +0.035 A 
ATOM     13  C   UNL     1       7.128   6.213   6.166  0.00  0.00    +0.023 A 
ATOM     14  C   UNL     1       6.361   7.268   5.715  0.00  0.00    +0.005 A 
ATOM     15  C   UNL     1       5.030   7.363   6.077  0.00  0.00    +0.038 A 
ATOM     16  C   UNL     1       4.461   6.399   6.894  0.00  0.00    +0.125 A 
ATOM     17  C   UNL     1       5.224   5.337   7.344  0.00  0.00    +0.061 A 
ATOM     18  F   UNL     1       3.161   6.495   7.246  0.00  0.00    -0.205 F 
ENDBRANCH   9  12
BRANCH   6  19
ATOM     19  C   UNL     1       8.077   0.968   9.302  0.00  0.00    +0.098 C 
ATOM     20  N   UNL     1       8.071   0.017   9.923  0.00  0.00    -0.191 NA
ENDBRANCH   6  19
ENDBRANCH   3   5
BRANCH   1  21
ATOM     21  C   UNL     1       3.438   1.749   7.319  0.00  0.00    +0.173 C 
BRANCH  21  22
ATOM     22  S   UNL     1       1.865   2.060   8.165  0.00  0.00    -0.077 S 
BRANCH  22  25
ATOM     23  C   UNL     1      -0.218   0.055   5.580  0.00  0.00    +0.189 A 
ATOM     24  N   UNL     1       0.920   0.548   6.069  0.00  0.00    -0.202 NA
ATOM     25  C   UNL     1       0.673   1.228   7.169  0.00  0.00    +0.185 A 
ATOM     26  N   UNL     1      -0.657   1.174   7.398  0.00  0.00    -0.253 N 
ATOM     27  H   UNL     1      -1.137   1.582   8.136  0.00  0.00    +0.191 HD
ATOM     28  N   UNL     1      -1.208   0.414   6.353  0.00  0.00    -0.153 NA
BRANCH  23  29
ATOM     29  C   UNL     1      -0.344  -0.780   4.332  0.00  0.00    +0.306 C 
BRANCH  29  30
ATOM     30  O   UNL     1      -0.548   0.076   3.206  0.00  0.00    -0.484 OA
BRANCH  30  37
ATOM     31  C   UNL     1      -0.955   1.750   0.967  0.00  0.00    +0.047 C 
ATOM     32  C   UNL     1      -0.884   0.248   0.857  0.00  0.00    -0.009 A 
ATOM     33  C   UNL     1      -1.013  -0.362  -0.376  0.00  0.00    +0.007 A 
ATOM     34  C   UNL     1      -0.949  -1.739  -0.477  0.00  0.00    +0.000 A 
ATOM     35  C   UNL     1      -0.754  -2.509   0.654  0.00  0.00    +0.004 A 
ATOM     36  C   UNL     1      -0.623  -1.904   1.889  0.00  0.00    +0.046 A 
ATOM     37  C   UNL     1      -0.682  -0.522   1.993  0.00  0.00    +0.124 A 
ENDBRANCH  30  37
ENDBRANCH  29  30
ENDBRANCH  23  29
ENDBRANCH  22  25
ENDBRANCH  21  22
ENDBRANCH   1  21
TORSDOF 9
