REMARK  Name = ZINC36206661
REMARK  19 active torsions:
REMARK  status: ('A' for Active; 'I' for Inactive)
REMARK    1  A    between atoms: C_1  and  C_2
REMARK    2  A    between atoms: C_2  and  O_3
REMARK    3  A    between atoms: O_3  and  C_4
REMARK    4  A    between atoms: C_4  and  C_6
REMARK    5  A    between atoms: C_7  and  C_32
REMARK    6  A    between atoms: C_13  and  C_17
REMARK    7  A    between atoms: C_17  and  N_18
REMARK    8  A    between atoms: N_18  and  C_19
REMARK    9  A    between atoms: N_18  and  C_29
REMARK   10  A    between atoms: C_19  and  C_20
REMARK   11  A    between atoms: C_20  and  C_22
REMARK   12  A    between atoms: C_20  and  O_28
REMARK   13  A    between atoms: C_22  and  O_23
REMARK   14  A    between atoms: O_23  and  C_24
REMARK   15  A    between atoms: C_24  and  C_25
REMARK   16  A    between atoms: C_24  and  C_26
REMARK   17  A    between atoms: C_24  and  C_27
REMARK   18  A    between atoms: C_29  and  C_30
REMARK   19  A    between atoms: C_29  and  C_31
REMARK                            x       y       z     vdW  Elec       q    Type
REMARK                         _______ _______ _______ _____ _____    ______ ____
ROOT
ATOM      1  C   UNL     1       5.396  -2.755  -1.580  0.00  0.00    +0.102 A 
ATOM      2  C   UNL     1       5.305  -4.029  -2.061  0.00  0.00    -0.015 A 
ATOM      3  C   UNL     1       5.187  -4.246  -3.435  0.00  0.00    +0.076 A 
ATOM      4  C   UNL     1       5.076  -5.524  -4.174  0.00  0.00    +0.260 A 
ATOM      5  O   UNL     1       5.078  -6.590  -3.584  0.00  0.00    -0.267 OA
ATOM      6  N   UNL     1       4.972  -5.478  -5.517  0.00  0.00    -0.312 N 
ATOM      7  H   UNL     1       4.898  -6.306  -6.016  0.00  0.00    +0.170 HD
ATOM      8  C   UNL     1       4.968  -4.298  -6.184  0.00  0.00    +0.094 A 
ATOM      9  N   UNL     1       5.064  -3.153  -5.563  0.00  0.00    -0.229 NA
ATOM     10  C   UNL     1       5.171  -3.086  -4.242  0.00  0.00    +0.116 A 
ATOM     11  S   UNL     1       5.311  -1.766  -3.063  0.00  0.00    -0.062 S 
ATOM     12  C   UNL     1       5.332  -5.199  -1.111  0.00  0.00    +0.046 C 
ENDROOT
BRANCH   1  13
ATOM     13  C   UNL     1       5.524  -2.309  -0.191  0.00  0.00    +0.346 C 
ATOM     14  O   UNL     1       5.567  -3.127   0.709  0.00  0.00    -0.244 OA
BRANCH  13  15
ATOM     15  O   UNL     1       5.595  -0.992   0.091  0.00  0.00    -0.461 OA
BRANCH  15  17
ATOM     16  C   UNL     1       5.785   0.895   1.590  0.00  0.00    +0.048 C 
ATOM     17  C   UNL     1       5.720  -0.629   1.468  0.00  0.00    +0.229 C 
ENDBRANCH  15  17
ENDBRANCH  13  15
ENDBRANCH   1  13
BRANCH   8  18
ATOM     18  C   UNL     1       4.849  -4.307  -7.686  0.00  0.00    -0.003 C 
BRANCH  18  19
ATOM     19  N   UNL     1       4.685  -2.931  -8.173  0.00  0.00    +0.388 N 
ATOM     20  H   UNL     1       5.231  -2.305  -7.601  0.00  0.00    -0.081 HD
BRANCH  19  21
ATOM     21  C   UNL     1       3.268  -2.551  -8.099  0.00  0.00    -0.074 C 
ATOM     22  C   UNL     1       2.437  -3.510  -8.954  0.00  0.00    -0.014 C 
ATOM     23  C   UNL     1       2.796  -2.623  -6.646  0.00  0.00    -0.014 C 
ENDBRANCH  19  21
BRANCH  19  24
ATOM     24  C   UNL     1       5.142  -2.847  -9.567  0.00  0.00    -0.044 C 
BRANCH  24  25
ATOM     25  C   UNL     1       5.109  -1.388 -10.027  0.00  0.00    +0.124 C 
BRANCH  25  26
ATOM     26  O   UNL     1       6.006  -0.615  -9.227  0.00  0.00    -0.391 OA
ATOM     27  H   UNL     1       6.926  -0.908  -9.273  0.00  0.00    +0.210 HD
ENDBRANCH  25  26
BRANCH  25  28
ATOM     28  C   UNL     1       5.535  -1.307 -11.494  0.00  0.00    +0.189 C 
BRANCH  28  29
ATOM     29  O   UNL     1       5.393   0.037 -11.958  0.00  0.00    -0.372 OA
BRANCH  29  30
ATOM     30  C   UNL     1       5.766   0.224 -13.325  0.00  0.00    +0.061 C 
ATOM     31  C   UNL     1       4.890  -0.657 -14.217  0.00  0.00    +0.041 C 
ATOM     32  C   UNL     1       5.574   1.692 -13.710  0.00  0.00    +0.041 C 
ATOM     33  C   UNL     1       7.235  -0.164 -13.509  0.00  0.00    +0.041 C 
ENDBRANCH  29  30
ENDBRANCH  28  29
ENDBRANCH  25  28
ENDBRANCH  24  25
ENDBRANCH  19  24
ENDBRANCH  18  19
ENDBRANCH   8  18
TORSDOF 12
