REMARK  Name = ZINC39462797
REMARK  7 active torsions:
REMARK  status: ('A' for Active; 'I' for Inactive)
REMARK    1  A    between atoms: C_1  and  C_2
REMARK    2  A    between atoms: C_2  and  O_3
REMARK    3  A    between atoms: O_3  and  C_4
REMARK    4  A    between atoms: C_4  and  C_6
REMARK    5  A    between atoms: C_7  and  N_26
REMARK    6  A    between atoms: C_12  and  C_15
REMARK    7  A    between atoms: C_16  and  C_18
REMARK                            x       y       z     vdW  Elec       q    Type
REMARK                         _______ _______ _______ _____ _____    ______ ____
ROOT
ATOM      1  C   UNL     1       1.429  -2.322  -2.462  0.00  0.00    +0.105 C 
ATOM      2  C   UNL     1       1.602  -3.660  -2.564  0.00  0.00    +0.191 C 
ATOM      3  O   UNL     1       2.211  -4.315  -3.567  0.00  0.00    -0.449 OA
ATOM      4  C   UNL     1       2.318  -3.646  -4.826  0.00  0.00    +0.343 C 
ATOM      5  C   UNL     1       2.725  -2.212  -4.486  0.00  0.00    +0.029 C 
ATOM      6  C   UNL     1       3.865  -2.024  -5.105  0.00  0.00    +0.066 C 
ATOM      7  N   UNL     1       4.255  -3.164  -5.731  0.00  0.00    -0.155 NA
ATOM      8  N   UNL     1       3.461  -4.123  -5.612  0.00  0.00    -0.138 NA
ATOM      9  C   UNL     1       4.635  -0.728  -5.118  0.00  0.00    +0.067 C 
ATOM     10  C   UNL     1       1.901  -1.372  -3.547  0.00  0.00    +0.095 C 
ENDROOT
BRANCH  10  11
ATOM     11  C   UNL     1       0.719  -0.780  -4.271  0.00  0.00    -0.017 A 
ATOM     12  C   UNL     1      -0.175  -1.607  -4.925  0.00  0.00    +0.007 A 
ATOM     13  C   UNL     1      -1.259  -1.065  -5.589  0.00  0.00    +0.020 A 
ATOM     14  C   UNL     1      -1.450   0.306  -5.599  0.00  0.00    +0.042 A 
ATOM     15  C   UNL     1      -0.556   1.133  -4.945  0.00  0.00    +0.040 A 
ATOM     16  C   UNL     1       0.526   0.590  -4.276  0.00  0.00    +0.046 A 
ATOM     17 CL   UNL     1       1.646   1.627  -3.449  0.00  0.00    -0.083 Cl
ATOM     18 CL   UNL     1      -2.812   0.987  -6.434  0.00  0.00    -0.083 Cl
ENDBRANCH  10  11
BRANCH   2  19
ATOM     19  N   UNL     1       1.105  -4.424  -1.543  0.00  0.00    -0.329 N 
ATOM     20  H   UNL     1       0.588  -4.010  -0.835  0.00  0.00    +0.145 HD
ATOM     21  H   UNL     1       1.271  -5.379  -1.527  0.00  0.00    +0.145 HD
ENDBRANCH   2  19
BRANCH   1  22
ATOM     22  C   UNL     1       0.793  -1.800  -1.326  0.00  0.00    +0.341 C 
ATOM     23  O   UNL     1       1.455  -1.308  -0.430  0.00  0.00    -0.245 OA
BRANCH  22  24
ATOM     24  O   UNL     1      -0.553  -1.845  -1.226  0.00  0.00    -0.462 OA
BRANCH  24  26
ATOM     25  C   UNL     1      -2.656  -1.434  -0.107  0.00  0.00    +0.048 C 
ATOM     26  C   UNL     1      -1.134  -1.295  -0.041  0.00  0.00    +0.229 C 
ENDBRANCH  24  26
ENDBRANCH  22  24
ENDBRANCH   1  22
TORSDOF 5
