REMARK  Name = ZINC39306060
REMARK  4 active torsions:
REMARK  status: ('A' for Active; 'I' for Inactive)
REMARK    1  A    between atoms: C_13  and  S_14
REMARK    2  A    between atoms: S_14  and  C_15
REMARK    3  A    between atoms: C_15  and  C_16
REMARK    4  A    between atoms: C_22  and  N_26
REMARK                            x       y       z     vdW  Elec       q    Type
REMARK                         _______ _______ _______ _____ _____    ______ ____
ROOT
ATOM      1  S   UNL     1      -0.675  -3.414   1.429  0.00  0.00    -0.081 S 
ENDROOT
BRANCH   1  13
ATOM      2  C   UNL     1      -0.017   1.373   0.010  0.00  0.00    +0.002 A 
ATOM      3  C   UNL     1       1.157   2.105   0.002  0.00  0.00    +0.001 A 
ATOM      4  C   UNL     1       2.370   1.436  -0.042  0.00  0.00    +0.016 A 
ATOM      5  C   UNL     1       2.390   0.066  -0.066  0.00  0.00    +0.033 A 
ATOM      6  C   UNL     1       1.212  -0.706  -0.007  0.00  0.00    +0.052 A 
ATOM      7  C   UNL     1       0.002  -0.004   0.002  0.00  0.00    +0.025 A 
ATOM      8  N   UNL     1       1.395  -2.094   0.104  0.00  0.00    -0.248 N 
ATOM      9  C   UNL     1       2.598  -2.546  -0.669  0.00  0.00    +0.246 C 
ATOM     10  S   UNL     1       3.697  -1.145  -0.192  0.00  0.00    -0.080 S 
ATOM     11  N   UNL     1       2.973  -3.781   0.023  0.00  0.00    -0.236 N 
ATOM     12  N   UNL     1       1.818  -4.181   0.715  0.00  0.00    -0.162 NA
ATOM     13  C   UNL     1       0.932  -3.244   0.728  0.00  0.00    +0.180 C 
ATOM     14  H   UNL     1       3.834  -4.227   0.007  0.00  0.00    +0.171 HD
ENDBRANCH   1  13
BRANCH   1  15
ATOM     15  C   UNL     1      -0.691  -5.106   2.085  0.00  0.00    +0.151 C 
BRANCH  15  16
ATOM     16  C   UNL     1      -2.028  -5.386   2.721  0.00  0.00    +0.118 A 
ATOM     17  H   UNL     1      -1.736  -4.798   4.702  0.00  0.00    +0.167 HD
ATOM     18  N   UNL     1      -3.058  -5.883   2.102  0.00  0.00    -0.232 NA
ATOM     19  C   UNL     1      -4.096  -6.006   2.968  0.00  0.00    +0.089 A 
ATOM     20  C   UNL     1      -5.408  -6.471   2.842  0.00  0.00    +0.032 A 
ATOM     21  C   UNL     1      -6.238  -6.471   3.927  0.00  0.00    +0.035 A 
ATOM     22  C   UNL     1      -5.793  -6.012   5.158  0.00  0.00    +0.128 A 
ATOM     23  C   UNL     1      -4.503  -5.548   5.306  0.00  0.00    +0.060 A 
ATOM     24  C   UNL     1      -3.645  -5.541   4.216  0.00  0.00    +0.068 A 
ATOM     25  N   UNL     1      -2.331  -5.161   4.028  0.00  0.00    -0.341 N 
BRANCH  22  26
ATOM     26  N   UNL     1      -6.710  -6.020   6.321  0.00  0.00    +0.056 N 
ATOM     27  O   UNL     1      -7.841  -6.425   6.195  0.00  0.00    -0.126 OA
ATOM     28  O   UNL     1      -6.326  -5.621   7.395  0.00  0.00    -0.126 OA
ENDBRANCH  22  26
ENDBRANCH  15  16
ENDBRANCH   1  15
TORSDOF 4
