REMARK  Name = ZINC49436350
REMARK  4 active torsions:
REMARK  status: ('A' for Active; 'I' for Inactive)
REMARK    1  A    between atoms: C_11  and  C_13
REMARK    2  A    between atoms: C_13  and  C_15
REMARK    3  A    between atoms: C_15  and  C_17
REMARK    4  A    between atoms: C_15  and  C_19
REMARK                            x       y       z     vdW  Elec       q    Type
REMARK                         _______ _______ _______ _____ _____    ______ ____
ROOT
ATOM      1  C   UNL     1       0.437  -6.954  -0.037  0.00  0.00    +0.230 C 
ENDROOT
BRANCH   1   2
ATOM      2  C   UNL     1       0.578  -8.280   0.665  0.00  0.00    +0.161 A 
ATOM      3  N   UNL     1       1.423  -9.184   0.202  0.00  0.00    -0.198 NA
ATOM      4  C   UNL     1       1.550 -10.357   0.820  0.00  0.00    +0.217 A 
ATOM      5  N   UNL     1       0.826 -10.617   1.903  0.00  0.00    -0.181 NA
ATOM      6  C   UNL     1      -0.023  -9.705   2.365  0.00  0.00    +0.217 A 
ATOM      7  N   UNL     1      -0.777  -9.970   3.490  0.00  0.00    -0.327 N 
ATOM      8  N   UNL     1      -0.140  -8.533   1.745  0.00  0.00    -0.198 NA
ATOM      9  N   UNL     1       2.432 -11.301   0.335  0.00  0.00    -0.327 N 
ATOM     10  H   UNL     1      -0.688 -10.823   3.943  0.00  0.00    +0.145 HD
ATOM     11  H   UNL     1       2.960 -11.111  -0.456  0.00  0.00    +0.145 HD
ATOM     12  H   UNL     1       2.523 -12.155   0.785  0.00  0.00    +0.145 HD
ATOM     13  H   UNL     1      -1.396  -9.304   3.827  0.00  0.00    +0.145 HD
ENDBRANCH   1   2
BRANCH   1  14
ATOM     14  C   UNL     1       1.768  -6.247  -0.047  0.00  0.00    +0.194 C 
ATOM     15  O   UNL     1       2.798  -6.891  -0.060  0.00  0.00    -0.290 OA
BRANCH  14  26
ATOM     16  C   UNL     1      -0.016   1.356   0.009  0.00  0.00    +0.001 A 
ATOM     17  C   UNL     1       1.158   2.095   0.002  0.00  0.00    +0.001 A 
ATOM     18  C   UNL     1       2.374   1.441  -0.013  0.00  0.00    +0.016 A 
ATOM     19  C   UNL     1       2.405   0.061  -0.021  0.00  0.00    +0.021 A 
ATOM     20  C   UNL     1       1.228  -0.710  -0.013  0.00  0.00    +0.004 A 
ATOM     21  C   UNL     1       0.002  -0.004   0.002  0.00  0.00    +0.010 A 
ATOM     22  C   UNL     1       1.430  -2.160  -0.023  0.00  0.00    +0.035 A 
ATOM     23  C   UNL     1       2.742  -2.635  -0.038  0.00  0.00    +0.028 A 
ATOM     24  S   UNL     1       3.713  -1.133  -0.039  0.00  0.00    -0.088 S 
ATOM     25  C   UNL     1       2.927  -4.007  -0.046  0.00  0.00    +0.034 A 
ATOM     26  C   UNL     1       1.819  -4.837  -0.040  0.00  0.00    +0.058 A 
ATOM     27  S   UNL     1       0.470  -3.670  -0.022  0.00  0.00    -0.084 S 
ENDBRANCH  14  26
ENDBRANCH   1  14
BRANCH   1  28
ATOM     28  C   UNL     1      -0.010  -7.177  -1.422  0.00  0.00    +0.082 C 
ATOM     29  N   UNL     1      -0.355  -7.349  -2.490  0.00  0.00    -0.195 NA
ENDBRANCH   1  28
TORSDOF 4
