REMARK  Name = ZINC36556634
REMARK  15 active torsions:
REMARK  status: ('A' for Active; 'I' for Inactive)
REMARK    1  A    between atoms: C_1  and  C_2
REMARK    2  A    between atoms: C_5  and  S_8
REMARK    3  A    between atoms: S_8  and  N_11
REMARK    4  A    between atoms: N_11  and  N_12
REMARK    5  A    between atoms: C_15  and  C_38
REMARK    6  A    between atoms: C_15  and  O_39
REMARK    7  A    between atoms: C_16  and  C_34
REMARK    8  A    between atoms: C_18  and  C_26
REMARK    9  A    between atoms: C_20  and  C_22
REMARK   10  A    between atoms: C_22  and  O_24
REMARK   11  A    between atoms: O_24  and  C_25
REMARK   12  A    between atoms: C_29  and  O_32
REMARK   13  A    between atoms: O_32  and  C_33
REMARK   14  A    between atoms: C_34  and  O_36
REMARK   15  A    between atoms: O_36  and  C_37
REMARK                            x       y       z     vdW  Elec       q    Type
REMARK                         _______ _______ _______ _____ _____    ______ ____
ROOT
ATOM      1  N   UNL     1       5.251  -4.410  -0.229  0.00  0.00    -0.174 NA
ATOM      2  C   UNL     1       5.720  -4.494   0.959  0.00  0.00    +0.055 C 
ATOM      3  C   UNL     1       6.967  -3.736   1.356  0.00  0.00    +0.088 C 
ATOM      4  C   UNL     1       6.671  -2.948   2.637  0.00  0.00    +0.082 C 
ATOM      5  C   UNL     1       6.145  -3.902   3.710  0.00  0.00    +0.138 C 
ATOM      6  C   UNL     1       4.815  -4.508   3.259  0.00  0.00    +0.055 C 
ATOM      7  C   UNL     1       5.038  -5.350   2.003  0.00  0.00    +0.152 C 
ATOM      8  C   UNL     1       5.618  -1.877   2.345  0.00  0.00    +0.042 C 
ENDROOT
BRANCH   6   9
ATOM      9  C   UNL     1       4.260  -5.378   4.358  0.00  0.00    -0.042 A 
ATOM     10  C   UNL     1       2.898  -5.599   4.442  0.00  0.00    +0.007 A 
ATOM     11  C   UNL     1       2.387  -6.395   5.448  0.00  0.00    +0.046 A 
ATOM     12  C   UNL     1       3.242  -6.974   6.375  0.00  0.00    +0.120 A 
ATOM     13  C   UNL     1       4.609  -6.751   6.288  0.00  0.00    +0.046 A 
ATOM     14  C   UNL     1       5.115  -5.957   5.277  0.00  0.00    +0.007 A 
BRANCH  12  15
ATOM     15  O   UNL     1       2.742  -7.757   7.366  0.00  0.00    -0.495 OA
ATOM     16  C   UNL     1       3.681  -8.320   8.285  0.00  0.00    +0.277 C 
ENDBRANCH  12  15
ENDBRANCH   6   9
BRANCH   1  17
ATOM     17  N   UNL     1       5.962  -3.715  -1.216  0.00  0.00    -0.137 N 
ATOM     18  H   UNL     1       6.836  -3.345  -1.014  0.00  0.00    +0.197 HD
BRANCH  17  19
ATOM     19  S   UNL     1       5.311  -3.523  -2.726  0.00  0.00    +0.086 S 
ATOM     20  O   UNL     1       4.970  -4.823  -3.189  0.00  0.00    -0.149 OA
ATOM     21  O   UNL     1       6.190  -2.666  -3.442  0.00  0.00    -0.149 OA
BRANCH  19  26
ATOM     22  C   UNL     1       0.125  -0.511  -2.068  0.00  0.00    +0.044 C 
ATOM     23  C   UNL     1       1.420  -1.263  -2.232  0.00  0.00    -0.050 A 
ATOM     24  C   UNL     1       2.601  -0.572  -2.428  0.00  0.00    +0.005 A 
ATOM     25  C   UNL     1       3.789  -1.262  -2.579  0.00  0.00    +0.029 A 
ATOM     26  C   UNL     1       3.797  -2.643  -2.533  0.00  0.00    +0.110 A 
ATOM     27  C   UNL     1       2.616  -3.335  -2.336  0.00  0.00    +0.029 A 
ATOM     28  C   UNL     1       1.428  -2.645  -2.181  0.00  0.00    +0.005 A 
ENDBRANCH  19  26
ENDBRANCH  17  19
ENDBRANCH   1  17
BRANCH   7  29
ATOM     29  C   UNL     1       5.911  -6.531   2.339  0.00  0.00    +0.316 C 
ATOM     30  O   UNL     1       7.112  -6.438   2.253  0.00  0.00    -0.250 OA
BRANCH  29  31
ATOM     31  O   UNL     1       5.354  -7.687   2.734  0.00  0.00    -0.467 OA
ATOM     32  C   UNL     1       6.242  -8.765   3.036  0.00  0.00    +0.280 C 
ENDBRANCH  29  31
ENDBRANCH   7  29
BRANCH   5  33
ATOM     33  C   UNL     1       5.939  -3.145   4.996  0.00  0.00    +0.313 C 
ATOM     34  O   UNL     1       4.840  -3.090   5.496  0.00  0.00    -0.250 OA
BRANCH  33  35
ATOM     35  O   UNL     1       6.976  -2.530   5.587  0.00  0.00    -0.468 OA
ATOM     36  C   UNL     1       6.707  -1.831   6.804  0.00  0.00    +0.280 C 
ENDBRANCH  33  35
ENDBRANCH   5  33
BRANCH   4  37
ATOM     37  O   UNL     1       7.870  -2.324   3.100  0.00  0.00    -0.388 OA
ATOM     38  H   UNL     1       8.261  -1.705   2.468  0.00  0.00    +0.210 HD
ENDBRANCH   4  37
TORSDOF 10
