REMARK  Name = ZINC05928164
REMARK  10 active torsions:
REMARK  status: ('A' for Active; 'I' for Inactive)
REMARK    1  A    between atoms: C_1  and  C_2
REMARK    2  A    between atoms: C_2  and  C_3
REMARK    3  A    between atoms: C_3  and  C_5
REMARK    4  A    between atoms: C_3  and  C_6
REMARK    5  A    between atoms: C_9  and  N_12
REMARK    6  A    between atoms: C_13  and  C_15
REMARK    7  A    between atoms: C_15  and  S_16
REMARK    8  A    between atoms: S_16  and  C_17
REMARK    9  A    between atoms: C_20  and  C_28
REMARK   10  A    between atoms: N_21  and  C_22
REMARK                            x       y       z     vdW  Elec       q    Type
REMARK                         _______ _______ _______ _____ _____    ______ ____
ROOT
ATOM      1  C   UNL     1      -7.107   5.542   9.287  0.00  0.00    +0.197 A 
ATOM      2  N   UNL     1      -6.339   6.293  10.044  0.00  0.00    -0.122 NA
ATOM      3  N   UNL     1      -7.001   6.720  11.060  0.00  0.00    -0.126 NA
ATOM      4  C   UNL     1      -8.233   6.267  11.017  0.00  0.00    +0.190 A 
ATOM      5  N   UNL     1      -8.342   5.501   9.876  0.00  0.00    -0.269 N 
ENDROOT
BRANCH   4   6
ATOM      6  C   UNL     1      -9.301   6.533  12.000  0.00  0.00    +0.137 A 
ATOM      7  C   UNL     1      -9.181   7.354  13.211  0.00  0.00    +0.030 A 
ATOM      8  C   UNL     1      -8.140   8.084  13.789  0.00  0.00    +0.012 A 
ATOM      9  C   UNL     1      -8.355   8.761  14.955  0.00  0.00    +0.001 A 
ATOM     10  C   UNL     1      -9.599   8.731  15.571  0.00  0.00    +0.002 A 
ATOM     11  C   UNL     1     -10.633   8.024  15.024  0.00  0.00    +0.028 A 
ATOM     12  C   UNL     1     -10.441   7.324  13.835  0.00  0.00    +0.066 A 
ATOM     13  N   UNL     1     -11.255   6.542  13.055  0.00  0.00    -0.276 N 
ATOM     14  H   UNL     1     -12.214   6.333  13.248  0.00  0.00    +0.189 HD
ATOM     15  N   UNL     1     -10.534   6.083  11.949  0.00  0.00    -0.170 NA
ENDBRANCH   4   6
BRANCH   5  16
ATOM     16  C   UNL     1      -9.478   4.822   9.415  0.00  0.00    +0.051 A 
ATOM     17  C   UNL     1     -10.605   5.535   9.027  0.00  0.00    +0.026 A 
ATOM     18  C   UNL     1     -11.722   4.863   8.570  0.00  0.00    +0.002 A 
ATOM     19  C   UNL     1     -11.722   3.481   8.508  0.00  0.00    +0.000 A 
ATOM     20  C   UNL     1     -10.603   2.769   8.899  0.00  0.00    +0.002 A 
ATOM     21  C   UNL     1      -9.482   3.435   9.352  0.00  0.00    +0.026 A 
ENDBRANCH   5  16
BRANCH   1  22
ATOM     22  S   UNL     1      -6.635   4.741   7.790  0.00  0.00    -0.076 S 
BRANCH  22  23
ATOM     23  C   UNL     1      -4.907   5.268   7.683  0.00  0.00    +0.173 C 
BRANCH  23  25
ATOM     24  N   UNL     1      -2.990   4.945   6.153  0.00  0.00    -0.285 N 
ATOM     25  C   UNL     1      -4.280   4.685   6.442  0.00  0.00    +0.227 C 
ATOM     26  O   UNL     1      -4.938   3.983   5.703  0.00  0.00    -0.275 OA
ATOM     27  H   UNL     1      -2.443   5.442   6.782  0.00  0.00    +0.155 HD
BRANCH  24  31
ATOM     28  C   UNL     1      -1.349   3.612   2.563  0.00  0.00    -0.044 A 
ATOM     29  C   UNL     1      -0.564   3.672   3.700  0.00  0.00    +0.006 A 
ATOM     30  C   UNL     1      -1.104   4.119   4.891  0.00  0.00    +0.023 A 
ATOM     31  C   UNL     1      -2.439   4.497   4.948  0.00  0.00    +0.033 A 
ATOM     32  C   UNL     1      -3.226   4.430   3.805  0.00  0.00    +0.023 A 
ATOM     33  C   UNL     1      -2.679   3.988   2.617  0.00  0.00    +0.006 A 
BRANCH  28  34
ATOM     34  C   UNL     1      -0.756   3.129   1.265  0.00  0.00    +0.016 C 
ATOM     35  C   UNL     1      -0.238   1.700   1.441  0.00  0.00    +0.012 C 
BRANCH  34  37
ATOM     36  C   UNL     1       0.923   3.631  -0.516  0.00  0.00    +0.004 C 
ATOM     37  C   UNL     1       0.402   4.045   0.861  0.00  0.00    +0.004 C 
ENDBRANCH  34  37
ENDBRANCH  28  34
ENDBRANCH  24  31
ENDBRANCH  23  25
ENDBRANCH  22  23
ENDBRANCH   1  22
TORSDOF 8
