REMARK  Name = ZINC02801509
REMARK  10 active torsions:
REMARK  status: ('A' for Active; 'I' for Inactive)
REMARK    1  A    between atoms: C_1  and  C_2
REMARK    2  A    between atoms: C_2  and  C_37
REMARK    3  A    between atoms: C_6  and  C_24
REMARK    4  A    between atoms: C_8  and  C_22
REMARK    5  A    between atoms: C_9  and  N_21
REMARK    6  A    between atoms: N_10  and  C_11
REMARK    7  A    between atoms: C_15  and  C_17
REMARK    8  A    between atoms: C_27  and  O_30
REMARK    9  A    between atoms: O_30  and  C_31
REMARK   10  A    between atoms: C_31  and  C_32
REMARK                            x       y       z     vdW  Elec       q    Type
REMARK                         _______ _______ _______ _____ _____    ______ ____
ROOT
ATOM      1  C   UNL     1       3.513   0.823  -2.930  0.00  0.00    +0.011 C 
ATOM      2  C   UNL     1       4.318   1.004  -1.641  0.00  0.00    -0.023 C 
ATOM      3  C   UNL     1       3.545   1.902  -0.673  0.00  0.00    +0.058 C 
ATOM      4  C   UNL     1       2.231   1.252  -0.317  0.00  0.00    +0.025 C 
ATOM      5  C   UNL     1       2.106  -0.092  -0.285  0.00  0.00    +0.025 C 
ATOM      6  C   UNL     1       0.792  -0.740   0.073  0.00  0.00    +0.097 C 
ATOM      7  C   UNL     1      -0.120   0.230   0.764  0.00  0.00    +0.077 C 
ATOM      8  C   UNL     1       0.092   1.569   0.689  0.00  0.00    +0.107 C 
ATOM      9  N   UNL     1       1.164   2.059  -0.023  0.00  0.00    -0.260 N 
ATOM     10  C   UNL     1       3.196  -0.928  -0.585  0.00  0.00    +0.162 C 
ATOM     11  O   UNL     1       3.055  -2.134  -0.531  0.00  0.00    -0.292 OA
ATOM     12  C   UNL     1       4.533  -0.358  -0.973  0.00  0.00    +0.086 C 
ATOM     13  C   UNL     1       5.671   1.641  -1.966  0.00  0.00    +0.011 C 
ENDROOT
BRANCH   9  14
ATOM     14  C   UNL     1       1.163   3.393  -0.449  0.00  0.00    +0.040 A 
ATOM     15  C   UNL     1       1.687   4.385   0.370  0.00  0.00    +0.024 A 
ATOM     16  C   UNL     1       1.688   5.699  -0.055  0.00  0.00    +0.002 A 
ATOM     17  C   UNL     1       1.161   6.029  -1.291  0.00  0.00    +0.012 A 
ATOM     18  C   UNL     1       0.636   5.043  -2.106  0.00  0.00    +0.057 A 
ATOM     19  C   UNL     1       0.635   3.727  -1.689  0.00  0.00    +0.036 A 
BRANCH  18  20
ATOM     20  C   UNL     1       0.062   5.407  -3.452  0.00  0.00    +0.417 C 
ATOM     21  F   UNL     1      -1.300   5.695  -3.316  0.00  0.00    -0.166 F 
ATOM     22  F   UNL     1       0.728   6.530  -3.955  0.00  0.00    -0.166 F 
ATOM     23  F   UNL     1       0.226   4.333  -4.334  0.00  0.00    -0.166 F 
ENDBRANCH  18  20
ENDBRANCH   9  14
BRANCH   6  24
ATOM     24  C   UNL     1       0.127  -1.233  -1.186  0.00  0.00    -0.034 A 
ATOM     25  C   UNL     1      -0.233  -0.335  -2.174  0.00  0.00    +0.008 A 
ATOM     26  C   UNL     1      -0.837  -0.785  -3.331  0.00  0.00    +0.046 A 
ATOM     27  C   UNL     1      -1.094  -2.139  -3.497  0.00  0.00    +0.121 A 
ATOM     28  C   UNL     1      -0.738  -3.037  -2.502  0.00  0.00    +0.046 A 
ATOM     29  C   UNL     1      -0.127  -2.582  -1.349  0.00  0.00    +0.008 A 
BRANCH  27  30
ATOM     30  O   UNL     1      -1.695  -2.583  -4.632  0.00  0.00    -0.488 OA
BRANCH  30  31
ATOM     31  C   UNL     1      -2.035  -1.602  -5.614  0.00  0.00    +0.256 C 
BRANCH  31  32
ATOM     32  C   UNL     1      -2.687  -2.276  -6.793  0.00  0.00    +0.006 C 
ATOM     33  C   UNL     1      -3.769  -1.763  -7.325  0.00  0.00    +0.007 C 
ENDBRANCH  31  32
ENDBRANCH  30  31
ENDBRANCH  27  30
ENDBRANCH   6  24
BRANCH   8  34
ATOM     34  N   UNL     1      -0.768   2.437   1.319  0.00  0.00    -0.345 N 
ATOM     35  H   UNL     1      -0.597   3.522   1.258  0.00  0.00    +0.144 HD
ATOM     36  H   UNL     1      -1.627   2.046   1.884  0.00  0.00    +0.144 HD
ENDBRANCH   8  34
BRANCH   7  37
ATOM     37  C   UNL     1      -1.234  -0.265   1.516  0.00  0.00    +0.099 C 
ATOM     38  N   UNL     1      -2.117  -0.658   2.113  0.00  0.00    -0.191 NA
ENDBRANCH   7  37
TORSDOF 8
