REMARK  Name = ZINC64152520
REMARK  11 active torsions:
REMARK  status: ('A' for Active; 'I' for Inactive)
REMARK    1  A    between atoms: C_1  and  C_2
REMARK    2  A    between atoms: C_6  and  C_21
REMARK    3  A    between atoms: C_8  and  C_15
REMARK    4  A    between atoms: N_10  and  C_11
REMARK    5  A    between atoms: C_11  and  C_12
REMARK    6  A    between atoms: C_12  and  O_13
REMARK    7  A    between atoms: O_13  and  C_14
REMARK    8  A    between atoms: C_15  and  C_16
REMARK    9  A    between atoms: N_23  and  C_24
REMARK   10  A    between atoms: C_24  and  C_25
REMARK   11  A    between atoms: C_25  and  C_26
REMARK                            x       y       z     vdW  Elec       q    Type
REMARK                         _______ _______ _______ _____ _____    ______ ____
ROOT
ATOM      1  C   UNL     1      -0.226   1.577   0.616  0.00  0.00    +0.060 C 
ATOM      2  C   UNL     1      -0.032   0.084   0.556  0.00  0.00    +0.007 C 
ATOM      3  C   UNL     1       0.215  -0.523  -0.629  0.00  0.00    +0.065 C 
ATOM      4  C   UNL     1       0.416  -1.907  -0.702  0.00  0.00    +0.171 C 
ATOM      5  O   UNL     1       0.616  -2.432  -1.779  0.00  0.00    -0.292 OA
ATOM      6  C   UNL     1       0.387  -2.751   0.548  0.00  0.00    +0.165 C 
ATOM      7  C   UNL     1      -0.513  -2.071   1.588  0.00  0.00    +0.093 C 
ATOM      8  N   UNL     1      -0.097  -0.662   1.699  0.00  0.00    -0.327 N 
ENDROOT
BRANCH   6   9
ATOM      9  C   UNL     1       1.784  -2.886   1.098  0.00  0.00    +0.225 C 
ATOM     10  O   UNL     1       2.037  -2.487   2.215  0.00  0.00    -0.275 OA
ATOM     11  N   UNL     1       2.752  -3.449   0.348  0.00  0.00    -0.315 N 
ATOM     12  H   UNL     1       2.549  -3.768  -0.545  0.00  0.00    +0.149 HD
BRANCH  11  13
ATOM     13  C   UNL     1       4.109  -3.580   0.882  0.00  0.00    +0.108 C 
BRANCH  13  14
ATOM     14  C   UNL     1       5.006  -4.248  -0.162  0.00  0.00    +0.065 C 
BRANCH  14  15
ATOM     15  C   UNL     1       6.424  -4.385   0.396  0.00  0.00    +0.175 C 
ATOM     16  N   UNL     1       6.987  -3.058   0.674  0.00  0.00    -0.363 N 
ATOM     17  C   UNL     1       8.050  -2.922  -0.065  0.00  0.00    +0.060 A 
ATOM     18  C   UNL     1       9.022  -1.831  -0.226  0.00  0.00    +0.029 A 
ATOM     19  C   UNL     1      10.048  -1.976  -1.086  0.00  0.00    +0.022 A 
ATOM     20  C   UNL     1      10.238  -3.143  -1.851  0.00  0.00    +0.043 A 
ATOM     21  C   UNL     1       9.404  -4.202  -1.780  0.00  0.00    +0.047 A 
ATOM     22  C   UNL     1       8.250  -4.155  -0.874  0.00  0.00    +0.062 A 
ATOM     23  N   UNL     1       7.301  -5.008  -0.603  0.00  0.00    -0.363 N 
ATOM     24 CL   UNL     1      11.596  -3.222  -2.929  0.00  0.00    -0.083 Cl
ATOM     25  H   UNL     1       6.632  -2.402   1.294  0.00  0.00    +0.162 HD
ATOM     26  H   UNL     1       7.194  -5.891  -0.990  0.00  0.00    +0.162 HD
ENDBRANCH  14  15
ENDBRANCH  13  14
ENDBRANCH  11  13
ENDBRANCH   6   9
BRANCH   8  27
ATOM     27  C   UNL     1       0.234  -0.075   2.999  0.00  0.00    +0.133 C 
BRANCH  27  28
ATOM     28  C   UNL     1      -1.050   0.394   3.688  0.00  0.00    +0.178 C 
BRANCH  28  29
ATOM     29  O   UNL     1      -1.864  -0.738   4.000  0.00  0.00    -0.381 OA
ATOM     30  C   UNL     1      -3.039  -0.420   4.749  0.00  0.00    +0.194 C 
ENDBRANCH  28  29
ENDBRANCH  27  28
ENDBRANCH   8  27
BRANCH   7  31
ATOM     31  C   UNL     1      -1.973  -2.151   1.138  0.00  0.00    +0.027 C 
BRANCH  31  32
ATOM     32  C   UNL     1      -2.458  -3.598   1.236  0.00  0.00    -0.009 C 
ATOM     33  C   UNL     1      -1.822  -4.446   0.115  0.00  0.00    +0.003 C 
ATOM     34  C   UNL     1      -2.946  -5.424  -0.307  0.00  0.00    +0.000 C 
ATOM     35  C   UNL     1      -4.216  -4.542  -0.222  0.00  0.00    +0.000 C 
ATOM     36  C   UNL     1      -3.981  -3.659   1.022  0.00  0.00    +0.003 C 
ENDBRANCH  31  32
ENDBRANCH   7  31
TORSDOF 9
