REMARK  Name = ZINC41568974
REMARK  6 active torsions:
REMARK  status: ('A' for Active; 'I' for Inactive)
REMARK    1  A    between atoms: C_1  and  C_2
REMARK    2  A    between atoms: C_3  and  N_16
REMARK    3  A    between atoms: C_6  and  C_9
REMARK    4  A    between atoms: C_11  and  C_13
REMARK    5  A    between atoms: C_13  and  C_14
REMARK    6  A    between atoms: C_13  and  C_15
REMARK                            x       y       z     vdW  Elec       q    Type
REMARK                         _______ _______ _______ _____ _____    ______ ____
ROOT
ATOM      1  C   UNL     1      -0.018   1.503   0.010  0.00  0.00    +0.047 C 
ATOM      2  C   UNL     1       0.002  -0.004   0.002  0.00  0.00    -0.008 A 
ATOM      3  C   UNL     1       0.006  -0.686  -1.204  0.00  0.00    +0.074 A 
ATOM      4  C   UNL     1       0.025  -2.079  -1.210  0.00  0.00    +0.176 A 
ATOM      5  C   UNL     1       0.040  -2.781   0.002  0.00  0.00    +0.116 A 
ATOM      6  C   UNL     1       0.036  -2.078   1.210  0.00  0.00    -0.003 A 
ATOM      7  C   UNL     1       0.023  -0.700   1.202  0.00  0.00    +0.051 A 
ATOM      8 CL   UNL     1       0.026   0.171   2.704  0.00  0.00    -0.083 Cl
ATOM      9  C   UNL     1       0.052  -2.826   2.518  0.00  0.00    +0.047 C 
ATOM     10  N   UNL     1       0.056  -4.104  -0.317  0.00  0.00    -0.213 NA
ATOM     11  C   UNL     1       0.052  -4.223  -1.610  0.00  0.00    +0.199 A 
ATOM     12  O   UNL     1       0.033  -3.012  -2.188  0.00  0.00    -0.438 OA
ENDROOT
BRANCH  11  13
ATOM     13  C   UNL     1       0.066  -5.533  -2.355  0.00  0.00    +0.069 C 
ATOM     14  C   UNL     1      -1.186  -5.637  -3.228  0.00  0.00    +0.017 C 
ATOM     15  C   UNL     1       1.312  -5.603  -3.240  0.00  0.00    +0.017 C 
ENDBRANCH  11  13
BRANCH   3  16
ATOM     16  N   UNL     1      -0.010   0.021  -2.410  0.00  0.00    -0.355 N 
ATOM     17  H   UNL     1      -0.024   0.991  -2.404  0.00  0.00    +0.142 HD
ATOM     18  H   UNL     1      -0.008  -0.459  -3.253  0.00  0.00    +0.142 HD
ENDBRANCH   3  16
TORSDOF 2
