REMARK  Name = ZINC65762327
REMARK  11 active torsions:
REMARK  status: ('A' for Active; 'I' for Inactive)
REMARK    1  A    between atoms: C_1  and  C_2
REMARK    2  A    between atoms: C_2  and  C_3
REMARK    3  A    between atoms: C_3  and  C_4
REMARK    4  A    between atoms: C_6  and  C_9
REMARK    5  A    between atoms: C_9  and  S_10
REMARK    6  A    between atoms: S_10  and  C_13
REMARK    7  A    between atoms: C_13  and  C_14
REMARK    8  A    between atoms: C_14  and  C_15
REMARK    9  A    between atoms: C_14  and  O_27
REMARK   10  A    between atoms: C_15  and  O_16
REMARK   11  A    between atoms: O_16  and  C_17
REMARK                            x       y       z     vdW  Elec       q    Type
REMARK                         _______ _______ _______ _____ _____    ______ ____
ROOT
ATOM      1  C   UNL     1       5.359  -7.595   1.888  0.00  0.00    +0.173 C 
ENDROOT
BRANCH   1   2
ATOM      2  O   UNL     1       6.285  -6.547   2.184  0.00  0.00    -0.387 OA
ATOM      3  H   UNL     1       6.749  -6.202   1.409  0.00  0.00    +0.210 HD
ENDBRANCH   1   2
BRANCH   1   4
ATOM      4  C   UNL     1       4.296  -7.076   0.917  0.00  0.00    +0.201 C 
BRANCH   4   5
ATOM      5  S   UNL     1       3.412  -5.685   1.676  0.00  0.00    -0.021 S 
ATOM      6  O   UNL     1       4.327  -4.612   1.847  0.00  0.00    -0.174 OA
ATOM      7  O   UNL     1       2.695  -6.169   2.803  0.00  0.00    -0.174 OA
BRANCH   5   8
ATOM      8  C   UNL     1       2.217  -5.222   0.392  0.00  0.00    +0.245 C 
BRANCH   8  11
ATOM      9  C   UNL     1       0.762  -2.018   1.233  0.00  0.00    +0.227 A 
ATOM     10  N   UNL     1       1.685  -2.767   0.697  0.00  0.00    -0.194 NA
ATOM     11  C   UNL     1       1.388  -4.059   0.873  0.00  0.00    +0.193 A 
ATOM     12  N   UNL     1       0.267  -4.148   1.528  0.00  0.00    -0.060 NA
ATOM     13  O   UNL     1      -0.161  -2.818   1.781  0.00  0.00    -0.338 OA
BRANCH   9  14
ATOM     14  C   UNL     1       0.742  -0.511   1.242  0.00  0.00    +0.098 C 
BRANCH  14  16
ATOM     15  C   UNL     1      -0.019   1.526   0.010  0.00  0.00    +0.004 C 
ATOM     16  C   UNL     1       0.002  -0.004   0.002  0.00  0.00    +0.006 C 
ENDBRANCH  14  16
ENDBRANCH   9  14
ENDBRANCH   8  11
ENDBRANCH   5   8
ENDBRANCH   4   5
ENDBRANCH   1   4
BRANCH   1  17
ATOM     17  C   UNL     1       6.104  -8.768   1.248  0.00  0.00    +0.262 C 
BRANCH  17  18
ATOM     18  O   UNL     1       7.017  -9.326   2.196  0.00  0.00    -0.489 OA
BRANCH  18  19
ATOM     19  C   UNL     1       7.763 -10.385   1.784  0.00  0.00    +0.121 A 
ATOM     20  C   UNL     1       7.615 -10.868   0.480  0.00  0.00    +0.046 A 
ATOM     21  C   UNL     1       8.347 -11.925   0.040  0.00  0.00    +0.012 A 
ATOM     22  C   UNL     1       9.268 -12.544   0.903  0.00  0.00    -0.018 A 
ATOM     23  C   UNL     1      10.041 -13.639   0.480  0.00  0.00    +0.008 A 
ATOM     24  C   UNL     1      10.923 -14.214   1.343  0.00  0.00    +0.001 A 
ATOM     25  C   UNL     1      11.073 -13.734   2.642  0.00  0.00    +0.001 A 
ATOM     26  C   UNL     1      10.341 -12.676   3.087  0.00  0.00    +0.008 A 
ATOM     27  C   UNL     1       9.420 -12.056   2.225  0.00  0.00    -0.014 A 
ATOM     28  C   UNL     1       8.652 -10.959   2.648  0.00  0.00    +0.054 A 
ENDBRANCH  18  19
ENDBRANCH  17  18
ENDBRANCH   1  17
TORSDOF 10
