REMARK  Name = ZINC22454341
REMARK  2 active torsions:
REMARK  status: ('A' for Active; 'I' for Inactive)
REMARK    1  A    between atoms: C_6  and  C_11
REMARK    2  A    between atoms: C_22  and  C_25
REMARK                            x       y       z     vdW  Elec       q    Type
REMARK                         _______ _______ _______ _____ _____    ______ ____
ROOT
ATOM      1  C   UNL     1       3.539   6.076  -0.002  0.00  0.00    +0.080 A 
ATOM      2  C   UNL     1       3.493   7.463   0.005  0.00  0.00    +0.098 A 
ATOM      3  C   UNL     1       4.701   8.176  -0.003  0.00  0.00    +0.253 A 
ATOM      4  O   UNL     1       4.701   9.396   0.003  0.00  0.00    -0.268 OA
ATOM      5  N   UNL     1       5.863   7.489  -0.017  0.00  0.00    -0.295 N 
ATOM      6  H   UNL     1       6.821   8.030  -0.024  0.00  0.00    +0.172 HD
ATOM      7  C   UNL     1       5.853   6.129  -0.024  0.00  0.00    +0.199 A 
ATOM      8  N   UNL     1       4.725   5.451  -0.011  0.00  0.00    -0.216 NA
ATOM      9  N   UNL     1       7.042   5.450  -0.038  0.00  0.00    -0.301 N 
ATOM     10  C   UNL     1       7.919   5.947  -1.106  0.00  0.00    +0.108 C 
ATOM     11  C   UNL     1       9.287   5.270  -1.001  0.00  0.00    +0.032 C 
ATOM     12  C   UNL     1       9.112   3.754  -1.123  0.00  0.00    +0.078 C 
ATOM     13  C   UNL     1       8.157   3.268  -0.029  0.00  0.00    +0.032 C 
ATOM     14  C   UNL     1       6.821   4.003  -0.162  0.00  0.00    +0.108 C 
ENDROOT
BRANCH   1  20
ATOM     15  C   UNL     1      -1.234   1.746   0.017  0.00  0.00    +0.001 A 
ATOM     16  C   UNL     1      -0.013   1.076   0.008  0.00  0.00    +0.001 A 
ATOM     17  C   UNL     1       1.162   1.762   0.000  0.00  0.00    +0.008 A 
ATOM     18  C   UNL     1       1.147   3.169   0.008  0.00  0.00    -0.017 A 
ATOM     19  C   UNL     1       2.340   3.908  -0.000  0.00  0.00    +0.018 A 
ATOM     20  C   UNL     1       2.284   5.290   0.007  0.00  0.00    +0.001 A 
ATOM     21  C   UNL     1       1.046   5.955   0.022  0.00  0.00    +0.010 A 
ATOM     22  C   UNL     1      -0.119   5.257   0.030  0.00  0.00    +0.009 A 
ATOM     23  C   UNL     1      -0.097   3.850   0.023  0.00  0.00    -0.018 A 
ATOM     24  C   UNL     1      -1.288   3.106   0.030  0.00  0.00    +0.008 A 
ENDBRANCH   1  20
BRANCH  12  25
ATOM     25  C   UNL     1      10.449   3.076  -0.961  0.00  0.00    +0.214 C 
ATOM     26  O   UNL     1      10.621   2.283  -0.059  0.00  0.00    -0.276 OA
ATOM     27  N   UNL     1      11.452   3.352  -1.817  0.00  0.00    -0.329 N 
ATOM     28  H   UNL     1      12.428   2.857  -1.699  0.00  0.00    +0.145 HD
ATOM     29  H   UNL     1      11.295   4.071  -2.635  0.00  0.00    +0.145 HD
ENDBRANCH  12  25
TORSDOF 2
