REMARK  Name = ZINC12470198
REMARK  8 active torsions:
REMARK  status: ('A' for Active; 'I' for Inactive)
REMARK    1  A    between atoms: C_1  and  C_2
REMARK    2  A    between atoms: C_5  and  C_35
REMARK    3  A    between atoms: C_9  and  C_14
REMARK    4  A    between atoms: C_14  and  C_16
REMARK    5  A    between atoms: C_14  and  N_63
REMARK    6  A    between atoms: N_20  and  C_21
REMARK    7  A    between atoms: C_21  and  C_22
REMARK    8  A    between atoms: C_31  and  C_34
REMARK                            x       y       z     vdW  Elec       q    Type
REMARK                         _______ _______ _______ _____ _____    ______ ____
ROOT
ATOM      1  C   UNL     1       1.393  -1.431   0.269  0.00  0.00    +0.039 C 
ENDROOT
BRANCH   1  10
ATOM      2  C   UNL     1       3.593  -4.375  -3.419  0.00  0.00    +0.044 C 
ATOM      3  C   UNL     1       2.140  -4.211  -3.785  0.00  0.00    -0.041 A 
ATOM      4  C   UNL     1       1.647  -4.796  -4.917  0.00  0.00    +0.004 A 
ATOM      5  C   UNL     1       0.311  -4.652  -5.262  0.00  0.00    +0.005 A 
ATOM      6  C   UNL     1      -0.544  -3.915  -4.471  0.00  0.00    -0.026 A 
ATOM      7  C   UNL     1      -0.065  -3.311  -3.314  0.00  0.00    +0.052 A 
ATOM      8  C   UNL     1       1.291  -3.460  -2.967  0.00  0.00    +0.002 A 
ATOM      9  C   UNL     1       1.787  -2.815  -1.749  0.00  0.00    +0.018 A 
ATOM     10  C   UNL     1       0.916  -2.103  -0.992  0.00  0.00    +0.011 A 
ATOM     11  C   UNL     1      -0.435  -1.984  -1.385  0.00  0.00    +0.251 A 
ATOM     12  O   UNL     1      -1.200  -1.335  -0.693  0.00  0.00    -0.268 OA
ATOM     13  N   UNL     1      -0.899  -2.569  -2.503  0.00  0.00    -0.322 N 
ATOM     14  H   UNL     1      -1.833  -2.467  -2.744  0.00  0.00    +0.169 HD
ATOM     15  C   UNL     1      -1.993  -3.766  -4.858  0.00  0.00    +0.046 C 
ENDBRANCH   1  10
BRANCH   1  22
ATOM     16  C   UNL     1       0.500  -3.349   1.447  0.00  0.00    -0.077 C 
ATOM     17  C   UNL     1      -0.472  -3.778   2.547  0.00  0.00    -0.018 C 
ATOM     18  C   UNL     1       0.015  -3.234   3.893  0.00  0.00    -0.001 C 
ATOM     19  C   UNL     1       0.131  -1.710   3.806  0.00  0.00    -0.031 C 
ATOM     20  C   UNL     1       1.086  -1.340   2.669  0.00  0.00    -0.074 C 
ATOM     21  C   UNL     1       0.675  -1.163   5.128  0.00  0.00    +0.005 C 
ATOM     22  N   UNL     1       0.548  -1.872   1.399  0.00  0.00    +0.389 N 
ATOM     23  H   UNL     1      -0.404  -1.512   1.264  0.00  0.00    -0.080 HD
ENDBRANCH   1  22
BRANCH   1  24
ATOM     24  C   UNL     1       1.265   0.063   0.122  0.00  0.00    +0.143 A 
ATOM     25  N   UNL     1       0.165   0.735  -0.119  0.00  0.00    -0.115 NA
ATOM     26  N   UNL     1       0.467   1.986  -0.175  0.00  0.00    -0.023 NA
ATOM     27  N   UNL     1       1.730   2.130   0.024  0.00  0.00    -0.044 NA
ATOM     28  N   UNL     1       2.257   0.968   0.211  0.00  0.00    -0.226 N 
BRANCH  28  29
ATOM     29  C   UNL     1       3.671   0.685   0.470  0.00  0.00    +0.182 C 
BRANCH  29  30
ATOM     30  C   UNL     1       4.406   0.552  -0.839  0.00  0.00    -0.026 A 
ATOM     31  C   UNL     1       4.561  -0.692  -1.421  0.00  0.00    +0.005 A 
ATOM     32  C   UNL     1       5.230  -0.814  -2.624  0.00  0.00    +0.000 A 
ATOM     33  C   UNL     1       5.754   0.308  -3.240  0.00  0.00    +0.000 A 
ATOM     34  C   UNL     1       5.604   1.551  -2.655  0.00  0.00    +0.000 A 
ATOM     35  C   UNL     1       4.930   1.673  -1.454  0.00  0.00    +0.005 A 
ENDBRANCH  29  30
ENDBRANCH  28  29
ENDBRANCH   1  24
TORSDOF 5
