REMARK  Name = ZINC43760041
REMARK  15 active torsions:
REMARK  status: ('A' for Active; 'I' for Inactive)
REMARK    1  A    between atoms: C_1  and  C_2
REMARK    2  A    between atoms: C_2  and  C_4
REMARK    3  A    between atoms: C_2  and  C_12
REMARK    4  A    between atoms: C_5  and  C_6
REMARK    5  A    between atoms: C_6  and  C_8
REMARK    6  A    between atoms: C_6  and  C_9
REMARK    7  A    between atoms: C_9  and  C_10
REMARK    8  A    between atoms: C_9  and  C_11
REMARK    9  A    between atoms: C_18  and  C_39
REMARK   10  A    between atoms: C_22  and  O_38
REMARK   11  A    between atoms: C_25  and  O_37
REMARK   12  A    between atoms: C_26  and  C_36
REMARK   13  A    between atoms: C_29  and  O_32
REMARK   14  A    between atoms: O_32  and  C_33
REMARK   15  A    between atoms: C_33  and  C_35
REMARK                            x       y       z     vdW  Elec       q    Type
REMARK                         _______ _______ _______ _____ _____    ______ ____
ROOT
ATOM      1  C   UNL     1       0.762  -0.397   1.097  0.00  0.00    +0.002 C 
ATOM      2  C   UNL     1       0.962  -1.927   1.058  0.00  0.00    +0.005 C 
ATOM      3  C   UNL     1       0.514  -2.464   2.436  0.00  0.00    +0.007 C 
ATOM      4  C   UNL     1      -0.481  -1.391   2.962  0.00  0.00    +0.031 C 
ATOM      5  C   UNL     1       0.165  -0.090   2.467  0.00  0.00    -0.020 C 
ATOM      6  C   UNL     1      -0.761   1.095   2.540  0.00  0.00    +0.034 C 
ATOM      7  C   UNL     1      -2.172   0.772   2.174  0.00  0.00    -0.024 C 
ATOM      8  C   UNL     1      -2.666  -0.433   2.132  0.00  0.00    -0.033 C 
ATOM      9  C   UNL     1      -1.859  -1.665   2.386  0.00  0.00    +0.091 C 
ATOM     10  C   UNL     1      -2.615  -2.613   3.313  0.00  0.00    +0.042 C 
ATOM     11  C   UNL     1      -4.076  -2.810   2.945  0.00  0.00    +0.039 C 
ATOM     12  C   UNL     1      -4.508  -2.047   1.708  0.00  0.00    +0.079 C 
ATOM     13  C   UNL     1      -4.146  -0.567   1.820  0.00  0.00    +0.021 C 
ATOM     14  C   UNL     1      -4.465   0.109   0.486  0.00  0.00    +0.017 C 
ATOM     15  C   UNL     1      -5.952  -0.032   0.164  0.00  0.00    +0.046 C 
ATOM     16  C   UNL     1      -6.393  -1.492   0.180  0.00  0.00    +0.179 C 
ATOM     17  C   UNL     1      -6.026  -2.168   1.502  0.00  0.00    +0.080 C 
ATOM     18  C   UNL     1      -4.945   0.111   2.946  0.00  0.00    +0.019 C 
ATOM     19  C   UNL     1       1.348   0.217   3.416  0.00  0.00    +0.012 C 
ENDROOT
BRANCH   1  21
ATOM     20  C   UNL     1      -0.187   1.587  -0.082  0.00  0.00    +0.012 C 
ATOM     21  C   UNL     1      -0.131   0.058  -0.053  0.00  0.00    +0.012 C 
BRANCH  21  22
ATOM     22  C   UNL     1       0.432  -0.449  -1.356  0.00  0.00    -0.027 C 
ATOM     23  C   UNL     1      -0.283  -1.243  -2.114  0.00  0.00    -0.027 C 
BRANCH  23  24
ATOM     24  C   UNL     1       0.280  -1.750  -3.417  0.00  0.00    +0.011 C 
ATOM     25  C   UNL     1       0.336  -3.279  -3.388  0.00  0.00    +0.012 C 
BRANCH  24  26
ATOM     26  C   UNL     1      -0.615  -1.294  -4.571  0.00  0.00    -0.011 C 
ATOM     27  C   UNL     1      -0.671   0.234  -4.600  0.00  0.00    +0.008 C 
ATOM     28  C   UNL     1      -0.043  -1.809  -5.893  0.00  0.00    +0.008 C 
ENDBRANCH  24  26
ENDBRANCH  23  24
ENDBRANCH  21  22
ENDBRANCH   1  21
BRANCH  12  29
ATOM     29  O   UNL     1      -3.903  -2.622   0.543  0.00  0.00    -0.388 OA
ATOM     30  H   UNL     1      -4.135  -3.550   0.397  0.00  0.00    +0.210 HD
ENDBRANCH  12  29
BRANCH   9  31
ATOM     31  O   UNL     1      -1.657  -2.340   1.148  0.00  0.00    -0.384 OA
ATOM     32  H   UNL     1      -1.292  -3.231   1.242  0.00  0.00    +0.211 HD
ENDBRANCH   9  31
BRANCH  16  33
ATOM     33  O   UNL     1      -7.812  -1.558  -0.001  0.00  0.00    -0.461 OA
BRANCH  33  34
ATOM     34  C   UNL     1      -8.262  -1.645  -1.263  0.00  0.00    +0.304 C 
ATOM     35  O   UNL     1      -7.479  -1.665  -2.183  0.00  0.00    -0.251 OA
ATOM     36  C   UNL     1      -9.743  -1.719  -1.531  0.00  0.00    +0.136 C 
ENDBRANCH  33  34
ENDBRANCH  16  33
TORSDOF 8
