REMARK  Name = ZINC16746645
REMARK  9 active torsions:
REMARK  status: ('A' for Active; 'I' for Inactive)
REMARK    1  A    between atoms: C_1  and  C_2
REMARK    2  A    between atoms: C_6  and  N_8
REMARK    3  A    between atoms: C_9  and  C_28
REMARK    4  A    between atoms: C_12  and  S_13
REMARK    5  A    between atoms: S_13  and  C_14
REMARK    6  A    between atoms: C_14  and  C_16
REMARK    7  A    between atoms: C_14  and  C_17
REMARK    8  A    between atoms: N_19  and  C_20
REMARK    9  A    between atoms: C_21  and  C_25
REMARK                            x       y       z     vdW  Elec       q    Type
REMARK                         _______ _______ _______ _____ _____    ______ ____
ROOT
ATOM      1  N   UNL     1      -0.032   5.245   0.051  0.00  0.00    -0.270 N 
ATOM      2  C   UNL     1      -0.625   6.065   0.987  0.00  0.00    +0.169 A 
ATOM      3  N   UNL     1      -0.451   7.301   0.581  0.00  0.00    -0.128 NA
ATOM      4  N   UNL     1       0.194   7.312  -0.531  0.00  0.00    -0.122 NA
ATOM      5  C   UNL     1       0.476   6.084  -0.903  0.00  0.00    +0.197 A 
ENDROOT
BRANCH   1  11
ATOM      6  C   UNL     1       2.636   1.134   0.465  0.00  0.00    +0.044 C 
ATOM      7  C   UNL     1       1.312   1.827   0.269  0.00  0.00    -0.048 A 
ATOM      8  C   UNL     1       0.159   1.081   0.107  0.00  0.00    +0.003 A 
ATOM      9  C   UNL     1      -1.057   1.714  -0.078  0.00  0.00    +0.002 A 
ATOM     10  C   UNL     1      -1.124   3.094  -0.092  0.00  0.00    +0.026 A 
ATOM     11  C   UNL     1       0.032   3.845   0.070  0.00  0.00    +0.051 A 
ATOM     12  C   UNL     1       1.252   3.207   0.251  0.00  0.00    +0.029 A 
ENDBRANCH   1  11
BRANCH   2  13
ATOM     13  C   UNL     1      -1.323   5.634   2.216  0.00  0.00    +0.020 A 
ATOM     14  C   UNL     1      -2.181   6.513   2.880  0.00  0.00    +0.013 A 
ATOM     15  C   UNL     1      -2.834   6.103   4.023  0.00  0.00    +0.021 A 
ATOM     16  C   UNL     1      -2.632   4.826   4.520  0.00  0.00    +0.041 A 
ATOM     17  C   UNL     1      -1.777   3.951   3.869  0.00  0.00    +0.021 A 
ATOM     18  C   UNL     1      -1.123   4.348   2.722  0.00  0.00    +0.013 A 
ATOM     19 CL   UNL     1      -3.452   4.320   5.964  0.00  0.00    -0.084 Cl
ENDBRANCH   2  13
BRANCH   5  20
ATOM     20  S   UNL     1       1.346   5.606  -2.359  0.00  0.00    -0.073 S 
BRANCH  20  21
ATOM     21  C   UNL     1       1.675   7.235  -3.077  0.00  0.00    +0.137 C 
ATOM     22  C   UNL     1       2.611   8.019  -2.156  0.00  0.00    +0.029 C 
BRANCH  21  23
ATOM     23  C   UNL     1       2.323   7.067  -4.427  0.00  0.00    +0.231 C 
ATOM     24  O   UNL     1       2.868   6.021  -4.712  0.00  0.00    -0.274 OA
ATOM     25  N   UNL     1       2.297   8.078  -5.317  0.00  0.00    -0.278 N 
ATOM     26  H   UNL     1       1.861   8.914  -5.089  0.00  0.00    +0.155 HD
BRANCH  25  27
ATOM     27  C   UNL     1       2.894   7.923  -6.560  0.00  0.00    +0.084 A 
ATOM     28  C   UNL     1       2.966   8.839  -7.603  0.00  0.00    +0.065 A 
ATOM     29  C   UNL     1       3.658   8.411  -8.795  0.00  0.00    +0.022 A 
ATOM     30  C   UNL     1       4.162   7.164  -8.799  0.00  0.00    +0.048 A 
ATOM     31  S   UNL     1       3.723   6.540  -7.190  0.00  0.00    -0.081 S 
BRANCH  28  32
ATOM     32  C   UNL     1       2.372  10.175  -7.496  0.00  0.00    +0.244 C 
ATOM     33  O   UNL     1       1.798  10.506  -6.475  0.00  0.00    -0.270 OA
ATOM     34  N   UNL     1       2.461  11.037  -8.528  0.00  0.00    -0.325 N 
ATOM     35  H   UNL     1       2.919  10.774  -9.342  0.00  0.00    +0.145 HD
ATOM     36  H   UNL     1       2.068  11.921  -8.457  0.00  0.00    +0.145 HD
ENDBRANCH  28  32
ENDBRANCH  25  27
ENDBRANCH  21  23
ENDBRANCH  20  21
ENDBRANCH   5  20
TORSDOF 7
