REMARK  Name = ZINC49549539
REMARK  7 active torsions:
REMARK  status: ('A' for Active; 'I' for Inactive)
REMARK    1  A    between atoms: C_1  and  C_2
REMARK    2  A    between atoms: C_2  and  C_3
REMARK    3  A    between atoms: C_2  and  C_4
REMARK    4  A    between atoms: C_2  and  N_5
REMARK    5  A    between atoms: C_10  and  C_16
REMARK    6  A    between atoms: C_13  and  O_15
REMARK    7  A    between atoms: N_24  and  C_27
REMARK                            x       y       z     vdW  Elec       q    Type
REMARK                         _______ _______ _______ _____ _____    ______ ____
ROOT
ATOM      1  N   UNL     1       0.688  -0.476  -1.203  0.00  0.00    -0.241 N 
ATOM      2  C   UNL     1       0.891  -1.765  -1.551  0.00  0.00    +0.159 A 
ATOM      3  C   UNL     1       1.571  -1.761  -2.761  0.00  0.00    +0.024 A 
ATOM      4  C   UNL     1       1.775  -0.444  -3.129  0.00  0.00    +0.140 A 
ATOM      5  N   UNL     1       1.247   0.330  -2.209  0.00  0.00    -0.177 NA
ATOM      6  C   UNL     1       1.957  -3.043  -3.454  0.00  0.00    +0.068 C 
ATOM      7  C   UNL     1       0.929  -4.111  -3.065  0.00  0.00    +0.108 C 
ATOM      8  C   UNL     1       0.581  -4.039  -1.607  0.00  0.00    +0.190 C 
ATOM      9  N   UNL     1       0.553  -2.931  -0.927  0.00  0.00    -0.198 NA
ENDROOT
BRANCH   6  10
ATOM     10  C   UNL     1       3.332  -3.470  -3.008  0.00  0.00    +0.026 A 
ATOM     11  C   UNL     1       4.330  -3.592  -3.919  0.00  0.00    +0.019 A 
ATOM     12  C   UNL     1       5.654  -4.009  -3.454  0.00  0.00    -0.001 A 
ATOM     13  C   UNL     1       6.722  -4.152  -4.345  0.00  0.00    +0.010 A 
ATOM     14  C   UNL     1       7.946  -4.542  -3.880  0.00  0.00    +0.001 A 
ATOM     15  C   UNL     1       8.138  -4.798  -2.529  0.00  0.00    +0.002 A 
ATOM     16  C   UNL     1       7.100  -4.664  -1.632  0.00  0.00    +0.026 A 
ATOM     17  C   UNL     1       5.846  -4.267  -2.083  0.00  0.00    +0.052 A 
ATOM     18  N   UNL     1       4.790  -4.124  -1.209  0.00  0.00    -0.311 N 
ATOM     19  C   UNL     1       3.578  -3.736  -1.644  0.00  0.00    +0.255 A 
ATOM     20  O   UNL     1       2.669  -3.615  -0.842  0.00  0.00    -0.267 OA
ATOM     21  C   UNL     1       4.992  -4.394   0.217  0.00  0.00    +0.152 C 
ENDBRANCH   6  10
BRANCH   1  23
ATOM     22  C   UNL     1      -0.019   1.526   0.010  0.00  0.00    +0.036 C 
ATOM     23  C   UNL     1       0.002  -0.004   0.002  0.00  0.00    +0.057 C 
ATOM     24  C   UNL     1       0.742  -0.511   1.242  0.00  0.00    +0.036 C 
ATOM     25  C   UNL     1      -1.433  -0.534   0.013  0.00  0.00    +0.036 C 
ENDBRANCH   1  23
BRANCH   8  26
ATOM     26  O   UNL     1       0.279  -5.187  -0.967  0.00  0.00    -0.495 OA
ATOM     27  H   UNL     1       0.064  -5.071  -0.032  0.00  0.00    +0.293 HD
ENDBRANCH   8  26
TORSDOF 3
