REMARK  Name = ZINC39688450
REMARK  8 active torsions:
REMARK  status: ('A' for Active; 'I' for Inactive)
REMARK    1  A    between atoms: C_1  and  C_2
REMARK    2  A    between atoms: C_2  and  C_4
REMARK    3  A    between atoms: C_2  and  N_12
REMARK    4  A    between atoms: C_4  and  C_5
REMARK    5  A    between atoms: C_13  and  C_15
REMARK    6  A    between atoms: C_26  and  C_28
REMARK    7  A    between atoms: C_33  and  O_34
REMARK    8  A    between atoms: O_34  and  C_35
REMARK                            x       y       z     vdW  Elec       q    Type
REMARK                         _______ _______ _______ _____ _____    ______ ____
ROOT
ATOM      1  C   UNL     1       0.781  -1.137   3.569  0.00  0.00    +0.100 C 
ATOM      2  C   UNL     1       1.185  -2.617   3.389  0.00  0.00    +0.121 C 
ATOM      3  N   UNL     1       1.007  -3.220   4.731  0.00  0.00    -0.296 N 
ATOM      4  C   UNL     1      -0.232  -2.596   5.254  0.00  0.00    +0.115 C 
ATOM      5  C   UNL     1      -0.149  -1.127   4.794  0.00  0.00    -0.004 C 
ATOM      6  C   UNL     1      -1.533  -0.619   4.402  0.00  0.00    -0.010 C 
ATOM      7  C   UNL     1      -2.423  -0.563   5.647  0.00  0.00    -0.082 C 
ATOM      8  N   UNL     1      -1.816   0.327   6.645  0.00  0.00    +0.379 N 
ATOM      9  C   UNL     1      -0.526  -0.218   7.085  0.00  0.00    -0.082 C 
ATOM     10  C   UNL     1       0.443  -0.260   5.900  0.00  0.00    -0.010 C 
ATOM     11  C   UNL     1       1.794  -4.129   5.338  0.00  0.00    +0.250 C 
ATOM     12  O   UNL     1       2.837  -4.476   4.818  0.00  0.00    -0.270 OA
ATOM     13  H   UNL     1      -1.673   1.239   6.237  0.00  0.00    -0.086 HD
ATOM     14  H   UNL     1      -2.433   0.410   7.439  0.00  0.00    -0.086 HD
ENDROOT
BRANCH  11  15
ATOM     15  C   UNL     1       1.391  -4.705   6.636  0.00  0.00    +0.078 A 
ATOM     16  C   UNL     1       0.042  -4.940   6.911  0.00  0.00    +0.017 A 
ATOM     17  C   UNL     1      -0.328  -5.478   8.124  0.00  0.00    +0.001 A 
ATOM     18  C   UNL     1       0.632  -5.787   9.074  0.00  0.00    +0.004 A 
ATOM     19  C   UNL     1       1.969  -5.559   8.815  0.00  0.00    +0.046 A 
ATOM     20  C   UNL     1       2.360  -5.024   7.597  0.00  0.00    +0.132 A 
BRANCH  20  21
ATOM     21  O   UNL     1       3.674  -4.804   7.339  0.00  0.00    -0.494 OA
ATOM     22  C   UNL     1       4.604  -5.154   8.366  0.00  0.00    +0.277 C 
ENDBRANCH  20  21
ENDBRANCH  11  15
BRANCH   1  24
ATOM     23  N   UNL     1      -0.029   0.683   2.102  0.00  0.00    -0.312 N 
ATOM     24  C   UNL     1       0.048  -0.640   2.350  0.00  0.00    +0.218 C 
ATOM     25  O   UNL     1      -0.472  -1.430   1.591  0.00  0.00    -0.275 OA
ATOM     26  H   UNL     1       0.387   1.315   2.709  0.00  0.00    +0.149 HD
BRANCH  23  28
ATOM     27  C   UNL     1      -2.234   1.286   1.232  0.00  0.00    +0.028 C 
ATOM     28  C   UNL     1      -0.742   1.165   0.916  0.00  0.00    +0.074 C 
BRANCH  28  29
ATOM     29  C   UNL     1      -0.193   2.536   0.515  0.00  0.00    +0.057 C 
BRANCH  29  30
ATOM     30  C   UNL     1       1.245   2.395   0.086  0.00  0.00    -0.045 A 
ATOM     31  C   UNL     1       2.258   2.514   1.018  0.00  0.00    +0.006 A 
ATOM     32  C   UNL     1       3.577   2.385   0.626  0.00  0.00    +0.038 A 
ATOM     33  C   UNL     1       3.883   2.137  -0.701  0.00  0.00    +0.123 A 
ATOM     34  C   UNL     1       2.867   2.018  -1.634  0.00  0.00    +0.038 A 
ATOM     35  C   UNL     1       1.549   2.142  -1.239  0.00  0.00    +0.006 A 
ATOM     36  F   UNL     1       5.172   2.011  -1.085  0.00  0.00    -0.205 F 
ENDBRANCH  29  30
ENDBRANCH  28  29
ENDBRANCH  23  28
ENDBRANCH   1  24
TORSDOF 6
