REMARK  Name = ZINC18220152
REMARK  10 active torsions:
REMARK  status: ('A' for Active; 'I' for Inactive)
REMARK    1  A    between atoms: C_1  and  C_2
REMARK    2  A    between atoms: C_2  and  C_3
REMARK    3  A    between atoms: C_3  and  O_4
REMARK    4  A    between atoms: O_4  and  C_5
REMARK    5  A    between atoms: C_8  and  N_11
REMARK    6  A    between atoms: C_15  and  N_19
REMARK    7  A    between atoms: N_19  and  C_20
REMARK    8  A    between atoms: C_20  and  C_21
REMARK    9  A    between atoms: N_24  and  C_27
REMARK   10  A    between atoms: C_27  and  C_28
REMARK                            x       y       z     vdW  Elec       q    Type
REMARK                         _______ _______ _______ _____ _____    ______ ____
ROOT
ATOM      1  N   UNL     1       3.196  -4.381  -5.569  0.00  0.00    -0.212 N 
ATOM      2  C   UNL     1       3.678  -3.697  -6.614  0.00  0.00    +0.225 C 
ATOM      3  O   UNL     1       3.639  -2.493  -6.744  0.00  0.00    -0.275 OA
ATOM      4  C   UNL     1       4.281  -4.667  -7.608  0.00  0.00    +0.090 C 
ATOM      5  C   UNL     1       4.061  -6.043  -6.949  0.00  0.00    +0.026 C 
ATOM      6  C   UNL     1       3.362  -5.707  -5.649  0.00  0.00    +0.213 C 
ATOM      7  O   UNL     1       3.006  -6.511  -4.815  0.00  0.00    -0.277 OA
ENDROOT
BRANCH   1  11
ATOM      8  C   UNL     1       1.343  -2.529  -2.322  0.00  0.00    +0.121 A 
ATOM      9  C   UNL     1       2.567  -3.159  -2.155  0.00  0.00    +0.047 A 
ATOM     10  C   UNL     1       3.181  -3.772  -3.230  0.00  0.00    +0.027 A 
ATOM     11  C   UNL     1       2.572  -3.758  -4.477  0.00  0.00    +0.044 A 
ATOM     12  C   UNL     1       1.347  -3.127  -4.644  0.00  0.00    +0.027 A 
ATOM     13  C   UNL     1       0.732  -2.519  -3.568  0.00  0.00    +0.047 A 
BRANCH   8  14
ATOM     14  O   UNL     1       0.739  -1.926  -1.264  0.00  0.00    -0.492 OA
BRANCH  14  15
ATOM     15  C   UNL     1       1.425  -1.974  -0.012  0.00  0.00    +0.229 C 
BRANCH  15  17
ATOM     16  C   UNL     1       1.332  -1.300   2.392  0.00  0.00    +0.007 C 
ATOM     17  C   UNL     1       0.598  -1.248   1.051  0.00  0.00    +0.038 C 
ENDBRANCH  15  17
ENDBRANCH  14  15
ENDBRANCH   8  14
ENDBRANCH   1  11
BRANCH   5  18
ATOM     18  N   UNL     1       3.213  -6.893  -7.796  0.00  0.00    +0.387 N 
ATOM     19  H   UNL     1       2.291  -6.488  -7.862  0.00  0.00    -0.085 HD
ATOM     20  H   UNL     1       3.618  -6.959  -8.718  0.00  0.00    -0.085 HD
BRANCH  18  21
ATOM     21  C   UNL     1       3.118  -8.234  -7.205  0.00  0.00    -0.078 C 
BRANCH  21  22
ATOM     22  C   UNL     1       2.235  -9.118  -8.088  0.00  0.00    -0.032 C 
ATOM     23  C   UNL     1       0.801  -8.580  -8.081  0.00  0.00    -0.017 C 
ATOM     24  C   UNL     1      -0.093  -9.514  -8.900  0.00  0.00    -0.078 C 
ATOM     25  N   UNL     1      -0.071 -10.858  -8.312  0.00  0.00    +0.383 N 
ATOM     26  C   UNL     1       1.288 -11.410  -8.381  0.00  0.00    -0.078 C 
ATOM     27  C   UNL     1       2.235 -10.549  -7.542  0.00  0.00    -0.017 C 
ATOM     28  H   UNL     1      -0.364 -10.808  -7.348  0.00  0.00    -0.081 HD
BRANCH  25  29
ATOM     29  C   UNL     1      -0.990 -11.731  -9.056  0.00  0.00    -0.036 C 
BRANCH  29  30
ATOM     30  C   UNL     1      -1.062 -13.076  -8.380  0.00  0.00    -0.027 A 
ATOM     31  C   UNL     1      -1.908 -13.500  -7.409  0.00  0.00    +0.009 A 
ATOM     32  C   UNL     1      -1.789 -14.792  -6.934  0.00  0.00    +0.008 A 
ATOM     33  C   UNL     1      -0.831 -15.598  -7.453  0.00  0.00    +0.045 A 
ATOM     34  S   UNL     1      -0.060 -14.528  -8.656  0.00  0.00    -0.103 S 
ENDBRANCH  29  30
ENDBRANCH  25  29
ENDBRANCH  21  22
ENDBRANCH  18  21
ENDBRANCH   5  18
TORSDOF 9
