REMARK  Name = ZINC06443763
REMARK  9 active torsions:
REMARK  status: ('A' for Active; 'I' for Inactive)
REMARK    1  A    between atoms: C_1  and  C_2
REMARK    2  A    between atoms: C_12  and  C_14
REMARK    3  A    between atoms: C_14  and  C_16
REMARK    4  A    between atoms: C_14  and  N_69
REMARK    5  A    between atoms: N_20  and  C_21
REMARK    6  A    between atoms: C_26  and  C_27
REMARK    7  A    between atoms: C_26  and  N_69
REMARK    8  A    between atoms: C_33  and  C_34
REMARK    9  A    between atoms: C_33  and  N_69
REMARK                            x       y       z     vdW  Elec       q    Type
REMARK                         _______ _______ _______ _____ _____    ______ ____
ROOT
ATOM      1  C   UNL     1       0.007  -2.827   4.445  0.00  0.00    +0.040 C 
ENDROOT
BRANCH   1  13
ATOM      2  C   UNL     1       0.564   0.197  -1.365  0.00  0.00    +0.046 C 
ATOM      3  C   UNL     1       0.408  -1.260  -1.012  0.00  0.00    -0.026 A 
ATOM      4  C   UNL     1       0.356  -2.211  -2.008  0.00  0.00    +0.005 A 
ATOM      5  C   UNL     1       0.219  -3.557  -1.696  0.00  0.00    +0.001 A 
ATOM      6  C   UNL     1       0.119  -3.962  -0.395  0.00  0.00    +0.010 A 
ATOM      7  C   UNL     1       0.163  -3.014   0.632  0.00  0.00    -0.001 A 
ATOM      8  C   UNL     1       0.309  -1.649   0.320  0.00  0.00    +0.052 A 
ATOM      9  N   UNL     1       0.352  -0.718   1.336  0.00  0.00    -0.322 N 
ATOM     10  H   UNL     1       0.453   0.222   1.119  0.00  0.00    +0.169 HD
ATOM     11  C   UNL     1       0.257  -1.095   2.623  0.00  0.00    +0.251 A 
ATOM     12  O   UNL     1       0.298  -0.245   3.496  0.00  0.00    -0.268 OA
ATOM     13  C   UNL     1       0.109  -2.450   2.990  0.00  0.00    +0.011 A 
ATOM     14  C   UNL     1       0.060  -3.413   2.037  0.00  0.00    +0.017 A 
ENDBRANCH   1  13
BRANCH   1  15
ATOM     15  C   UNL     1      -1.252  -2.239   5.029  0.00  0.00    +0.143 A 
ATOM     16  N   UNL     1      -1.409  -1.019   5.481  0.00  0.00    -0.115 NA
ATOM     17  N   UNL     1      -2.624  -0.901   5.893  0.00  0.00    -0.023 NA
ATOM     18  N   UNL     1      -3.244  -2.017   5.723  0.00  0.00    -0.044 NA
ATOM     19  N   UNL     1      -2.432  -2.867   5.192  0.00  0.00    -0.227 N 
BRANCH  19  20
ATOM     20  C   UNL     1      -2.736  -4.255   4.834  0.00  0.00    +0.111 C 
ATOM     21  C   UNL     1      -3.915  -4.298   3.841  0.00  0.00    +0.027 C 
ATOM     22  C   UNL     1      -4.718  -5.556   4.260  0.00  0.00    +0.002 C 
ATOM     23  C   UNL     1      -4.618  -5.526   5.806  0.00  0.00    +0.002 C 
ATOM     24  C   UNL     1      -3.182  -5.035   6.083  0.00  0.00    +0.027 C 
ENDBRANCH  19  20
ENDBRANCH   1  15
BRANCH   1  25
ATOM     25  N   UNL     1       1.169  -2.277   5.173  0.00  0.00    +0.395 N 
ATOM     26  H   UNL     1       1.031  -1.268   5.309  0.00  0.00    -0.079 HD
BRANCH  25  27
ATOM     27  C   UNL     1       1.290  -2.926   6.495  0.00  0.00    -0.041 C 
BRANCH  27  28
ATOM     28  C   UNL     1       0.280  -2.311   7.429  0.00  0.00    -0.064 A 
ATOM     29  C   UNL     1       0.569  -1.125   8.077  0.00  0.00    +0.002 A 
ATOM     30  C   UNL     1      -0.359  -0.558   8.930  0.00  0.00    +0.000 A 
ATOM     31  C   UNL     1      -1.574  -1.184   9.143  0.00  0.00    +0.000 A 
ATOM     32  C   UNL     1      -1.861  -2.373   8.500  0.00  0.00    +0.000 A 
ATOM     33  C   UNL     1      -0.934  -2.937   7.643  0.00  0.00    +0.002 A 
ENDBRANCH  27  28
ENDBRANCH  25  27
BRANCH  25  34
ATOM     34  C   UNL     1       2.404  -2.491   4.390  0.00  0.00    -0.040 C 
BRANCH  34  35
ATOM     35  C   UNL     1       3.541  -1.768   5.066  0.00  0.00    -0.046 A 
ATOM     36  C   UNL     1       3.747  -0.416   4.838  0.00  0.00    +0.005 A 
ATOM     37  C   UNL     1       4.803   0.208   5.484  0.00  0.00    +0.020 A 
ATOM     38  C   UNL     1       5.614  -0.534   6.321  0.00  0.00    +0.111 A 
ATOM     39  N   UNL     1       5.391  -1.820   6.511  0.00  0.00    -0.263 NA
ATOM     40  C   UNL     1       4.394  -2.446   5.916  0.00  0.00    +0.112 A 
ENDBRANCH  34  35
ENDBRANCH  25  34
ENDBRANCH   1  25
TORSDOF 8
