REMARK  Name = ZINC04978874
REMARK  7 active torsions:
REMARK  status: ('A' for Active; 'I' for Inactive)
REMARK    1  A    between atoms: C_1  and  C_2
REMARK    2  A    between atoms: C_4  and  C_8
REMARK    3  A    between atoms: C_5  and  C_7
REMARK    4  A    between atoms: C_15  and  N_30
REMARK    5  A    between atoms: C_16  and  C_28
REMARK    6  A    between atoms: C_17  and  C_19
REMARK    7  A    between atoms: C_23  and  N_25
REMARK                            x       y       z     vdW  Elec       q    Type
REMARK                         _______ _______ _______ _____ _____    ______ ____
ROOT
ATOM      1  C   UNL     1      -1.955  -3.090   0.081  0.00  0.00    +0.101 A 
ATOM      2  C   UNL     1      -3.310  -2.745   0.107  0.00  0.00    +0.054 A 
ATOM      3  C   UNL     1      -4.037  -3.897   0.184  0.00  0.00    +0.223 A 
ATOM      4  N   UNL     1      -3.170  -4.930   0.208  0.00  0.00    -0.246 N 
ATOM      5  H   UNL     1      -3.403  -5.870   0.261  0.00  0.00    +0.192 HD
ATOM      6  N   UNL     1      -1.870  -4.406   0.136  0.00  0.00    -0.171 NA
ATOM      7  O   UNL     1      -5.393  -3.906   0.224  0.00  0.00    -0.423 OA
ATOM      8  C   UNL     1      -6.035  -2.762  -0.090  0.00  0.00    +0.200 C 
ATOM      9  C   UNL     1      -5.425  -1.560  -0.184  0.00  0.00    +0.098 C 
ATOM     10  C   UNL     1      -3.947  -1.381   0.062  0.00  0.00    +0.102 C 
ENDROOT
BRANCH   1  14
ATOM     11  C   UNL     1       0.472   0.916  -1.882  0.00  0.00    +0.051 C 
ATOM     12  C   UNL     1       0.242  -0.266  -0.976  0.00  0.00    -0.012 A 
ATOM     13  C   UNL     1      -0.815  -1.108  -0.931  0.00  0.00    +0.021 A 
ATOM     14  C   UNL     1      -0.814  -2.144  -0.002  0.00  0.00    +0.013 A 
ATOM     15  C   UNL     1       0.259  -2.270   0.834  0.00  0.00    -0.004 A 
ATOM     16  S   UNL     1       1.298  -0.917   0.308  0.00  0.00    -0.098 S 
ATOM     17  C   UNL     1       0.506  -3.290   1.915  0.00  0.00    +0.052 C 
ENDBRANCH   1  14
BRANCH  10  18
ATOM     18  C   UNL     1      -3.733  -0.676   1.377  0.00  0.00    -0.032 A 
ATOM     19  C   UNL     1      -4.141  -1.273   2.556  0.00  0.00    +0.005 A 
ATOM     20  C   UNL     1      -3.944  -0.627   3.762  0.00  0.00    +0.003 A 
ATOM     21  C   UNL     1      -3.338   0.616   3.789  0.00  0.00    +0.033 A 
ATOM     22  C   UNL     1      -2.929   1.212   2.611  0.00  0.00    +0.126 A 
ATOM     23  C   UNL     1      -3.123   0.564   1.405  0.00  0.00    +0.037 A 
BRANCH  22  24
ATOM     24  N   UNL     1      -2.282   2.542   2.641  0.00  0.00    +0.056 N 
ATOM     25  O   UNL     1      -2.197   3.150   3.682  0.00  0.00    -0.126 OA
ATOM     26  O   UNL     1      -1.837   3.021   1.623  0.00  0.00    -0.126 OA
ENDBRANCH  22  24
ENDBRANCH  10  18
BRANCH   8  27
ATOM     27  N   UNL     1      -7.385  -2.822  -0.329  0.00  0.00    -0.328 N 
ATOM     28  H   UNL     1      -7.851  -3.671  -0.269  0.00  0.00    +0.145 HD
ATOM     29  H   UNL     1      -7.874  -2.016  -0.557  0.00  0.00    +0.145 HD
ENDBRANCH   8  27
BRANCH   9  30
ATOM     30  C   UNL     1      -6.210  -0.413  -0.531  0.00  0.00    +0.101 C 
ATOM     31  N   UNL     1      -6.832   0.496  -0.807  0.00  0.00    -0.191 NA
ENDBRANCH   9  30
TORSDOF 5
