REMARK  Name = ZINC38683219
REMARK  11 active torsions:
REMARK  status: ('A' for Active; 'I' for Inactive)
REMARK    1  A    between atoms: C_1  and  O_2
REMARK    2  A    between atoms: O_2  and  C_3
REMARK    3  A    between atoms: C_6  and  C_9
REMARK    4  A    between atoms: C_9  and  O_11
REMARK    5  A    between atoms: O_11  and  C_12
REMARK    6  A    between atoms: C_19  and  N_35
REMARK    7  A    between atoms: C_20  and  C_33
REMARK    8  A    between atoms: C_21  and  C_23
REMARK    9  A    between atoms: C_26  and  C_29
REMARK   10  A    between atoms: C_29  and  O_31
REMARK   11  A    between atoms: O_31  and  C_32
REMARK                            x       y       z     vdW  Elec       q    Type
REMARK                         _______ _______ _______ _____ _____    ______ ____
ROOT
ATOM      1  C   UNL     1      -6.270  -4.462   0.010  0.00  0.00    +0.135 A 
ATOM      2  C   UNL     1      -7.357  -3.601  -0.058  0.00  0.00    +0.047 A 
ATOM      3  C   UNL     1      -8.640  -4.111  -0.084  0.00  0.00    +0.012 A 
ATOM      4  C   UNL     1      -8.848  -5.479  -0.042  0.00  0.00    +0.008 A 
ATOM      5  C   UNL     1      -7.766  -6.342   0.026  0.00  0.00    +0.138 A 
ATOM      6  C   UNL     1      -6.475  -5.832   0.047  0.00  0.00    +0.093 A 
ATOM      7  O   UNL     1      -7.950  -7.685   0.069  0.00  0.00    -0.441 OA
ATOM      8  C   UNL     1      -9.117  -8.215  -0.335  0.00  0.00    +0.199 C 
ATOM      9  C   UNL     1     -10.248  -7.475  -0.423  0.00  0.00    +0.098 C 
ATOM     10  C   UNL     1     -10.255  -6.014  -0.070  0.00  0.00    +0.098 C 
ENDROOT
BRANCH  10  11
ATOM     11  C   UNL     1     -10.887  -5.832   1.286  0.00  0.00    -0.035 A 
ATOM     12  C   UNL     1     -10.316  -6.426   2.397  0.00  0.00    +0.005 A 
ATOM     13  C   UNL     1     -10.889  -6.263   3.641  0.00  0.00    +0.015 A 
ATOM     14  C   UNL     1     -12.047  -5.496   3.778  0.00  0.00    +0.059 A 
ATOM     15  C   UNL     1     -12.618  -4.898   2.652  0.00  0.00    +0.015 A 
ATOM     16  C   UNL     1     -12.031  -5.065   1.415  0.00  0.00    +0.005 A 
BRANCH  14  17
ATOM     17  C   UNL     1     -12.666  -5.317   5.107  0.00  0.00    +0.339 C 
ATOM     18  O   UNL     1     -12.168  -5.838   6.085  0.00  0.00    -0.245 OA
BRANCH  17  19
ATOM     19  O   UNL     1     -13.784  -4.576   5.235  0.00  0.00    -0.464 OA
ATOM     20  C   UNL     1     -14.328  -4.446   6.550  0.00  0.00    +0.280 C 
ENDBRANCH  17  19
ENDBRANCH  14  17
ENDBRANCH  10  11
BRANCH   8  21
ATOM     21  N   UNL     1      -9.164  -9.546  -0.668  0.00  0.00    -0.328 N 
ATOM     22  H   UNL     1      -8.363 -10.089  -0.610  0.00  0.00    +0.145 HD
ATOM     23  H   UNL     1      -9.999  -9.943  -0.961  0.00  0.00    +0.145 HD
ENDBRANCH   8  21
BRANCH   9  24
ATOM     24  C   UNL     1     -11.461  -8.098  -0.860  0.00  0.00    +0.101 C 
ATOM     25  N   UNL     1     -12.423  -8.591  -1.207  0.00  0.00    -0.191 NA
ENDBRANCH   9  24
BRANCH   1  26
ATOM     26  O   UNL     1      -5.007  -3.962   0.035  0.00  0.00    -0.422 OA
BRANCH  26  27
ATOM     27  C   UNL     1      -4.283  -4.016  -1.101  0.00  0.00    +0.344 C 
ATOM     28  O   UNL     1      -4.729  -4.581  -2.080  0.00  0.00    -0.245 OA
BRANCH  27  32
ATOM     29  C   UNL     1      -0.443  -2.212  -1.257  0.00  0.00    +0.120 A 
ATOM     30  C   UNL     1      -0.951  -2.858  -2.378  0.00  0.00    +0.046 A 
ATOM     31  C   UNL     1      -2.196  -3.445  -2.332  0.00  0.00    +0.018 A 
ATOM     32  C   UNL     1      -2.949  -3.390  -1.155  0.00  0.00    +0.060 A 
ATOM     33  C   UNL     1      -2.433  -2.739  -0.030  0.00  0.00    +0.018 A 
ATOM     34  C   UNL     1      -1.185  -2.160  -0.083  0.00  0.00    +0.046 A 
BRANCH  29  36
ATOM     35  C   UNL     1       1.494  -1.726  -2.545  0.00  0.00    +0.277 C 
ATOM     36  O   UNL     1       0.785  -1.636  -1.307  0.00  0.00    -0.495 OA
ENDBRANCH  29  36
ENDBRANCH  27  32
ENDBRANCH  26  27
ENDBRANCH   1  26
TORSDOF 9
