REMARK  Name = ZINC39315113
REMARK  9 active torsions:
REMARK  status: ('A' for Active; 'I' for Inactive)
REMARK    1  A    between atoms: C_1  and  O_2
REMARK    2  A    between atoms: O_2  and  C_3
REMARK    3  A    between atoms: C_8  and  C_9
REMARK    4  A    between atoms: C_11  and  C_28
REMARK    5  A    between atoms: C_12  and  C_17
REMARK    6  A    between atoms: C_17  and  S_18
REMARK    7  A    between atoms: S_18  and  C_19
REMARK    8  A    between atoms: C_28  and  O_30
REMARK    9  A    between atoms: O_30  and  C_31
REMARK                            x       y       z     vdW  Elec       q    Type
REMARK                         _______ _______ _______ _____ _____    ______ ____
ROOT
ATOM      1  C   UNL     1      -0.074  -2.838   0.247  0.00  0.00    +0.147 C 
ATOM      2  C   UNL     1       0.446  -2.905   1.669  0.00  0.00    +0.079 C 
ATOM      3  C   UNL     1       0.727  -4.124   2.178  0.00  0.00    +0.034 C 
ATOM      4  N   UNL     1       0.548  -5.257   1.437  0.00  0.00    -0.272 N 
ATOM      5  C   UNL     1       0.092  -5.255   0.178  0.00  0.00    +0.304 C 
ATOM      6  O   UNL     1      -0.035  -6.316  -0.403  0.00  0.00    -0.252 OA
ATOM      7  N   UNL     1      -0.232  -4.117  -0.466  0.00  0.00    -0.288 N 
ATOM      8  H   UNL     1       0.764  -6.110   1.844  0.00  0.00    +0.156 HD
ATOM      9  H   UNL     1      -0.561  -4.139  -1.378  0.00  0.00    +0.151 HD
ENDROOT
BRANCH   1  15
ATOM     10  C   UNL     1      -1.488  -0.769   0.321  0.00  0.00    +0.125 A 
ATOM     11  C   UNL     1      -2.725  -0.141   0.341  0.00  0.00    +0.046 A 
ATOM     12  C   UNL     1      -3.882  -0.896   0.322  0.00  0.00    +0.004 A 
ATOM     13  C   UNL     1      -3.807  -2.277   0.282  0.00  0.00    +0.001 A 
ATOM     14  C   UNL     1      -2.576  -2.904   0.262  0.00  0.00    +0.009 A 
ATOM     15  C   UNL     1      -1.416  -2.154   0.275  0.00  0.00    +0.019 A 
BRANCH  10  17
ATOM     16  C   UNL     1      -0.496   1.385   0.494  0.00  0.00    +0.277 C 
ATOM     17  O   UNL     1      -0.349  -0.028   0.339  0.00  0.00    -0.495 OA
ENDBRANCH  10  17
ENDBRANCH   1  15
BRANCH   2  18
ATOM     18  C   UNL     1       0.632  -1.732   2.436  0.00  0.00    +0.339 C 
ATOM     19  O   UNL     1       1.624  -1.047   2.270  0.00  0.00    -0.245 OA
BRANCH  18  20
ATOM     20  O   UNL     1      -0.291  -1.371   3.352  0.00  0.00    -0.465 OA
ATOM     21  C   UNL     1      -0.095  -0.120   4.013  0.00  0.00    +0.280 C 
ENDBRANCH  18  20
ENDBRANCH   2  18
BRANCH   3  22
ATOM     22  C   UNL     1       1.247  -4.236   3.588  0.00  0.00    +0.128 C 
BRANCH  22  23
ATOM     23  S   UNL     1      -0.078  -4.830   4.676  0.00  0.00    -0.082 S 
BRANCH  23  24
ATOM     24  C   UNL     1       0.678  -4.907   6.266  0.00  0.00    +0.168 A 
ATOM     25  N   UNL     1       1.923  -4.588   6.524  0.00  0.00    -0.222 NA
ATOM     26  C   UNL     1       2.174  -4.763   7.848  0.00  0.00    +0.090 A 
ATOM     27  C   UNL     1       3.308  -4.578   8.642  0.00  0.00    +0.030 A 
ATOM     28  C   UNL     1       3.249  -4.849   9.992  0.00  0.00    +0.002 A 
ATOM     29  C   UNL     1       2.073  -5.304  10.568  0.00  0.00    +0.002 A 
ATOM     30  C   UNL     1       0.944  -5.492   9.796  0.00  0.00    +0.028 A 
ATOM     31  C   UNL     1       0.984  -5.224   8.437  0.00  0.00    +0.067 A 
ATOM     32  N   UNL     1       0.052  -5.301   7.415  0.00  0.00    -0.333 N 
ATOM     33  H   UNL     1      -0.872  -5.584   7.498  0.00  0.00    +0.168 HD
ENDBRANCH  23  24
ENDBRANCH  22  23
ENDBRANCH   3  22
TORSDOF 7
