REMARK  Name = ZINC09302765
REMARK  8 active torsions:
REMARK  status: ('A' for Active; 'I' for Inactive)
REMARK    1  A    between atoms: C_1  and  C_2
REMARK    2  A    between atoms: C_2  and  C_3
REMARK    3  A    between atoms: C_3  and  C_4
REMARK    4  A    between atoms: C_4  and  N_5
REMARK    5  A    between atoms: C_10  and  C_28
REMARK    6  A    between atoms: C_28  and  C_29
REMARK    7  A    between atoms: C_29  and  C_30
REMARK    8  A    between atoms: C_29  and  C_31
REMARK                            x       y       z     vdW  Elec       q    Type
REMARK                         _______ _______ _______ _____ _____    ______ ____
ROOT
ATOM      1  N   UNL     1       1.173  -2.215  -2.808  0.00  0.00    -0.242 N 
ATOM      2  C   UNL     1       0.660  -2.554  -3.996  0.00  0.00    +0.224 C 
ATOM      3  O   UNL     1      -0.499  -2.416  -4.323  0.00  0.00    -0.275 OA
ATOM      4  C   UNL     1       1.750  -3.134  -4.868  0.00  0.00    +0.073 C 
ATOM      5  C   UNL     1       1.472  -4.634  -5.102  0.00  0.00    -0.057 C 
ATOM      6  N   UNL     1       2.101  -5.324  -3.945  0.00  0.00    +0.394 N 
ATOM      7  C   UNL     1       3.349  -4.574  -3.712  0.00  0.00    +0.050 C 
ATOM      8  C   UNL     1       3.006  -3.082  -3.953  0.00  0.00    +0.088 C 
ATOM      9  C   UNL     1       2.482  -2.461  -2.678  0.00  0.00    +0.225 C 
ATOM     10  O   UNL     1       3.144  -2.225  -1.690  0.00  0.00    -0.275 OA
ATOM     11  C   UNL     1       3.879  -4.803  -2.325  0.00  0.00    -0.027 A 
ATOM     12  C   UNL     1       3.366  -4.588  -1.065  0.00  0.00    +0.019 A 
ATOM     13  C   UNL     1       4.115  -4.913   0.052  0.00  0.00    +0.018 A 
ATOM     14  C   UNL     1       5.380  -5.453  -0.099  0.00  0.00    +0.017 A 
ATOM     15  C   UNL     1       5.898  -5.668  -1.359  0.00  0.00    +0.024 A 
ATOM     16  C   UNL     1       5.151  -5.345  -2.490  0.00  0.00    +0.036 A 
ATOM     17  N   UNL     1       5.452  -5.466  -3.848  0.00  0.00    -0.286 N 
ATOM     18  C   UNL     1       4.446  -5.034  -4.632  0.00  0.00    +0.211 C 
ATOM     19  O   UNL     1       4.427  -5.020  -5.845  0.00  0.00    -0.277 OA
ATOM     20 BR   UNL     1       3.411  -4.620   1.783  0.00  0.00    -0.050 Br
ATOM     21  H   UNL     1       1.501  -5.273  -3.135  0.00  0.00    -0.083 HD
ATOM     22  H   UNL     1       6.289  -5.820  -4.188  0.00  0.00    +0.155 HD
ATOM     23  H   UNL     1       2.305  -6.285  -4.176  0.00  0.00    -0.083 HD
ENDROOT
BRANCH   1  24
ATOM     24  C   UNL     1       0.369  -1.618  -1.739  0.00  0.00    +0.116 C 
BRANCH  24  25
ATOM     25  C   UNL     1       0.387  -0.094  -1.877  0.00  0.00    +0.019 C 
BRANCH  25  27
ATOM     26  C   UNL     1      -0.434   2.053  -0.899  0.00  0.00    +0.004 C 
ATOM     27  C   UNL     1      -0.452   0.529  -0.760  0.00  0.00    -0.002 C 
ENDBRANCH  25  27
ENDBRANCH  24  25
ENDBRANCH   1  24
BRANCH   5  28
ATOM     28  C   UNL     1      -0.034  -4.898  -5.129  0.00  0.00    -0.012 C 
BRANCH  28  29
ATOM     29  C   UNL     1      -0.288  -6.367  -5.472  0.00  0.00    -0.019 C 
ATOM     30  C   UNL     1      -1.784  -6.667  -5.355  0.00  0.00    +0.007 C 
ATOM     31  C   UNL     1       0.177  -6.645  -6.903  0.00  0.00    +0.007 C 
ENDBRANCH  28  29
ENDBRANCH   5  28
TORSDOF 5
