REMARK  Name = ZINC35775635
REMARK  12 active torsions:
REMARK  status: ('A' for Active; 'I' for Inactive)
REMARK    1  A    between atoms: C_1  and  C_2
REMARK    2  A    between atoms: C_2  and  C_3
REMARK    3  A    between atoms: C_2  and  N_4
REMARK    4  A    between atoms: N_4  and  C_5
REMARK    5  A    between atoms: N_4  and  S_25
REMARK    6  A    between atoms: C_5  and  C_6
REMARK    7  A    between atoms: N_8  and  C_9
REMARK    8  A    between atoms: N_8  and  C_19
REMARK    9  A    between atoms: C_9  and  C_10
REMARK   10  A    between atoms: C_19  and  C_20
REMARK   11  A    between atoms: S_25  and  C_28
REMARK   12  A    between atoms: C_29  and  C_30
REMARK                            x       y       z     vdW  Elec       q    Type
REMARK                         _______ _______ _______ _____ _____    ______ ____
ROOT
ATOM      1  C   UNL     1      -2.916   1.159   0.858  0.00  0.00    +0.232 C 
ATOM      2  O   UNL     1      -2.655   1.770  -0.157  0.00  0.00    -0.274 OA
ATOM      3  N   UNL     1      -3.786   1.674   1.749  0.00  0.00    -0.291 N 
ENDROOT
BRANCH   1   4
ATOM      4  C   UNL     1      -2.269  -0.175   1.122  0.00  0.00    +0.205 C 
BRANCH   4   5
ATOM      5  N   UNL     1      -1.372  -0.511   0.012  0.00  0.00    -0.166 NA
BRANCH   5   7
ATOM      6  C   UNL     1      -0.019   1.526   0.010  0.00  0.00    +0.025 C 
ATOM      7  C   UNL     1       0.002  -0.004   0.002  0.00  0.00    +0.074 C 
ATOM      8  C   UNL     1       0.742  -0.511   1.242  0.00  0.00    +0.025 C 
ENDBRANCH   5   7
BRANCH   5   9
ATOM      9  S   UNL     1      -1.913  -1.464  -1.230  0.00  0.00    +0.055 S 
ATOM     10  O   UNL     1      -3.328  -1.333  -1.256  0.00  0.00    -0.153 OA
ATOM     11  O   UNL     1      -1.099  -1.164  -2.355  0.00  0.00    -0.153 OA
BRANCH   9  12
ATOM     12  C   UNL     1      -1.570  -3.136  -0.791  0.00  0.00    +0.153 C 
ATOM     13  C   UNL     1      -2.568  -3.985  -0.585  0.00  0.00    +0.028 C 
BRANCH  13  14
ATOM     14  C   UNL     1      -2.280  -5.387  -0.217  0.00  0.00    -0.024 A 
ATOM     15  C   UNL     1      -0.961  -5.819  -0.080  0.00  0.00    +0.008 A 
ATOM     16  C   UNL     1      -0.699  -7.130   0.264  0.00  0.00    +0.001 A 
ATOM     17  C   UNL     1      -1.742  -8.014   0.472  0.00  0.00    +0.000 A 
ATOM     18  C   UNL     1      -3.053  -7.592   0.337  0.00  0.00    +0.001 A 
ATOM     19  C   UNL     1      -3.328  -6.283   0.000  0.00  0.00    +0.008 A 
ENDBRANCH  13  14
ENDBRANCH   9  12
ENDBRANCH   5   9
ENDBRANCH   4   5
ENDBRANCH   1   4
BRANCH   3  20
ATOM     20  C   UNL     1      -4.416   2.972   1.492  0.00  0.00    +0.143 C 
BRANCH  20  21
ATOM     21  C   UNL     1      -5.703   2.765   0.736  0.00  0.00    -0.026 A 
ATOM     22  C   UNL     1      -5.696   2.748  -0.646  0.00  0.00    +0.009 A 
ATOM     23  C   UNL     1      -6.874   2.558  -1.344  0.00  0.00    +0.050 A 
ATOM     24  C   UNL     1      -8.065   2.384  -0.659  0.00  0.00    +0.166 A 
ATOM     25  C   UNL     1      -8.072   2.401   0.734  0.00  0.00    +0.167 A 
ATOM     26  C   UNL     1      -6.887   2.586   1.427  0.00  0.00    +0.054 A 
ATOM     27  O   UNL     1      -9.353   2.210   1.165  0.00  0.00    -0.453 OA
ATOM     28  C   UNL     1     -10.188   2.484   0.025  0.00  0.00    +0.466 C 
ATOM     29  O   UNL     1      -9.341   2.183  -1.099  0.00  0.00    -0.453 OA
ENDBRANCH  20  21
ENDBRANCH   3  20
BRANCH   3  30
ATOM     30  C   UNL     1      -4.102   0.937   2.975  0.00  0.00    +0.150 C 
BRANCH  30  31
ATOM     31  C   UNL     1      -3.139   1.336   4.063  0.00  0.00    +0.007 A 
ATOM     32  C   UNL     1      -3.249   2.329   4.979  0.00  0.00    +0.013 A 
ATOM     33  C   UNL     1      -2.230   2.514   5.894  0.00  0.00    +0.008 A 
ATOM     34  C   UNL     1      -1.150   1.696   5.849  0.00  0.00    +0.045 A 
ATOM     35  S   UNL     1      -1.560   0.618   4.486  0.00  0.00    -0.100 S 
ENDBRANCH  30  31
ENDBRANCH   3  30
TORSDOF 10
