REMARK  Name = ZINC20753778
REMARK  6 active torsions:
REMARK  status: ('A' for Active; 'I' for Inactive)
REMARK    1  A    between atoms: C_4  and  O_7
REMARK    2  A    between atoms: O_7  and  C_8
REMARK    3  A    between atoms: C_8  and  C_9
REMARK    4  A    between atoms: C_9  and  O_10
REMARK    5  A    between atoms: O_10  and  C_11
REMARK    6  A    between atoms: C_18  and  C_27
REMARK                            x       y       z     vdW  Elec       q    Type
REMARK                         _______ _______ _______ _____ _____    ______ ____
ROOT
ATOM      1  C   UNL     1       1.213  -0.723  -0.011  0.00  0.00    +0.142 A 
ATOM      2  C   UNL     1       0.003  -0.058   0.015  0.00  0.00    +0.047 A 
ATOM      3  C   UNL     1      -0.032   1.324   0.026  0.00  0.00    +0.004 A 
ATOM      4  C   UNL     1       1.152   2.038   0.017  0.00  0.00    +0.006 A 
ATOM      5  C   UNL     1       2.366   1.383  -0.000  0.00  0.00    -0.016 A 
ATOM      6  C   UNL     1       2.419  -0.012  -0.021  0.00  0.00    +0.074 A 
ATOM      7  N   UNL     1       3.603  -0.750  -0.067  0.00  0.00    -0.334 N 
ATOM      8  C   UNL     1       4.861   0.012   0.004  0.00  0.00    +0.106 C 
ATOM      9  C   UNL     1       4.664   1.272  -0.813  0.00  0.00    +0.029 C 
ATOM     10  C   UNL     1       3.648   2.122   0.013  0.00  0.00    +0.049 C 
ATOM     11  C   UNL     1       3.795   3.479  -0.569  0.00  0.00    -0.023 C 
ATOM     12  C   UNL     1       5.030   3.604  -1.041  0.00  0.00    -0.030 C 
ATOM     13  C   UNL     1       5.802   2.298  -0.837  0.00  0.00    +0.033 C 
ATOM     14  H   UNL     1       3.629  -1.846  -0.151  0.00  0.00    +0.147 HD
ENDROOT
BRANCH   8  15
ATOM     15  C   UNL     1       5.164   0.371   1.437  0.00  0.00    -0.012 A 
ATOM     16  C   UNL     1       6.370   0.987   1.765  0.00  0.00    -0.012 A 
ATOM     17  C   UNL     1       7.328   1.288   0.773  0.00  0.00    +0.009 A 
ATOM     18  C   UNL     1       8.493   1.889   1.127  0.00  0.00    +0.001 A 
ATOM     19  C   UNL     1       8.774   2.221   2.453  0.00  0.00    +0.001 A 
ATOM     20  C   UNL     1       7.891   1.970   3.454  0.00  0.00    +0.008 A 
ATOM     21  C   UNL     1       6.663   1.341   3.157  0.00  0.00    -0.017 A 
ATOM     22  C   UNL     1       5.741   1.053   4.163  0.00  0.00    +0.017 A 
ATOM     23  C   UNL     1       4.538   0.432   3.835  0.00  0.00    -0.017 A 
ATOM     24  C   UNL     1       4.243   0.083   2.442  0.00  0.00    -0.012 A 
ATOM     25  C   UNL     1       3.014  -0.546   2.146  0.00  0.00    +0.009 A 
ATOM     26  C   UNL     1       2.139  -0.812   3.149  0.00  0.00    +0.001 A 
ATOM     27  C   UNL     1       2.420  -0.480   4.475  0.00  0.00    +0.001 A 
ATOM     28  C   UNL     1       3.582   0.126   4.828  0.00  0.00    +0.008 A 
ENDBRANCH   8  15
BRANCH   1  29
ATOM     29  O   UNL     1       1.234  -2.083  -0.026  0.00  0.00    -0.487 OA
BRANCH  29  30
ATOM     30  C   UNL     1      -0.029  -2.751  -0.014  0.00  0.00    +0.270 C 
BRANCH  30  31
ATOM     31  C   UNL     1       0.194  -4.264  -0.034  0.00  0.00    +0.270 C 
BRANCH  31  32
ATOM     32  O   UNL     1       0.846  -4.666   1.173  0.00  0.00    -0.489 OA
BRANCH  32  36
ATOM     33  C   UNL     1       1.676  -8.683   1.605  0.00  0.00    +0.000 A 
ATOM     34  C   UNL     1       2.028  -7.794   2.604  0.00  0.00    +0.004 A 
ATOM     35  C   UNL     1       1.750  -6.449   2.462  0.00  0.00    +0.045 A 
ATOM     36  C   UNL     1       1.119  -5.989   1.315  0.00  0.00    +0.121 A 
ATOM     37  C   UNL     1       0.763  -6.884   0.317  0.00  0.00    +0.045 A 
ATOM     38  C   UNL     1       1.048  -8.228   0.461  0.00  0.00    +0.004 A 
ENDBRANCH  32  36
ENDBRANCH  31  32
ENDBRANCH  30  31
ENDBRANCH  29  30
ENDBRANCH   1  29
TORSDOF 6
