REMARK  Name = ZINC12567510
REMARK  12 active torsions:
REMARK  status: ('A' for Active; 'I' for Inactive)
REMARK    1  A    between atoms: C_1  and  C_2
REMARK    2  A    between atoms: C_2  and  C_4
REMARK    3  A    between atoms: C_2  and  N_55
REMARK    4  A    between atoms: C_4  and  C_5
REMARK    5  A    between atoms: C_10  and  C_11
REMARK    6  A    between atoms: C_10  and  N_55
REMARK    7  A    between atoms: C_14  and  O_17
REMARK    8  A    between atoms: O_17  and  C_18
REMARK    9  A    between atoms: C_19  and  C_20
REMARK   10  A    between atoms: C_19  and  N_55
REMARK   11  A    between atoms: N_22  and  C_23
REMARK   12  A    between atoms: C_28  and  C_29
REMARK                            x       y       z     vdW  Elec       q    Type
REMARK                         _______ _______ _______ _____ _____    ______ ____
ROOT
ATOM      1  N   UNL     1       5.460   2.472   0.130  0.00  0.00    +0.390 N 
ATOM      2  H   UNL     1       5.343   3.087   0.944  0.00  0.00    -0.080 HD
ENDROOT
BRANCH   1   4
ATOM      3  C   UNL     1       6.523   4.511  -0.697  0.00  0.00    -0.013 C 
ATOM      4  C   UNL     1       5.660   3.305  -1.075  0.00  0.00    -0.066 C 
BRANCH   4   5
ATOM      5  C   UNL     1       6.361   2.500  -2.171  0.00  0.00    +0.027 C 
BRANCH   5   6
ATOM      6  C   UNL     1       5.470   1.367  -2.610  0.00  0.00    -0.012 A 
ATOM      7  C   UNL     1       4.440   1.383  -3.491  0.00  0.00    +0.011 A 
ATOM      8  C   UNL     1       3.758   0.208  -3.745  0.00  0.00    +0.008 A 
ATOM      9  C   UNL     1       4.131  -0.923  -3.098  0.00  0.00    +0.045 A 
ATOM     10  S   UNL     1       5.491  -0.343  -2.098  0.00  0.00    -0.102 S 
ENDBRANCH   5   6
ENDBRANCH   4   5
ENDBRANCH   1   4
BRANCH   1  11
ATOM     11  C   UNL     1       6.638   1.607   0.347  0.00  0.00    -0.042 C 
BRANCH  11  12
ATOM     12  C   UNL     1       7.752   2.442   0.923  0.00  0.00    -0.064 A 
ATOM     13  C   UNL     1       8.793   2.857   0.114  0.00  0.00    +0.005 A 
ATOM     14  C   UNL     1       9.813   3.628   0.638  0.00  0.00    +0.046 A 
ATOM     15  C   UNL     1       9.797   3.977   1.981  0.00  0.00    +0.120 A 
ATOM     16  C   UNL     1       8.754   3.554   2.792  0.00  0.00    +0.046 A 
ATOM     17  C   UNL     1       7.734   2.788   2.262  0.00  0.00    +0.005 A 
BRANCH  15  18
ATOM     18  O   UNL     1      10.801   4.731   2.500  0.00  0.00    -0.495 OA
ATOM     19  C   UNL     1      11.842   5.130   1.606  0.00  0.00    +0.277 C 
ENDBRANCH  15  18
ENDBRANCH  11  12
ENDBRANCH   1  11
BRANCH   1  20
ATOM     20  C   UNL     1       4.246   1.644  -0.025  0.00  0.00    +0.020 C 
BRANCH  20  21
ATOM     21  C   UNL     1       3.035   2.524   0.144  0.00  0.00    +0.201 C 
ATOM     22  O   UNL     1       3.170   3.720   0.287  0.00  0.00    -0.278 OA
ATOM     23  N   UNL     1       1.801   1.981   0.136  0.00  0.00    -0.286 N 
ATOM     24  H   UNL     1       1.695   1.018   0.085  0.00  0.00    +0.155 HD
BRANCH  23  25
ATOM     25  C   UNL     1       0.677   2.804   0.199  0.00  0.00    +0.051 A 
ATOM     26  C   UNL     1       0.723   3.993   0.913  0.00  0.00    +0.024 A 
ATOM     27  C   UNL     1      -0.391   4.806   0.976  0.00  0.00    +0.002 A 
ATOM     28  C   UNL     1      -1.560   4.444   0.328  0.00  0.00    +0.001 A 
ATOM     29  C   UNL     1      -1.623   3.269  -0.390  0.00  0.00    +0.021 A 
ATOM     30  C   UNL     1      -0.506   2.433  -0.457  0.00  0.00    +0.073 A 
BRANCH  30  31
ATOM     31  C   UNL     1      -0.566   1.209  -1.198  0.00  0.00    +0.101 C 
ATOM     32  N   UNL     1      -0.613   0.238  -1.785  0.00  0.00    -0.191 NA
ENDBRANCH  30  31
ENDBRANCH  23  25
ENDBRANCH  20  21
ENDBRANCH   1  20
TORSDOF 10
