REMARK  Name = ZINC24095933
REMARK  12 active torsions:
REMARK  status: ('A' for Active; 'I' for Inactive)
REMARK    1  A    between atoms: C_1  and  C_2
REMARK    2  A    between atoms: C_4  and  C_28
REMARK    3  A    between atoms: C_7  and  O_8
REMARK    4  A    between atoms: O_8  and  C_9
REMARK    5  A    between atoms: C_9  and  C_10
REMARK    6  A    between atoms: C_10  and  C_12
REMARK    7  A    between atoms: C_10  and  O_27
REMARK    8  A    between atoms: C_12  and  N_13
REMARK    9  A    between atoms: C_20  and  N_24
REMARK   10  A    between atoms: C_28  and  C_29
REMARK   11  A    between atoms: C_28  and  C_30
REMARK   12  A    between atoms: C_28  and  C_31
REMARK                            x       y       z     vdW  Elec       q    Type
REMARK                         _______ _______ _______ _____ _____    ______ ____
ROOT
ATOM      1  C   UNL     1       0.047   0.104   4.793  0.00  0.00    +0.170 C 
ENDROOT
BRANCH   1   2
ATOM      2  O   UNL     1       1.258   0.862   4.818  0.00  0.00    -0.387 OA
ATOM      3  H   UNL     1       2.059   0.322   4.869  0.00  0.00    +0.210 HD
ENDBRANCH   1   2
BRANCH   1   4
ATOM      4  C   UNL     1       0.048  -0.820   3.574  0.00  0.00    +0.262 C 
BRANCH   4   5
ATOM      5  O   UNL     1       0.025  -0.033   2.381  0.00  0.00    -0.489 OA
BRANCH   5  12
ATOM      6  C   UNL     1      -0.018   1.503   0.010  0.00  0.00    +0.047 C 
ATOM      7  C   UNL     1       0.002  -0.004   0.002  0.00  0.00    -0.009 A 
ATOM      8  C   UNL     1       0.006  -0.689  -1.198  0.00  0.00    +0.011 A 
ATOM      9  C   UNL     1       0.024  -2.071  -1.206  0.00  0.00    -0.042 A 
ATOM     10  C   UNL     1       0.039  -2.772  -0.014  0.00  0.00    +0.008 A 
ATOM     11  C   UNL     1       0.036  -2.092   1.188  0.00  0.00    +0.046 A 
ATOM     12  C   UNL     1       0.023  -0.705   1.199  0.00  0.00    +0.124 A 
BRANCH   9  13
ATOM     13  C   UNL     1       0.027  -2.816  -2.517  0.00  0.00    -0.013 C 
ATOM     14  C   UNL     1       1.267  -2.424  -3.323  0.00  0.00    +0.015 C 
ATOM     15  C   UNL     1       0.048  -4.322  -2.247  0.00  0.00    +0.015 C 
ATOM     16  C   UNL     1      -1.231  -2.457  -3.310  0.00  0.00    +0.015 C 
ENDBRANCH   9  13
ENDBRANCH   5  12
ENDBRANCH   4   5
ENDBRANCH   1   4
BRANCH   1  17
ATOM     17  C   UNL     1      -0.055  -0.735   6.069  0.00  0.00    +0.151 C 
BRANCH  17  18
ATOM     18  N   UNL     1      -0.176   0.152   7.228  0.00  0.00    -0.231 N 
ATOM     19  C   UNL     1       0.866   0.635   7.928  0.00  0.00    +0.254 C 
ATOM     20  O   UNL     1       2.038   0.410   7.702  0.00  0.00    -0.270 OA
ATOM     21  C   UNL     1       0.346   1.488   9.018  0.00  0.00    +0.052 A 
ATOM     22  C   UNL     1       0.934   2.230  10.030  0.00  0.00    +0.014 A 
ATOM     23  C   UNL     1       0.136   2.938  10.915  0.00  0.00    +0.003 A 
ATOM     24  C   UNL     1      -1.241   2.909  10.794  0.00  0.00    +0.033 A 
ATOM     25  C   UNL     1      -1.843   2.172   9.786  0.00  0.00    +0.139 A 
ATOM     26  C   UNL     1      -1.057   1.459   8.894  0.00  0.00    +0.080 A 
ATOM     27  C   UNL     1      -1.343   0.594   7.730  0.00  0.00    +0.256 C 
ATOM     28  O   UNL     1      -2.447   0.325   7.300  0.00  0.00    -0.269 OA
BRANCH  25  29
ATOM     29  N   UNL     1      -3.317   2.146   9.663  0.00  0.00    +0.057 N 
ATOM     30  O   UNL     1      -4.000   2.769  10.442  0.00  0.00    -0.126 OA
ATOM     31  O   UNL     1      -3.839   1.502   8.783  0.00  0.00    -0.126 OA
ENDBRANCH  25  29
ENDBRANCH  17  18
ENDBRANCH   1  17
TORSDOF 8
