REMARK  Name = ZINC13898250
REMARK  5 active torsions:
REMARK  status: ('A' for Active; 'I' for Inactive)
REMARK    1  A    between atoms: C_3  and  C_8
REMARK    2  A    between atoms: C_11  and  C_31
REMARK    3  A    between atoms: C_19  and  C_20
REMARK    4  A    between atoms: C_23  and  N_26
REMARK    5  A    between atoms: C_34  and  N_37
REMARK                            x       y       z     vdW  Elec       q    Type
REMARK                         _______ _______ _______ _____ _____    ______ ____
ROOT
ATOM      1  C   UNL     1      -3.875   5.776   1.802  0.00  0.00    +0.266 C 
ATOM      2  O   UNL     1      -3.017   4.962   2.085  0.00  0.00    -0.268 OA
ATOM      3  N   UNL     1      -4.449   5.754   0.582  0.00  0.00    -0.181 N 
ATOM      4  C   UNL     1      -4.219   4.741  -0.473  0.00  0.00    +0.140 C 
ATOM      5  C   UNL     1      -4.644   5.509  -1.737  0.00  0.00    +0.066 C 
ATOM      6  C   UNL     1      -5.477   4.635  -2.677  0.00  0.00    +0.012 C 
ATOM      7  C   UNL     1      -6.005   5.518  -3.806  0.00  0.00    +0.005 C 
ATOM      8  C   UNL     1      -6.941   6.610  -3.328  0.00  0.00    +0.037 C 
ATOM      9  C   UNL     1      -6.611   7.149  -1.969  0.00  0.00    -0.024 C 
ATOM     10  C   UNL     1      -7.288   8.215  -1.494  0.00  0.00    +0.013 C 
ATOM     11  C   UNL     1      -5.598   6.556  -1.178  0.00  0.00    +0.068 C 
ATOM     12  N   UNL     1      -5.369   6.684   0.084  0.00  0.00    -0.181 NA
ENDROOT
BRANCH   1  15
ATOM     13  C   UNL     1      -5.750   8.576   3.459  0.00  0.00    +0.002 A 
ATOM     14  C   UNL     1      -5.369   7.633   2.528  0.00  0.00    +0.013 A 
ATOM     15  C   UNL     1      -4.289   6.789   2.795  0.00  0.00    +0.040 A 
ATOM     16  C   UNL     1      -3.606   6.902   4.008  0.00  0.00    +0.033 A 
ATOM     17  C   UNL     1      -3.995   7.854   4.928  0.00  0.00    +0.042 A 
ATOM     18  C   UNL     1      -5.067   8.688   4.656  0.00  0.00    +0.020 A 
ATOM     19 CL   UNL     1      -3.143   8.001   6.434  0.00  0.00    -0.084 Cl
ENDBRANCH   1  15
BRANCH  10  20
ATOM     20  C   UNL     1      -8.123   9.021  -2.400  0.00  0.00    -0.025 A 
ATOM     21  C   UNL     1      -8.060  10.417  -2.359  0.00  0.00    +0.010 A 
ATOM     22  C   UNL     1      -8.840  11.164  -3.215  0.00  0.00    +0.033 A 
ATOM     23  C   UNL     1      -9.693  10.536  -4.106  0.00  0.00    +0.126 A 
ATOM     24  C   UNL     1      -9.766   9.155  -4.149  0.00  0.00    +0.033 A 
ATOM     25  C   UNL     1      -8.987   8.393  -3.303  0.00  0.00    +0.010 A 
BRANCH  23  26
ATOM     26  N   UNL     1     -10.533  11.347  -5.018  0.00  0.00    +0.056 N 
ATOM     27  O   UNL     1     -11.284  10.797  -5.803  0.00  0.00    -0.126 OA
ATOM     28  O   UNL     1     -10.471  12.563  -4.982  0.00  0.00    -0.126 OA
ENDBRANCH  23  26
ENDBRANCH  10  20
BRANCH   4  29
ATOM     29  C   UNL     1      -2.765   4.351  -0.541  0.00  0.00    -0.024 A 
ATOM     30  C   UNL     1      -2.412   3.049  -0.839  0.00  0.00    +0.008 A 
ATOM     31  C   UNL     1      -1.078   2.692  -0.902  0.00  0.00    +0.033 A 
ATOM     32  C   UNL     1      -0.097   3.637  -0.667  0.00  0.00    +0.126 A 
ATOM     33  C   UNL     1      -0.451   4.939  -0.363  0.00  0.00    +0.033 A 
ATOM     34  C   UNL     1      -1.785   5.297  -0.305  0.00  0.00    +0.008 A 
BRANCH  32  35
ATOM     35  N   UNL     1       1.331   3.255  -0.734  0.00  0.00    +0.056 N 
ATOM     36  O   UNL     1       1.642   2.107  -0.996  0.00  0.00    -0.126 OA
ATOM     37  O   UNL     1       2.195   4.089  -0.532  0.00  0.00    -0.126 OA
ENDBRANCH  32  35
ENDBRANCH   4  29
TORSDOF 5
