REMARK  Name = ZINC35026765
REMARK  8 active torsions:
REMARK  status: ('A' for Active; 'I' for Inactive)
REMARK    1  A    between atoms: C_1  and  C_2
REMARK    2  A    between atoms: C_2  and  C_4
REMARK    3  A    between atoms: C_2  and  N_16
REMARK    4  A    between atoms: N_16  and  C_17
REMARK    5  A    between atoms: C_17  and  C_18
REMARK    6  A    between atoms: C_18  and  O_19
REMARK    7  A    between atoms: O_19  and  C_20
REMARK    8  A    between atoms: N_23  and  C_24
REMARK                            x       y       z     vdW  Elec       q    Type
REMARK                         _______ _______ _______ _____ _____    ______ ____
ROOT
ATOM      1  N   UNL     1      -1.372  -0.511   0.012  0.00  0.00    -0.274 N 
ATOM      2  C   UNL     1      -1.812  -1.286  -0.998  0.00  0.00    +0.303 C 
ATOM      3  O   UNL     1      -1.068  -1.565  -1.919  0.00  0.00    -0.253 OA
ATOM      4  N   UNL     1      -3.077  -1.753  -0.989  0.00  0.00    -0.294 N 
ATOM      5  H   UNL     1      -3.670  -1.531  -0.255  0.00  0.00    +0.151 HD
ENDROOT
BRANCH   4   6
ATOM      6  C   UNL     1      -3.555  -2.596  -2.088  0.00  0.00    +0.037 C 
ATOM      7  C   UNL     1      -3.456  -1.822  -3.404  0.00  0.00    +0.029 C 
ATOM      8  C   UNL     1      -3.956  -2.702  -4.551  0.00  0.00    -0.008 C 
ATOM      9  C   UNL     1      -5.413  -3.093  -4.298  0.00  0.00    +0.007 C 
ATOM     10  C   UNL     1      -5.511  -3.867  -2.981  0.00  0.00    -0.008 C 
ATOM     11  C   UNL     1      -5.012  -2.987  -1.834  0.00  0.00    +0.029 C 
ATOM     12  C   UNL     1      -4.652  -5.130  -3.066  0.00  0.00    +0.007 C 
ATOM     13  C   UNL     1      -3.195  -4.739  -3.320  0.00  0.00    -0.008 C 
ATOM     14  C   UNL     1      -3.096  -3.965  -4.637  0.00  0.00    +0.007 C 
ATOM     15  C   UNL     1      -2.696  -3.859  -2.173  0.00  0.00    +0.029 C 
ENDBRANCH   4   6
BRANCH   1  17
ATOM     16  C   UNL     1      -0.019   1.526   0.010  0.00  0.00    +0.036 C 
ATOM     17  C   UNL     1       0.002  -0.004   0.002  0.00  0.00    +0.140 C 
BRANCH  17  18
ATOM     18  C   UNL     1       0.731  -0.503   1.223  0.00  0.00    +0.131 A 
ATOM     19  N   UNL     1       1.992  -0.051   1.451  0.00  0.00    -0.309 N 
ATOM     20  H   UNL     1       2.396   0.577   0.832  0.00  0.00    +0.170 HD
ATOM     21  C   UNL     1       2.688  -0.469   2.533  0.00  0.00    +0.259 A 
ATOM     22  O   UNL     1       3.818  -0.071   2.750  0.00  0.00    -0.267 OA
ATOM     23  C   UNL     1       2.027  -1.421   3.438  0.00  0.00    +0.065 A 
ATOM     24  C   UNL     1       2.657  -1.913   4.579  0.00  0.00    +0.015 A 
ATOM     25  C   UNL     1       1.991  -2.804   5.392  0.00  0.00    +0.001 A 
ATOM     26  C   UNL     1       0.701  -3.213   5.082  0.00  0.00    +0.002 A 
ATOM     27  C   UNL     1       0.061  -2.740   3.959  0.00  0.00    +0.028 A 
ATOM     28  C   UNL     1       0.715  -1.835   3.120  0.00  0.00    +0.078 A 
ATOM     29  N   UNL     1       0.120  -1.339   2.006  0.00  0.00    -0.232 NA
ENDBRANCH  17  18
ENDBRANCH   1  17
BRANCH   1  30
ATOM     30  C   UNL     1      -2.269  -0.175   1.122  0.00  0.00    +0.138 C 
BRANCH  30  31
ATOM     31  C   UNL     1      -3.020   1.117   0.797  0.00  0.00    +0.178 C 
BRANCH  31  32
ATOM     32  O   UNL     1      -3.874   0.902  -0.328  0.00  0.00    -0.381 OA
ATOM     33  C   UNL     1      -4.626   2.054  -0.716  0.00  0.00    +0.194 C 
ENDBRANCH  31  32
ENDBRANCH  30  31
ENDBRANCH   1  30
TORSDOF 6
