REMARK  Name = ZINC39686530
REMARK  14 active torsions:
REMARK  status: ('A' for Active; 'I' for Inactive)
REMARK    1  A    between atoms: C_1  and  C_2
REMARK    2  A    between atoms: C_2  and  C_4
REMARK    3  A    between atoms: C_2  and  N_13
REMARK    4  A    between atoms: C_4  and  C_5
REMARK    5  A    between atoms: C_10  and  O_11
REMARK    6  A    between atoms: O_11  and  C_12
REMARK    7  A    between atoms: C_14  and  C_16
REMARK    8  A    between atoms: C_27  and  C_29
REMARK    9  A    between atoms: C_31  and  O_39
REMARK   10  A    between atoms: C_32  and  O_37
REMARK   11  A    between atoms: C_33  and  O_35
REMARK   12  A    between atoms: O_35  and  C_36
REMARK   13  A    between atoms: O_37  and  C_38
REMARK   14  A    between atoms: O_39  and  C_40
REMARK                            x       y       z     vdW  Elec       q    Type
REMARK                         _______ _______ _______ _____ _____    ______ ____
ROOT
ATOM      1  C   UNL     1      -2.951  -1.575  -1.327  0.00  0.00    +0.100 C 
ATOM      2  C   UNL     1      -3.270  -2.968  -0.740  0.00  0.00    +0.121 C 
ATOM      3  N   UNL     1      -4.369  -3.488  -1.587  0.00  0.00    -0.296 N 
ATOM      4  C   UNL     1      -4.010  -3.060  -2.960  0.00  0.00    +0.115 C 
ATOM      5  C   UNL     1      -3.437  -1.640  -2.785  0.00  0.00    -0.004 C 
ATOM      6  C   UNL     1      -4.526  -0.598  -3.025  0.00  0.00    -0.010 C 
ATOM      7  C   UNL     1      -4.954  -0.644  -4.495  0.00  0.00    -0.082 C 
ATOM      8  N   UNL     1      -3.793  -0.375  -5.353  0.00  0.00    +0.379 N 
ATOM      9  C   UNL     1      -2.789  -1.432  -5.183  0.00  0.00    -0.082 C 
ATOM     10  C   UNL     1      -2.270  -1.420  -3.742  0.00  0.00    -0.010 C 
ATOM     11  C   UNL     1      -5.450  -4.192  -1.197  0.00  0.00    +0.247 C 
ATOM     12  O   UNL     1      -5.674  -4.358  -0.013  0.00  0.00    -0.270 OA
ATOM     13  H   UNL     1      -4.089  -0.345  -6.317  0.00  0.00    -0.086 HD
ATOM     14  H   UNL     1      -3.389   0.514  -5.100  0.00  0.00    -0.086 HD
ENDROOT
BRANCH  11  15
ATOM     15  C   UNL     1      -6.364  -4.762  -2.207  0.00  0.00    +0.044 A 
ATOM     16  C   UNL     1      -5.919  -4.968  -3.515  0.00  0.00    +0.062 A 
ATOM     17  C   UNL     1      -6.776  -5.503  -4.459  0.00  0.00    +0.166 A 
ATOM     18  C   UNL     1      -8.081  -5.835  -4.107  0.00  0.00    +0.204 A 
ATOM     19  C   UNL     1      -8.527  -5.630  -2.804  0.00  0.00    +0.166 A 
ATOM     20  C   UNL     1      -7.672  -5.102  -1.855  0.00  0.00    +0.062 A 
BRANCH  19  21
ATOM     21  O   UNL     1      -9.803  -5.955  -2.463  0.00  0.00    -0.491 OA
ATOM     22  C   UNL     1     -10.193  -5.718  -1.109  0.00  0.00    +0.277 C 
ENDBRANCH  19  21
BRANCH  18  23
ATOM     23  O   UNL     1      -8.922  -6.359  -5.037  0.00  0.00    -0.488 OA
ATOM     24  C   UNL     1      -8.940  -7.782  -5.166  0.00  0.00    +0.277 C 
ENDBRANCH  18  23
BRANCH  17  25
ATOM     25  O   UNL     1      -6.344  -5.703  -5.733  0.00  0.00    -0.491 OA
ATOM     26  C   UNL     1      -4.993  -5.340  -6.025  0.00  0.00    +0.277 C 
ENDBRANCH  17  25
ENDBRANCH  11  15
BRANCH   1  28
ATOM     27  N   UNL     1      -1.009  -0.053  -1.149  0.00  0.00    -0.312 N 
ATOM     28  C   UNL     1      -1.467  -1.313  -1.281  0.00  0.00    +0.218 C 
ATOM     29  O   UNL     1      -0.686  -2.237  -1.362  0.00  0.00    -0.275 OA
ATOM     30  H   UNL     1      -1.634   0.686  -1.084  0.00  0.00    +0.149 HD
BRANCH  27  32
ATOM     31  C   UNL     1       0.977   0.309  -2.529  0.00  0.00    +0.028 C 
ATOM     32  C   UNL     1       0.433   0.201  -1.103  0.00  0.00    +0.074 C 
BRANCH  32  33
ATOM     33  C   UNL     1       0.697   1.510  -0.357  0.00  0.00    +0.060 C 
BRANCH  33  34
ATOM     34  C   UNL     1       0.273   1.363   1.082  0.00  0.00    -0.004 A 
ATOM     35  C   UNL     1      -0.988   1.770   1.476  0.00  0.00    +0.007 A 
ATOM     36  C   UNL     1      -1.377   1.635   2.796  0.00  0.00    +0.000 A 
ATOM     37  C   UNL     1      -0.507   1.092   3.724  0.00  0.00    +0.004 A 
ATOM     38  C   UNL     1       0.753   0.683   3.335  0.00  0.00    +0.046 A 
ATOM     39  C   UNL     1       1.145   0.813   2.010  0.00  0.00    +0.123 A 
BRANCH  39  40
ATOM     40  O   UNL     1       2.382   0.406   1.623  0.00  0.00    -0.495 OA
ATOM     41  C   UNL     1       3.227  -0.151   2.632  0.00  0.00    +0.277 C 
ENDBRANCH  39  40
ENDBRANCH  33  34
ENDBRANCH  32  33
ENDBRANCH  27  32
ENDBRANCH   1  28
TORSDOF 9
