REMARK  Name = ZINC63480165
REMARK  8 active torsions:
REMARK  status: ('A' for Active; 'I' for Inactive)
REMARK    1  A    between atoms: C_1  and  C_2
REMARK    2  A    between atoms: C_2  and  C_38
REMARK    3  A    between atoms: C_3  and  C_17
REMARK    4  A    between atoms: N_19  and  C_20
REMARK    5  A    between atoms: C_20  and  C_22
REMARK    6  A    between atoms: C_20  and  C_32
REMARK    7  A    between atoms: C_22  and  C_23
REMARK    8  A    between atoms: N_34  and  C_35
REMARK                            x       y       z     vdW  Elec       q    Type
REMARK                         _______ _______ _______ _____ _____    ______ ____
ROOT
ATOM      1  C   UNL     1       1.184   0.605  -2.094  0.00  0.00    +0.236 C 
ATOM      2  O   UNL     1       2.271   1.140  -2.032  0.00  0.00    -0.274 OA
ATOM      3  N   UNL     1       0.271   1.037  -2.986  0.00  0.00    -0.302 N 
ATOM      4  H   UNL     1      -0.599   0.609  -3.035  0.00  0.00    +0.150 HD
ENDROOT
BRANCH   1   7
ATOM      5  C   UNL     1      -0.019   1.526   0.010  0.00  0.00    +0.025 C 
ATOM      6  C   UNL     1       0.002  -0.004   0.002  0.00  0.00    +0.040 C 
ATOM      7  C   UNL     1       0.855  -0.541  -1.172  0.00  0.00    +0.179 C 
ATOM      8  N   UNL     1       2.106  -1.169  -0.744  0.00  0.00    -0.269 N 
ATOM      9  C   UNL     1       1.928  -1.905   0.542  0.00  0.00    +0.167 C 
ATOM     10  S   UNL     1       0.924  -0.661   1.460  0.00  0.00    -0.125 S 
ATOM     11  C   UNL     1       3.304  -2.029   1.129  0.00  0.00    -0.005 A 
ATOM     12  C   UNL     1       3.782  -2.375   2.372  0.00  0.00    +0.007 A 
ATOM     13  C   UNL     1       5.146  -2.417   2.603  0.00  0.00    +0.000 A 
ATOM     14  C   UNL     1       6.034  -2.110   1.587  0.00  0.00    +0.001 A 
ATOM     15  C   UNL     1       5.567  -1.753   0.339  0.00  0.00    +0.013 A 
ATOM     16  C   UNL     1       4.193  -1.702   0.100  0.00  0.00    +0.043 A 
ATOM     17  C   UNL     1       3.407  -1.310  -1.078  0.00  0.00    +0.249 C 
ATOM     18  O   UNL     1       3.861  -1.157  -2.195  0.00  0.00    -0.270 OA
ATOM     19  C   UNL     1      -1.419  -0.569  -0.048  0.00  0.00    +0.025 C 
ENDBRANCH   1   7
BRANCH   3  20
ATOM     20  C   UNL     1       0.591   2.151  -3.881  0.00  0.00    +0.163 C 
BRANCH  20  21
ATOM     21  C   UNL     1       0.310   3.455  -3.181  0.00  0.00    +0.234 C 
ATOM     22  O   UNL     1      -0.116   3.454  -2.045  0.00  0.00    -0.274 OA
ATOM     23  N   UNL     1       0.532   4.623  -3.816  0.00  0.00    -0.311 N 
ATOM     24  H   UNL     1       0.872   4.624  -4.724  0.00  0.00    +0.149 HD
BRANCH  23  25
ATOM     25  C   UNL     1       0.259   5.891  -3.135  0.00  0.00    +0.073 C 
ATOM     26  C   UNL     1      -0.457   6.982  -3.934  0.00  0.00    +0.024 C 
ATOM     27  C   UNL     1       1.030   7.126  -3.605  0.00  0.00    +0.024 C 
ENDBRANCH  23  25
ENDBRANCH  20  21
BRANCH  20  28
ATOM     28  C   UNL     1      -0.269   2.054  -5.143  0.00  0.00    +0.065 C 
BRANCH  28  29
ATOM     29  C   UNL     1       0.099   0.809  -5.908  0.00  0.00    -0.039 C 
ATOM     30  C   UNL     1      -0.511  -0.396  -5.843  0.00  0.00    -0.001 A 
ATOM     31  C   UNL     1      -1.656  -0.890  -5.068  0.00  0.00    +0.010 A 
ATOM     32  C   UNL     1      -2.043  -2.177  -5.218  0.00  0.00    +0.001 A 
ATOM     33  C   UNL     1      -1.379  -3.049  -6.092  0.00  0.00    +0.002 A 
ATOM     34  C   UNL     1      -0.320  -2.669  -6.837  0.00  0.00    +0.026 A 
ATOM     35  C   UNL     1       0.172  -1.337  -6.759  0.00  0.00    +0.043 A 
ATOM     36  N   UNL     1       1.166  -0.736  -7.367  0.00  0.00    -0.380 N 
ATOM     37  C   UNL     1       1.222   0.656  -6.910  0.00  0.00    +0.144 C 
ATOM     38  H   UNL     1       1.763  -1.144  -8.015  0.00  0.00    +0.160 HD
ENDBRANCH  28  29
ENDBRANCH  20  28
ENDBRANCH   3  20
TORSDOF 6
