REMARK  Name = ZINC16719909
REMARK  5 active torsions:
REMARK  status: ('A' for Active; 'I' for Inactive)
REMARK    1  A    between atoms: C_8  and  N_9
REMARK    2  A    between atoms: N_9  and  N_10
REMARK    3  A    between atoms: C_11  and  C_13
REMARK    4  A    between atoms: C_13  and  S_14
REMARK    5  A    between atoms: S_14  and  C_15
REMARK                            x       y       z     vdW  Elec       q    Type
REMARK                         _______ _______ _______ _____ _____    ______ ____
ROOT
ATOM      1  N   UNL     1      -1.063  -2.327   0.101  0.00  0.00    -0.271 N 
ATOM      2  H   UNL     1      -1.133  -1.359   0.108  0.00  0.00    +0.169 HD
ENDROOT
BRANCH   1  10
ATOM      3  C   UNL     1       0.297   0.829   2.083  0.00  0.00    +0.001 A 
ATOM      4  C   UNL     1       1.479   1.556   2.083  0.00  0.00    +0.001 A 
ATOM      5  C   UNL     1       2.594   1.087   1.422  0.00  0.00    +0.013 A 
ATOM      6  C   UNL     1       2.534  -0.131   0.745  0.00  0.00    +0.045 A 
ATOM      7  C   UNL     1       1.331  -0.867   0.747  0.00  0.00    +0.000 A 
ATOM      8  C   UNL     1       0.217  -0.378   1.419  0.00  0.00    +0.009 A 
ATOM      9  C   UNL     1       1.299  -2.153   0.020  0.00  0.00    +0.060 C 
ATOM     10  C   UNL     1       0.154  -2.919  -0.016  0.00  0.00    +0.101 C 
ATOM     11  C   UNL     1       2.522  -2.591  -0.661  0.00  0.00    +0.252 C 
ATOM     12  O   UNL     1       2.529  -3.646  -1.269  0.00  0.00    -0.270 OA
ATOM     13  N   UNL     1       3.635  -1.839  -0.622  0.00  0.00    -0.248 N 
ATOM     14  C   UNL     1       3.699  -0.666   0.028  0.00  0.00    +0.251 C 
ATOM     15  O   UNL     1       4.739  -0.036   0.023  0.00  0.00    -0.270 OA
ATOM     16  H   UNL     1       4.426  -2.158  -1.083  0.00  0.00    +0.158 HD
ENDBRANCH   1  10
BRANCH   1  17
ATOM     17  N   UNL     1      -2.217  -3.113   0.213  0.00  0.00    -0.236 N 
ATOM     18  C   UNL     1      -3.424  -2.526   0.330  0.00  0.00    +0.239 C 
ATOM     19  O   UNL     1      -3.512  -1.316   0.338  0.00  0.00    -0.273 OA
ATOM     20  H   UNL     1      -2.147  -4.081   0.207  0.00  0.00    +0.173 HD
BRANCH  18  21
ATOM     21  C   UNL     1      -4.665  -3.372   0.450  0.00  0.00    +0.176 C 
BRANCH  21  22
ATOM     22  S   UNL     1      -6.119  -2.297   0.590  0.00  0.00    -0.058 S 
BRANCH  22  23
ATOM     23  C   UNL     1      -7.470  -3.421   0.721  0.00  0.00    +0.258 A 
ATOM     24  N   UNL     1      -7.363  -4.726   0.717  0.00  0.00    -0.203 NA
ATOM     25  C   UNL     1      -8.607  -5.265   0.836  0.00  0.00    +0.110 A 
ATOM     26  C   UNL     1      -9.089  -6.574   0.887  0.00  0.00    +0.031 A 
ATOM     27  C   UNL     1     -10.442  -6.800   1.016  0.00  0.00    +0.002 A 
ATOM     28  C   UNL     1     -11.326  -5.735   1.093  0.00  0.00    +0.004 A 
ATOM     29  C   UNL     1     -10.863  -4.436   1.044  0.00  0.00    +0.048 A 
ATOM     30  C   UNL     1      -9.506  -4.191   0.915  0.00  0.00    +0.156 A 
ATOM     31  O   UNL     1      -8.761  -3.063   0.845  0.00  0.00    -0.431 OA
ENDBRANCH  22  23
ENDBRANCH  21  22
ENDBRANCH  18  21
ENDBRANCH   1  17
TORSDOF 5
