REMARK  Name = ZINC39201626
REMARK  6 active torsions:
REMARK  status: ('A' for Active; 'I' for Inactive)
REMARK    1  A    between atoms: C_1  and  C_2
REMARK    2  A    between atoms: C_7  and  N_10
REMARK    3  A    between atoms: C_11  and  C_13
REMARK    4  A    between atoms: N_16  and  C_19
REMARK    5  A    between atoms: C_19  and  C_20
REMARK    6  A    between atoms: C_21  and  C_29
REMARK                            x       y       z     vdW  Elec       q    Type
REMARK                         _______ _______ _______ _____ _____    ______ ____
ROOT
ATOM      1  C   UNL     1       2.592  -5.129   2.657  0.00  0.00    +0.071 C 
ATOM      2  C   UNL     1       3.607  -4.005   2.885  0.00  0.00    -0.006 C 
ATOM      3  C   UNL     1       4.334  -4.243   4.210  0.00  0.00    -0.078 C 
ATOM      4  N   UNL     1       5.032  -5.533   4.165  0.00  0.00    +0.383 N 
ATOM      5  C   UNL     1       4.059  -6.621   4.018  0.00  0.00    -0.078 C 
ATOM      6  C   UNL     1       3.321  -6.475   2.686  0.00  0.00    -0.006 C 
ATOM      7  H   UNL     1       5.667  -5.543   3.380  0.00  0.00    -0.081 HD
ENDROOT
BRANCH   1   9
ATOM      8  N   UNL     1       1.224  -3.823   1.063  0.00  0.00    -0.312 N 
ATOM      9  C   UNL     1       1.928  -4.944   1.317  0.00  0.00    +0.216 C 
ATOM     10  O   UNL     1       2.027  -5.803   0.467  0.00  0.00    -0.276 OA
ATOM     11  H   UNL     1       1.145  -3.135   1.742  0.00  0.00    +0.149 HD
BRANCH   8  17
ATOM     12  C   UNL     1      -0.449  -0.467  -2.160  0.00  0.00    +0.007 C 
ATOM     13  C   UNL     1      -0.273  -1.961  -1.880  0.00  0.00    -0.012 C 
ATOM     14  C   UNL     1      -1.642  -2.643  -1.869  0.00  0.00    +0.003 C 
ATOM     15  C   UNL     1      -1.466  -4.137  -1.589  0.00  0.00    +0.002 C 
ATOM     16  C   UNL     1      -0.791  -4.325  -0.229  0.00  0.00    +0.022 C 
ATOM     17  C   UNL     1       0.578  -3.643  -0.240  0.00  0.00    +0.073 C 
ATOM     18  C   UNL     1       0.402  -2.149  -0.520  0.00  0.00    +0.025 C 
ENDBRANCH   8  17
ENDBRANCH   1   9
BRANCH   4  19
ATOM     19  C   UNL     1       5.792  -5.721   5.408  0.00  0.00    -0.022 C 
BRANCH  19  20
ATOM     20  C   UNL     1       6.606  -6.986   5.313  0.00  0.00    +0.035 A 
ATOM     21  C   UNL     1       6.258  -8.211   5.797  0.00  0.00    +0.091 A 
ATOM     22  N   UNL     1       7.247  -9.073   5.512  0.00  0.00    -0.228 NA
ATOM     23  C   UNL     1       8.208  -8.432   4.864  0.00  0.00    +0.138 A 
ATOM     24  N   UNL     1       7.829  -7.121   4.719  0.00  0.00    -0.305 N 
ATOM     25  C   UNL     1       8.643  -6.234   4.075  0.00  0.00    +0.093 A 
ATOM     26  C   UNL     1       9.828  -6.631   3.567  0.00  0.00    +0.018 A 
ATOM     27  C   UNL     1      10.242  -7.968   3.696  0.00  0.00    +0.005 A 
ATOM     28  C   UNL     1       9.446  -8.861   4.343  0.00  0.00    +0.047 A 
BRANCH  21  29
ATOM     29  C   UNL     1       5.002  -8.536   6.518  0.00  0.00    +0.002 A 
ATOM     30  C   UNL     1       4.305  -9.704   6.215  0.00  0.00    +0.010 A 
ATOM     31  C   UNL     1       3.138 -10.002   6.888  0.00  0.00    +0.001 A 
ATOM     32  C   UNL     1       2.659  -9.143   7.861  0.00  0.00    +0.000 A 
ATOM     33  C   UNL     1       3.346  -7.982   8.165  0.00  0.00    +0.001 A 
ATOM     34  C   UNL     1       4.518  -7.677   7.502  0.00  0.00    +0.010 A 
ENDBRANCH  21  29
ENDBRANCH  19  20
ENDBRANCH   4  19
TORSDOF 5
