REMARK  Name = ZINC23135264
REMARK  5 active torsions:
REMARK  status: ('A' for Active; 'I' for Inactive)
REMARK    1  A    between atoms: C_13  and  C_15
REMARK    2  A    between atoms: C_15  and  C_16
REMARK    3  A    between atoms: C_16  and  C_17
REMARK    4  A    between atoms: N_22  and  C_23
REMARK    5  A    between atoms: C_23  and  C_25
REMARK                            x       y       z     vdW  Elec       q    Type
REMARK                         _______ _______ _______ _____ _____    ______ ____
ROOT
ATOM      1  C   UNL     1      -4.827  -2.801   2.706  0.00  0.00    +0.102 C 
ENDROOT
BRANCH   1  14
ATOM      2  C   UNL     1       1.182   2.076   0.002  0.00  0.00    +0.005 A 
ATOM      3  C   UNL     1       2.365   1.348  -0.013  0.00  0.00    +0.018 A 
ATOM      4  C   UNL     1       2.310  -0.031  -0.020  0.00  0.00    +0.084 A 
ATOM      5  N   UNL     1       1.151  -0.662  -0.013  0.00  0.00    -0.350 N 
ATOM      6  C   UNL     1       0.002  -0.004   0.002  0.00  0.00    +0.099 A 
ATOM      7  C   UNL     1      -0.017   1.387   0.010  0.00  0.00    +0.042 A 
ATOM      8  N   UNL     1      -1.196  -0.709   0.010  0.00  0.00    -0.314 N 
ATOM      9  C   UNL     1      -2.030  -0.316   1.153  0.00  0.00    +0.125 C 
ATOM     10  C   UNL     1      -3.407  -0.977   1.028  0.00  0.00    +0.126 C 
ATOM     11  N   UNL     1      -3.217  -2.426   0.865  0.00  0.00    -0.298 N 
ATOM     12  C   UNL     1      -2.287  -2.894  -0.173  0.00  0.00    +0.126 C 
ATOM     13  C   UNL     1      -0.954  -2.158   0.000  0.00  0.00    +0.125 C 
ATOM     14  C   UNL     1      -3.878  -3.303   1.648  0.00  0.00    +0.216 C 
ATOM     15  O   UNL     1      -3.708  -4.494   1.500  0.00  0.00    -0.276 OA
ATOM     16  H   UNL     1       1.123  -1.762  -0.018  0.00  0.00    +0.166 HD
ENDBRANCH   1  14
BRANCH   1  17
ATOM     17  C   UNL     1      -5.440  -3.991   3.446  0.00  0.00    +0.063 C 
BRANCH  17  18
ATOM     18  C   UNL     1      -6.388  -3.490   4.504  0.00  0.00    +0.025 A 
ATOM     19  C   UNL     1      -7.676  -3.913   4.538  0.00  0.00    +0.069 A 
ATOM     20  S   UNL     1      -8.285  -3.011   5.955  0.00  0.00    -0.060 S 
ATOM     21  C   UNL     1      -6.808  -2.187   6.350  0.00  0.00    +0.163 A 
ATOM     22  N   UNL     1      -5.984  -2.634   5.423  0.00  0.00    -0.339 N 
ATOM     23  N   UNL     1      -6.558  -1.290   7.380  0.00  0.00    -0.152 NA
ATOM     24  H   UNL     1      -4.942  -2.281   5.424  0.00  0.00    +0.167 HD
BRANCH  23  25
ATOM     25  C   UNL     1      -7.543  -0.959   8.239  0.00  0.00    +0.276 C 
ATOM     26  O   UNL     1      -8.651  -1.446   8.111  0.00  0.00    -0.267 OA
BRANCH  25  27
ATOM     27  C   UNL     1      -7.279  -0.013   9.327  0.00  0.00    +0.076 A 
ATOM     28  C   UNL     1      -8.141   0.455  10.306  0.00  0.00    +0.021 A 
ATOM     29  C   UNL     1      -7.629   1.347  11.216  0.00  0.00    +0.008 A 
ATOM     30  C   UNL     1      -6.327   1.721  11.116  0.00  0.00    +0.046 A 
ATOM     31  S   UNL     1      -5.762   0.830   9.741  0.00  0.00    -0.092 S 
ENDBRANCH  25  27
ENDBRANCH  23  25
ENDBRANCH  17  18
ENDBRANCH   1  17
TORSDOF 5
