REMARK  Name = ZINC21232132
REMARK  11 active torsions:
REMARK  status: ('A' for Active; 'I' for Inactive)
REMARK    1  A    between atoms: C_1  and  C_2
REMARK    2  A    between atoms: N_13  and  C_28
REMARK    3  A    between atoms: C_14  and  S_16
REMARK    4  A    between atoms: S_16  and  C_17
REMARK    5  A    between atoms: C_17  and  C_19
REMARK    6  A    between atoms: C_17  and  C_22
REMARK    7  A    between atoms: C_19  and  C_20
REMARK    8  A    between atoms: C_19  and  C_21
REMARK    9  A    between atoms: C_28  and  C_29
REMARK   10  A    between atoms: C_29  and  C_30
REMARK   11  A    between atoms: C_29  and  C_31
REMARK                            x       y       z     vdW  Elec       q    Type
REMARK                         _______ _______ _______ _____ _____    ______ ____
ROOT
ATOM      1  C   UNL     1       3.889  -2.096  -6.877  0.00  0.00    +0.008 C 
ATOM      2  C   UNL     1       3.304  -2.030  -5.465  0.00  0.00    -0.009 C 
ATOM      3  C   UNL     1       2.441  -3.268  -5.204  0.00  0.00    +0.008 C 
ATOM      4  C   UNL     1       2.059  -3.333  -3.725  0.00  0.00    +0.037 C 
ATOM      5  C   UNL     1       1.439  -2.000  -3.317  0.00  0.00    -0.023 A 
ATOM      6  C   UNL     1       1.631  -0.893  -4.064  0.00  0.00    -0.004 A 
ATOM      7  S   UNL     1       0.741   0.389  -3.224  0.00  0.00    -0.073 S 
ATOM      8  C   UNL     1       0.111  -0.568  -1.868  0.00  0.00    +0.117 A 
ATOM      9  C   UNL     1       0.616  -1.855  -2.115  0.00  0.00    +0.076 A 
ATOM     10  C   UNL     1       0.260  -2.859  -1.159  0.00  0.00    +0.263 A 
ATOM     11  O   UNL     1       0.652  -4.005  -1.291  0.00  0.00    -0.267 OA
ATOM     12  N   UNL     1      -0.511  -2.518  -0.110  0.00  0.00    -0.287 N 
ATOM     13  C   UNL     1      -0.964  -1.241   0.051  0.00  0.00    +0.173 A 
ATOM     14  N   UNL     1      -0.650  -0.297  -0.814  0.00  0.00    -0.216 NA
ATOM     15  C   UNL     1       2.425  -0.779  -5.329  0.00  0.00    +0.046 C 
ENDROOT
BRANCH  13  16
ATOM     16  S   UNL     1      -1.976  -0.846   1.439  0.00  0.00    -0.075 S 
BRANCH  16  17
ATOM     17  C   UNL     1      -2.116   0.946   1.225  0.00  0.00    +0.143 C 
BRANCH  17  18
ATOM     18  C   UNL     1      -3.127   1.491   2.201  0.00  0.00    +0.234 C 
ATOM     19  O   UNL     1      -3.359   0.893   3.230  0.00  0.00    -0.274 OA
ATOM     20  N   UNL     1      -3.772   2.643   1.930  0.00  0.00    -0.239 N 
ATOM     21  C   UNL     1      -4.677   3.129   2.803  0.00  0.00    +0.303 C 
ATOM     22  O   UNL     1      -4.910   2.530   3.834  0.00  0.00    -0.253 OA
ATOM     23  N   UNL     1      -5.322   4.281   2.532  0.00  0.00    -0.313 N 
ATOM     24  H   UNL     1      -3.561   3.185   0.997  0.00  0.00    +0.159 HD
ATOM     25  H   UNL     1      -6.060   4.678   3.244  0.00  0.00    +0.146 HD
ATOM     26  H   UNL     1      -5.111   4.824   1.599  0.00  0.00    +0.146 HD
ENDBRANCH  17  18
BRANCH  17  27
ATOM     27  C   UNL     1      -0.756   1.599   1.483  0.00  0.00    +0.005 C 
ATOM     28  C   UNL     1      -0.354   1.381   2.943  0.00  0.00    +0.009 C 
ATOM     29  C   UNL     1      -0.847   3.099   1.197  0.00  0.00    +0.009 C 
ENDBRANCH  17  27
ENDBRANCH  16  17
ENDBRANCH  13  16
BRANCH  12  30
ATOM     30  C   UNL     1      -0.876  -3.539   0.875  0.00  0.00    +0.130 C 
BRANCH  30  31
ATOM     31  C   UNL     1      -2.181  -4.215   0.451  0.00  0.00    +0.003 C 
ATOM     32  C   UNL     1      -1.959  -4.976  -0.858  0.00  0.00    +0.009 C 
ATOM     33  C   UNL     1      -2.627  -5.192   1.540  0.00  0.00    +0.009 C 
ENDBRANCH  30  31
ENDBRANCH  12  30
TORSDOF 6
