REMARK  Name = ZINC64175262
REMARK  6 active torsions:
REMARK  status: ('A' for Active; 'I' for Inactive)
REMARK    1  A    between atoms: C_4  and  C_7
REMARK    2  A    between atoms: C_7  and  C_9
REMARK    3  A    between atoms: C_7  and  C_26
REMARK    4  A    between atoms: C_9  and  N_10
REMARK    5  A    between atoms: N_13  and  C_14
REMARK    6  A    between atoms: C_14  and  C_15
REMARK                            x       y       z     vdW  Elec       q    Type
REMARK                         _______ _______ _______ _____ _____    ______ ____
ROOT
ATOM      1  C   UNL     1       3.817  -1.592   1.206  0.00  0.00    +0.118 C 
ENDROOT
BRANCH   1   2
ATOM      2  N   UNL     1       3.861  -0.748   2.403  0.00  0.00    -0.299 N 
ATOM      3  C   UNL     1       3.954  -1.314   3.623  0.00  0.00    +0.300 C 
ATOM      4  O   UNL     1       4.003  -2.524   3.730  0.00  0.00    -0.253 OA
ATOM      5  N   UNL     1       3.995  -0.538   4.724  0.00  0.00    -0.296 N 
ATOM      6  H   UNL     1       3.822   0.217   2.318  0.00  0.00    +0.150 HD
ATOM      7  H   UNL     1       3.956   0.428   4.639  0.00  0.00    +0.150 HD
BRANCH   5   8
ATOM      8  C   UNL     1       4.096  -1.152   6.050  0.00  0.00    +0.153 C 
BRANCH   8   9
ATOM      9  C   UNL     1       4.124  -0.058   7.119  0.00  0.00    +0.228 C 
ATOM     10  C   UNL     1       4.245  -0.695   8.510  0.00  0.00    +0.275 C 
ATOM     11  O   UNL     1       4.282   0.355   9.482  0.00  0.00    -0.485 OA
ATOM     12  C   UNL     1       5.110   1.402   9.220  0.00  0.00    +0.162 A 
ATOM     13  C   UNL     1       5.473   2.257  10.251  0.00  0.00    +0.049 A 
ATOM     14  C   UNL     1       6.311   3.327   9.999  0.00  0.00    +0.004 A 
ATOM     15  C   UNL     1       6.790   3.548   8.722  0.00  0.00    +0.004 A 
ATOM     16  C   UNL     1       6.434   2.699   7.691  0.00  0.00    +0.049 A 
ATOM     17  C   UNL     1       5.595   1.622   7.937  0.00  0.00    +0.163 A 
ATOM     18  O   UNL     1       5.259   0.790   6.913  0.00  0.00    -0.480 OA
ENDBRANCH   8   9
ENDBRANCH   5   8
ENDBRANCH   1   2
BRANCH   1  19
ATOM     19  C   UNL     1       3.711  -0.707  -0.038  0.00  0.00    +0.064 C 
BRANCH  19  20
ATOM     20  C   UNL     1       3.790  -1.566  -1.273  0.00  0.00    -0.033 C 
ATOM     21  C   UNL     1       4.716  -1.494  -2.256  0.00  0.00    -0.000 A 
ATOM     22  C   UNL     1       5.883  -0.628  -2.461  0.00  0.00    +0.010 A 
ATOM     23  C   UNL     1       6.640  -0.798  -3.569  0.00  0.00    +0.001 A 
ATOM     24  C   UNL     1       6.338  -1.778  -4.524  0.00  0.00    +0.002 A 
ATOM     25  C   UNL     1       5.284  -2.612  -4.405  0.00  0.00    +0.026 A 
ATOM     26  C   UNL     1       4.420  -2.522  -3.279  0.00  0.00    +0.043 A 
ATOM     27  N   UNL     1       3.352  -3.203  -2.942  0.00  0.00    -0.380 N 
ATOM     28  C   UNL     1       2.853  -2.687  -1.662  0.00  0.00    +0.145 C 
ATOM     29  H   UNL     1       2.959  -3.929  -3.451  0.00  0.00    +0.160 HD
ENDBRANCH  19  20
BRANCH  19  33
ATOM     30  C   UNL     1      -0.017   1.378   0.010  0.00  0.00    +0.000 A 
ATOM     31  C   UNL     1       1.171   2.086   0.002  0.00  0.00    +0.000 A 
ATOM     32  C   UNL     1       2.377   1.411  -0.013  0.00  0.00    +0.004 A 
ATOM     33  C   UNL     1       2.396   0.029  -0.020  0.00  0.00    -0.039 A 
ATOM     34  C   UNL     1       1.208  -0.679  -0.012  0.00  0.00    +0.004 A 
ATOM     35  C   UNL     1       0.002  -0.004   0.002  0.00  0.00    +0.000 A 
ENDBRANCH  19  33
ENDBRANCH   1  19
TORSDOF 6
