REMARK  Name = ZINC39066413
REMARK  1 active torsions:
REMARK  status: ('A' for Active; 'I' for Inactive)
REMARK    1  A    between atoms: C_3  and  C_10
REMARK                            x       y       z     vdW  Elec       q    Type
REMARK                         _______ _______ _______ _____ _____    ______ ____
ROOT
ATOM      1  C   UNL     1      -0.019   1.555   0.011  0.00  0.00    +0.012 C 
ATOM      2  C   UNL     1       1.472   1.965  -0.001  0.00  0.00    +0.019 C 
ATOM      3  C   UNL     1       2.248   0.612  -0.007  0.00  0.00    +0.079 C 
ATOM      4  C   UNL     1       1.279  -0.273  -0.870  0.00  0.00    +0.029 C 
ATOM      5  C   UNL     1       0.002  -0.004   0.002  0.00  0.00    +0.056 C 
ATOM      6  C   UNL     1       0.517  -0.391   1.395  0.00  0.00    +0.137 C 
ATOM      7  O   UNL     1      -0.109  -0.904   2.291  0.00  0.00    -0.297 OA
ATOM      8  C   UNL     1       1.985   0.011   1.408  0.00  0.00    +0.092 C 
ENDROOT
BRANCH   3   9
ATOM      9  C   UNL     1       3.689   0.676  -0.444  0.00  0.00    +0.362 C 
ATOM     10  O   UNL     1       4.486   1.351   0.184  0.00  0.00    -0.246 OA
ATOM     11  O   UNL     1       4.057   0.053  -1.425  0.00  0.00    -0.246 OA
ENDBRANCH   3   9
TORSDOF 1
