REMARK  Name = ZINC39711155
REMARK  10 active torsions:
REMARK  status: ('A' for Active; 'I' for Inactive)
REMARK    1  A    between atoms: C_1  and  C_2
REMARK    2  A    between atoms: C_4  and  C_41
REMARK    3  A    between atoms: C_7  and  C_14
REMARK    4  A    between atoms: C_14  and  C_16
REMARK    5  A    between atoms: C_14  and  N_28
REMARK    6  A    between atoms: N_21  and  C_22
REMARK    7  A    between atoms: N_28  and  C_29
REMARK    8  A    between atoms: N_28  and  C_35
REMARK    9  A    between atoms: C_29  and  C_30
REMARK   10  A    between atoms: C_35  and  C_36
REMARK                            x       y       z     vdW  Elec       q    Type
REMARK                         _______ _______ _______ _____ _____    ______ ____
ROOT
ATOM      1  C   UNL     1      -0.456  -5.512   1.179  0.00  0.00    -0.010 C 
ENDROOT
BRANCH   1   8
ATOM      2  C   UNL     1       0.456  -5.867  -6.254  0.00  0.00    +0.044 C 
ATOM      3  C   UNL     1       0.231  -5.436  -4.827  0.00  0.00    -0.048 A 
ATOM      4  C   UNL     1       0.864  -4.279  -4.370  0.00  0.00    +0.007 A 
ATOM      5  C   UNL     1       0.701  -3.841  -3.095  0.00  0.00    -0.042 A 
ATOM      6  C   UNL     1      -0.160  -4.605  -2.191  0.00  0.00    -0.004 A 
ATOM      7  C   UNL     1      -0.354  -4.202  -0.903  0.00  0.00    -0.006 C 
ATOM      8  C   UNL     1      -1.262  -5.054  -0.038  0.00  0.00    +0.088 C 
ATOM      9  C   UNL     1      -1.878  -6.280  -0.673  0.00  0.00    +0.223 C 
ATOM     10  O   UNL     1      -2.614  -6.999  -0.025  0.00  0.00    -0.275 OA
ATOM     11  N   UNL     1      -1.613  -6.567  -1.937  0.00  0.00    -0.285 N 
ATOM     12  C   UNL     1      -0.816  -5.821  -2.701  0.00  0.00    +0.041 A 
ATOM     13  C   UNL     1      -0.583  -6.186  -4.040  0.00  0.00    +0.027 A 
ATOM     14  C   UNL     1       1.393  -2.590  -2.620  0.00  0.00    +0.044 C 
ATOM     15  H   UNL     1      -2.018  -7.358  -2.325  0.00  0.00    +0.155 HD
ENDBRANCH   1   8
BRANCH   1  16
ATOM     16  C   UNL     1      -1.405  -6.090   2.231  0.00  0.00    +0.183 C 
ATOM     17  N   UNL     1      -2.193  -5.018   2.869  0.00  0.00    -0.229 N 
ATOM     18  N   UNL     1      -1.853  -5.048   4.226  0.00  0.00    -0.064 NA
ATOM     19  N   UNL     1      -1.030  -5.921   4.489  0.00  0.00    -0.061 NA
ATOM     20  N   UNL     1      -0.647  -6.662   3.360  0.00  0.00    -0.213 N 
ATOM     21  H   UNL     1      -2.818  -4.416   2.436  0.00  0.00    +0.172 HD
BRANCH  20  22
ATOM     22  C   UNL     1       0.307  -7.773   3.310  0.00  0.00    +0.096 C 
ATOM     23  C   UNL     1       1.538  -7.427   4.151  0.00  0.00    +0.024 C 
ATOM     24  C   UNL     1       2.534  -8.587   4.098  0.00  0.00    +0.002 C 
ATOM     25  C   UNL     1       1.875  -9.851   4.655  0.00  0.00    +0.000 C 
ATOM     26  C   UNL     1       0.644 -10.197   3.814  0.00  0.00    +0.002 C 
ATOM     27  C   UNL     1      -0.352  -9.037   3.866  0.00  0.00    +0.024 C 
ENDBRANCH  20  22
ENDBRANCH   1  16
BRANCH   1  28
ATOM     28  N   UNL     1       0.266  -4.366   1.748  0.00  0.00    +0.392 N 
ATOM     29  H   UNL     1       0.747  -3.872   1.012  0.00  0.00    -0.080 HD
BRANCH  28  30
ATOM     30  C   UNL     1       1.243  -4.843   2.736  0.00  0.00    -0.002 C 
BRANCH  30  31
ATOM     31  C   UNL     1       2.336  -5.606   2.034  0.00  0.00    +0.089 A 
ATOM     32  C   UNL     1       3.492  -5.087   1.583  0.00  0.00    +0.042 A 
ATOM     33  C   UNL     1       4.216  -6.149   0.995  0.00  0.00    +0.041 A 
ATOM     34  C   UNL     1       3.459  -7.254   1.121  0.00  0.00    +0.195 A 
ATOM     35  O   UNL     1       2.324  -6.920   1.756  0.00  0.00    -0.470 OA
ENDBRANCH  30  31
ENDBRANCH  28  30
BRANCH  28  36
ATOM     36  C   UNL     1      -0.689  -3.461   2.402  0.00  0.00    -0.034 C 
BRANCH  36  37
ATOM     37  C   UNL     1      -0.252  -2.034   2.195  0.00  0.00    -0.027 A 
ATOM     38  C   UNL     1      -0.672  -1.138   1.269  0.00  0.00    +0.009 A 
ATOM     39  C   UNL     1      -0.125   0.132   1.268  0.00  0.00    +0.008 A 
ATOM     40  C   UNL     1       0.816   0.443   2.192  0.00  0.00    +0.045 A 
ATOM     41  S   UNL     1       0.949  -1.082   3.111  0.00  0.00    -0.103 S 
ENDBRANCH  36  37
ENDBRANCH  28  36
ENDBRANCH   1  28
TORSDOF 8
