REMARK  Name = ZINC44713611
REMARK  7 active torsions:
REMARK  status: ('A' for Active; 'I' for Inactive)
REMARK    1  A    between atoms: C_1  and  C_2
REMARK    2  A    between atoms: C_3  and  C_9
REMARK    3  A    between atoms: C_4  and  C_8
REMARK    4  A    between atoms: C_9  and  C_11
REMARK    5  A    between atoms: C_9  and  N_12
REMARK    6  A    between atoms: C_13  and  C_15
REMARK    7  A    between atoms: C_26  and  C_28
REMARK                            x       y       z     vdW  Elec       q    Type
REMARK                         _______ _______ _______ _____ _____    ______ ____
ROOT
ATOM      1  C   UNL     1      -2.501  -1.215  -5.511  0.00  0.00    +0.100 C 
ATOM      2  C   UNL     1      -3.792  -1.574  -4.742  0.00  0.00    +0.121 C 
ATOM      3  N   UNL     1      -4.734  -0.475  -5.058  0.00  0.00    -0.296 N 
ATOM      4  C   UNL     1      -4.493  -0.184  -6.491  0.00  0.00    +0.115 C 
ATOM      5  C   UNL     1      -2.966  -0.306  -6.661  0.00  0.00    -0.004 C 
ATOM      6  C   UNL     1      -2.633  -0.943  -8.006  0.00  0.00    -0.010 C 
ATOM      7  C   UNL     1      -3.052   0.006  -9.133  0.00  0.00    -0.082 C 
ATOM      8  N   UNL     1      -2.347   1.285  -8.986  0.00  0.00    +0.379 N 
ATOM      9  C   UNL     1      -2.744   1.935  -7.732  0.00  0.00    -0.082 C 
ATOM     10  C   UNL     1      -2.312   1.068  -6.546  0.00  0.00    -0.010 C 
ATOM     11  C   UNL     1      -5.611   0.125  -4.229  0.00  0.00    +0.248 C 
ATOM     12  O   UNL     1      -5.625  -0.162  -3.047  0.00  0.00    -0.270 OA
ATOM     13  H   UNL     1      -1.351   1.119  -8.977  0.00  0.00    -0.086 HD
ATOM     14  H   UNL     1      -2.578   1.886  -9.763  0.00  0.00    -0.086 HD
ENDROOT
BRANCH  11  15
ATOM     15  C   UNL     1      -6.556   1.131  -4.755  0.00  0.00    +0.055 A 
ATOM     16  C   UNL     1      -7.094   0.985  -6.036  0.00  0.00    +0.016 A 
ATOM     17  C   UNL     1      -7.974   1.927  -6.522  0.00  0.00    +0.021 A 
ATOM     18  C   UNL     1      -8.326   3.018  -5.744  0.00  0.00    +0.042 A 
ATOM     19  C   UNL     1      -7.797   3.171  -4.474  0.00  0.00    +0.040 A 
ATOM     20  C   UNL     1      -6.919   2.230  -3.973  0.00  0.00    +0.054 A 
ATOM     21 CL   UNL     1      -6.261   2.417  -2.377  0.00  0.00    -0.083 Cl
ATOM     22 CL   UNL     1      -9.436   4.200  -6.365  0.00  0.00    -0.083 Cl
ENDBRANCH  11  15
BRANCH   1  24
ATOM     23  N   UNL     1      -0.213  -0.590  -4.806  0.00  0.00    -0.308 N 
ATOM     24  C   UNL     1      -1.542  -0.476  -4.613  0.00  0.00    +0.219 C 
ATOM     25  O   UNL     1      -1.967   0.221  -3.716  0.00  0.00    -0.275 OA
ATOM     26  H   UNL     1       0.126  -1.148  -5.523  0.00  0.00    +0.149 HD
BRANCH  23  27
ATOM     27  C   UNL     1       0.718   0.128  -3.932  0.00  0.00    +0.104 C 
ATOM     28  C   UNL     1       0.821   1.586  -4.386  0.00  0.00    +0.033 C 
BRANCH  27  31
ATOM     29  C   UNL     1       2.198  -0.752  -6.544  0.00  0.00    +0.065 C 
ATOM     30  C   UNL     1       2.717  -0.899  -5.137  0.00  0.00    +0.038 A 
ATOM     31  C   UNL     1       2.077  -0.519  -4.007  0.00  0.00    +0.015 A 
ATOM     32  C   UNL     1       2.900  -0.832  -2.920  0.00  0.00    +0.065 A 
ATOM     33  N   UNL     1       3.995  -1.380  -3.381  0.00  0.00    -0.179 NA
ATOM     34  N   UNL     1       3.900  -1.438  -4.778  0.00  0.00    -0.281 N 
ATOM     35  H   UNL     1       4.569  -1.800  -5.381  0.00  0.00    +0.189 HD
ATOM     36  C   UNL     1       2.581  -0.580  -1.469  0.00  0.00    +0.068 C 
ENDBRANCH  27  31
ENDBRANCH  23  27
ENDBRANCH   1  24
TORSDOF 4
