REMARK  Name = ZINC09018459
REMARK  10 active torsions:
REMARK  status: ('A' for Active; 'I' for Inactive)
REMARK    1  A    between atoms: C_1  and  C_2
REMARK    2  A    between atoms: C_2  and  C_3
REMARK    3  A    between atoms: C_4  and  C_39
REMARK    4  A    between atoms: C_13  and  S_14
REMARK    5  A    between atoms: S_14  and  C_15
REMARK    6  A    between atoms: C_15  and  C_16
REMARK    7  A    between atoms: C_19  and  C_32
REMARK    8  A    between atoms: C_22  and  C_24
REMARK    9  A    between atoms: C_27  and  O_30
REMARK   10  A    between atoms: O_30  and  C_31
REMARK                            x       y       z     vdW  Elec       q    Type
REMARK                         _______ _______ _______ _____ _____    ______ ____
ROOT
ATOM      1  C   UNL     1      -1.892   3.292   2.446  0.00  0.00    +0.246 C 
ATOM      2  O   UNL     1      -1.573   2.268   3.013  0.00  0.00    -0.273 OA
ATOM      3  N   UNL     1      -2.395   3.241   1.196  0.00  0.00    -0.184 N 
ATOM      4  C   UNL     1      -2.608   2.017   0.409  0.00  0.00    +0.137 C 
ATOM      5  C   UNL     1      -3.193   2.535  -0.920  0.00  0.00    +0.087 C 
ATOM      6  C   UNL     1      -3.244   4.038  -0.730  0.00  0.00    +0.069 C 
ATOM      7  N   UNL     1      -2.796   4.340   0.439  0.00  0.00    -0.181 NA
ENDROOT
BRANCH   4   8
ATOM      8  C   UNL     1      -1.301   1.305   0.171  0.00  0.00    -0.025 A 
ATOM      9  C   UNL     1      -0.148   2.034  -0.051  0.00  0.00    +0.008 A 
ATOM     10  C   UNL     1       1.050   1.382  -0.275  0.00  0.00    +0.038 A 
ATOM     11  C   UNL     1       1.095  -0.002  -0.277  0.00  0.00    +0.123 A 
ATOM     12  C   UNL     1      -0.061  -0.731  -0.055  0.00  0.00    +0.038 A 
ATOM     13  C   UNL     1      -1.258  -0.077   0.168  0.00  0.00    +0.008 A 
ATOM     14  F   UNL     1       2.265  -0.640  -0.496  0.00  0.00    -0.205 F 
ENDBRANCH   4   8
BRANCH   6  15
ATOM     15  C   UNL     1      -3.732   5.005  -1.730  0.00  0.00    -0.002 A 
ATOM     16  C   UNL     1      -4.190   4.557  -2.972  0.00  0.00    +0.013 A 
ATOM     17  C   UNL     1      -4.650   5.465  -3.902  0.00  0.00    +0.046 A 
ATOM     18  C   UNL     1      -4.649   6.822  -3.611  0.00  0.00    +0.120 A 
ATOM     19  C   UNL     1      -4.190   7.272  -2.379  0.00  0.00    +0.046 A 
ATOM     20  C   UNL     1      -3.733   6.372  -1.441  0.00  0.00    +0.013 A 
BRANCH  18  21
ATOM     21  O   UNL     1      -5.097   7.714  -4.532  0.00  0.00    -0.495 OA
ATOM     22  C   UNL     1      -5.554   7.184  -5.778  0.00  0.00    +0.277 C 
ENDBRANCH  18  21
ENDBRANCH   6  15
BRANCH   1  23
ATOM     23  C   UNL     1      -1.726   4.620   3.138  0.00  0.00    +0.175 C 
BRANCH  23  24
ATOM     24  S   UNL     1      -1.032   4.357   4.793  0.00  0.00    -0.076 S 
BRANCH  24  35
ATOM     25  C   UNL     1       0.474   6.103   8.878  0.00  0.00    +0.036 A 
ATOM     26  C   UNL     1       0.060   5.527   7.735  0.00  0.00    +0.034 A 
ATOM     27  N   UNL     1      -0.424   6.303   6.707  0.00  0.00    -0.260 N 
ATOM     28  C   UNL     1      -0.487   7.666   6.841  0.00  0.00    +0.237 A 
ATOM     29  N   UNL     1      -0.063   8.268   8.014  0.00  0.00    -0.291 N 
ATOM     30  H   UNL     1      -0.108   9.233   8.109  0.00  0.00    +0.172 HD
ATOM     31  C   UNL     1       0.412   7.511   9.024  0.00  0.00    +0.256 A 
ATOM     32  O   UNL     1       0.786   8.036  10.057  0.00  0.00    -0.267 OA
ATOM     33  N   UNL     1      -0.980   8.159   5.731  0.00  0.00    -0.109 NA
ATOM     34  N   UNL     1      -1.237   7.094   4.858  0.00  0.00    -0.120 NA
ATOM     35  C   UNL     1      -0.901   5.981   5.464  0.00  0.00    +0.198 A 
ATOM     36  C   UNL     1       0.126   4.030   7.581  0.00  0.00    +0.064 C 
BRANCH  25  38
ATOM     37  C   UNL     1       2.530   5.181   9.913  0.00  0.00    +0.009 C 
ATOM     38  C   UNL     1       1.004   5.251  10.002  0.00  0.00    +0.039 C 
ENDBRANCH  25  38
ENDBRANCH  24  35
ENDBRANCH  23  24
ENDBRANCH   1  23
TORSDOF 7
