REMARK  Name = ZINC13647250
REMARK  8 active torsions:
REMARK  status: ('A' for Active; 'I' for Inactive)
REMARK    1  A    between atoms: C_4  and  O_25
REMARK    2  A    between atoms: C_5  and  C_7
REMARK    3  A    between atoms: C_9  and  C_13
REMARK    4  A    between atoms: N_15  and  N_16
REMARK    5  A    between atoms: C_17  and  C_18
REMARK    6  A    between atoms: C_22  and  O_24
REMARK    7  A    between atoms: O_25  and  C_26
REMARK    8  A    between atoms: C_26  and  C_27
REMARK                            x       y       z     vdW  Elec       q    Type
REMARK                         _______ _______ _______ _____ _____    ______ ____
ROOT
ATOM      1  C   UNL     1       1.246  -2.162  -0.023  0.00  0.00    +0.070 A 
ATOM      2  C   UNL     1       0.424  -2.997   0.682  0.00  0.00    +0.062 A 
ATOM      3  C   UNL     1       0.836  -4.304   0.344  0.00  0.00    +0.149 A 
ATOM      4  N   UNL     1       1.838  -4.193  -0.506  0.00  0.00    -0.169 NA
ATOM      5  N   UNL     1       2.092  -2.956  -0.740  0.00  0.00    -0.276 N 
ATOM      6  H   UNL     1       2.785  -2.634  -1.338  0.00  0.00    +0.189 HD
ENDROOT
BRANCH   1  11
ATOM      7  C   UNL     1      -0.017   1.375   0.010  0.00  0.00    +0.001 A 
ATOM      8  C   UNL     1       1.169   2.089   0.002  0.00  0.00    +0.004 A 
ATOM      9  C   UNL     1       2.382   1.427  -0.013  0.00  0.00    +0.046 A 
ATOM     10  C   UNL     1       2.417   0.042  -0.022  0.00  0.00    +0.130 A 
ATOM     11  C   UNL     1       1.220  -0.683  -0.014  0.00  0.00    +0.041 A 
ATOM     12  C   UNL     1       0.002  -0.004   0.002  0.00  0.00    +0.013 A 
BRANCH  10  13
ATOM     13  O   UNL     1       3.609  -0.610  -0.038  0.00  0.00    -0.487 OA
BRANCH  13  14
ATOM     14  C   UNL     1       4.789   0.196  -0.046  0.00  0.00    +0.264 C 
BRANCH  14  15
ATOM     15  C   UNL     1       6.005  -0.695  -0.063  0.00  0.00    -0.010 A 
ATOM     16  C   UNL     1       6.571  -1.114   1.126  0.00  0.00    +0.008 A 
ATOM     17  C   UNL     1       7.686  -1.931   1.110  0.00  0.00    +0.020 A 
ATOM     18  C   UNL     1       8.236  -2.328  -0.096  0.00  0.00    +0.041 A 
ATOM     19  C   UNL     1       7.668  -1.908  -1.286  0.00  0.00    +0.020 A 
ATOM     20  C   UNL     1       6.550  -1.096  -1.269  0.00  0.00    +0.008 A 
ATOM     21 CL   UNL     1       9.636  -3.353  -0.117  0.00  0.00    -0.084 Cl
ENDBRANCH  14  15
ENDBRANCH  13  14
ENDBRANCH  10  13
ENDBRANCH   1  11
BRANCH   3  22
ATOM     22  C   UNL     1       0.254  -5.563   0.850  0.00  0.00    +0.283 C 
ATOM     23  O   UNL     1      -0.673  -5.532   1.637  0.00  0.00    -0.267 OA
ATOM     24  N   UNL     1       0.750  -6.748   0.441  0.00  0.00    -0.202 N 
ATOM     25  H   UNL     1       1.489  -6.773  -0.187  0.00  0.00    +0.178 HD
BRANCH  24  26
ATOM     26  N   UNL     1       0.197  -7.942   0.920  0.00  0.00    -0.187 NA
ATOM     27  C   UNL     1       0.674  -9.083   0.526  0.00  0.00    +0.138 C 
BRANCH  27  28
ATOM     28  C   UNL     1       0.092 -10.340   1.031  0.00  0.00    -0.002 A 
ATOM     29  C   UNL     1      -0.977 -10.307   1.930  0.00  0.00    +0.010 A 
ATOM     30  C   UNL     1      -1.518 -11.485   2.400  0.00  0.00    +0.004 A 
ATOM     31  C   UNL     1      -1.007 -12.701   1.985  0.00  0.00    +0.045 A 
ATOM     32  C   UNL     1       0.055 -12.745   1.092  0.00  0.00    +0.117 A 
ATOM     33  C   UNL     1       0.604 -11.569   0.609  0.00  0.00    +0.054 A 
BRANCH  32  34
ATOM     34  O   UNL     1       0.554 -13.943   0.687  0.00  0.00    -0.507 OA
ATOM     35  H   UNL     1       0.129 -14.298  -0.106  0.00  0.00    +0.292 HD
ENDBRANCH  32  34
ENDBRANCH  27  28
ENDBRANCH  24  26
ENDBRANCH   3  22
TORSDOF 8
