REMARK  Name = ZINC19821095
REMARK  4 active torsions:
REMARK  status: ('A' for Active; 'I' for Inactive)
REMARK    1  A    between atoms: C_1  and  C_2
REMARK    2  A    between atoms: C_2  and  C_3
REMARK    3  A    between atoms: C_2  and  N_4
REMARK    4  A    between atoms: C_14  and  C_17
REMARK                            x       y       z     vdW  Elec       q    Type
REMARK                         _______ _______ _______ _____ _____    ______ ____
ROOT
ATOM      1  N   UNL     1      -1.290   2.950   0.029  0.00  0.00    -0.275 N 
ATOM      2  C   UNL     1      -0.162   3.746   0.022  0.00  0.00    +0.150 A 
ATOM      3  C   UNL     1       1.101   3.119   0.007  0.00  0.00    +0.086 A 
ATOM      4  C   UNL     1       2.254   3.896   0.002  0.00  0.00    -0.019 A 
ATOM      5  C   UNL     1       2.098   5.286   0.007  0.00  0.00    +0.040 A 
ATOM      6  C   UNL     1       0.812   5.837   0.022  0.00  0.00    +0.124 A 
ATOM      7  N   UNL     1      -0.256   5.067   0.029  0.00  0.00    -0.236 NA
ATOM      8  C   UNL     1       3.283   6.159  -0.009  0.00  0.00    +0.165 C 
ATOM      9  O   UNL     1       3.184   7.350  -0.218  0.00  0.00    -0.292 OA
ATOM     10  C   UNL     1       4.632   5.517   0.245  0.00  0.00    +0.088 C 
ATOM     11  C   UNL     1       4.673   4.202  -0.544  0.00  0.00    +0.031 C 
ATOM     12  C   UNL     1       3.609   3.251  -0.003  0.00  0.00    +0.045 C 
ATOM     13  C   UNL     1       1.156   1.647  -0.000  0.00  0.00    +0.264 A 
ATOM     14  O   UNL     1       2.222   1.061  -0.013  0.00  0.00    -0.267 OA
ATOM     15  N   UNL     1      -0.011   0.966   0.007  0.00  0.00    -0.274 N 
ATOM     16  H   UNL     1      -0.006  -0.134   0.006  0.00  0.00    +0.173 HD
ATOM     17  C   UNL     1      -1.188   1.610   0.017  0.00  0.00    +0.331 A 
ATOM     18  O   UNL     1      -2.210   0.952   0.018  0.00  0.00    -0.246 OA
ENDROOT
BRANCH  11  19
ATOM     19  C   UNL     1       6.033   3.571  -0.399  0.00  0.00    -0.044 A 
ATOM     20  C   UNL     1       6.505   3.228   0.854  0.00  0.00    +0.004 A 
ATOM     21  C   UNL     1       7.751   2.644   0.988  0.00  0.00    +0.000 A 
ATOM     22  C   UNL     1       8.529   2.412  -0.131  0.00  0.00    +0.000 A 
ATOM     23  C   UNL     1       8.059   2.760  -1.384  0.00  0.00    +0.000 A 
ATOM     24  C   UNL     1       6.811   3.340  -1.518  0.00  0.00    +0.004 A 
ENDBRANCH  11  19
BRANCH   1  26
ATOM     25  C   UNL     1      -3.395   3.144  -1.200  0.00  0.00    +0.031 C 
ATOM     26  C   UNL     1      -2.615   3.574   0.044  0.00  0.00    +0.087 C 
ATOM     27  C   UNL     1      -3.372   3.133   1.299  0.00  0.00    +0.031 C 
ENDBRANCH   1  26
TORSDOF 2
