REMARK  Name = ZINC39272270
REMARK  9 active torsions:
REMARK  status: ('A' for Active; 'I' for Inactive)
REMARK    1  A    between atoms: C_1  and  C_2
REMARK    2  A    between atoms: N_6  and  C_7
REMARK    3  A    between atoms: C_7  and  C_9
REMARK    4  A    between atoms: C_9  and  C_10
REMARK    5  A    between atoms: C_12  and  C_30
REMARK    6  A    between atoms: C_25  and  C_26
REMARK    7  A    between atoms: C_26  and  C_27
REMARK    8  A    between atoms: C_26  and  C_28
REMARK    9  A    between atoms: C_26  and  C_29
REMARK                            x       y       z     vdW  Elec       q    Type
REMARK                         _______ _______ _______ _____ _____    ______ ____
ROOT
ATOM      1  C   UNL     1       0.108  -6.671   2.405  0.00  0.00    +0.114 C 
ATOM      2  C   UNL     1       0.232  -7.684   3.546  0.00  0.00    +0.034 C 
ATOM      3  C   UNL     1      -1.089  -7.812   4.263  0.00  0.00    -0.001 A 
ATOM      4  C   UNL     1      -1.088  -8.326   5.535  0.00  0.00    +0.019 A 
ATOM      5  C   UNL     1      -2.283  -8.470   6.234  0.00  0.00    +0.024 A 
ATOM      6  C   UNL     1      -3.498  -8.090   5.637  0.00  0.00    +0.139 A 
ATOM      7  C   UNL     1      -3.485  -7.569   4.352  0.00  0.00    +0.093 A 
ATOM      8  C   UNL     1      -2.285  -7.429   3.669  0.00  0.00    +0.139 A 
ATOM      9  O   UNL     1      -2.322  -6.897   2.416  0.00  0.00    -0.425 OA
ATOM     10  C   UNL     1      -1.193  -6.951   1.680  0.00  0.00    +0.317 C 
ATOM     11  O   UNL     1      -1.217  -7.211   0.500  0.00  0.00    -0.250 OA
ATOM     12  O   UNL     1      -4.478  -8.340   6.529  0.00  0.00    -0.463 OA
ATOM     13  C   UNL     1      -3.972  -8.855   7.664  0.00  0.00    +0.200 A 
ATOM     14  C   UNL     1      -2.641  -8.967   7.568  0.00  0.00    +0.003 A 
ATOM     15  C   UNL     1       0.633  -9.046   2.975  0.00  0.00    +0.013 C 
ENDROOT
BRANCH  14  16
ATOM     16  C   UNL     1      -1.699  -9.498   8.618  0.00  0.00    -0.009 C 
ATOM     17  C   UNL     1      -2.497  -9.907   9.858  0.00  0.00    +0.015 C 
ATOM     18  C   UNL     1      -0.954 -10.714   8.067  0.00  0.00    +0.015 C 
ATOM     19  C   UNL     1      -0.692  -8.410   8.996  0.00  0.00    +0.015 C 
ENDBRANCH  14  16
BRANCH   1  20
ATOM     20  C   UNL     1       0.091  -5.250   2.972  0.00  0.00    +0.113 C 
BRANCH  20  21
ATOM     21  C   UNL     1       0.071  -4.257   1.838  0.00  0.00    +0.239 C 
ATOM     22  O   UNL     1       0.071  -4.648   0.686  0.00  0.00    -0.274 OA
BRANCH  21  28
ATOM     23  C   UNL     1      -0.018   1.503   0.010  0.00  0.00    +0.064 C 
ATOM     24  C   UNL     1       0.002  -0.004   0.002  0.00  0.00    +0.021 A 
ATOM     25  C   UNL     1       0.006  -0.694  -1.144  0.00  0.00    +0.069 A 
ATOM     26  S   UNL     1       0.033  -2.379  -0.561  0.00  0.00    -0.060 S 
ATOM     27  C   UNL     1       0.036  -2.076   1.093  0.00  0.00    +0.163 A 
ATOM     28  N   UNL     1       0.054  -2.955   2.096  0.00  0.00    -0.157 NA
ATOM     29  N   UNL     1       0.023  -0.718   1.159  0.00  0.00    -0.340 N 
ATOM     30  H   UNL     1       0.025  -0.266   2.018  0.00  0.00    +0.167 HD
ENDBRANCH  21  28
ENDBRANCH  20  21
ENDBRANCH   1  20
TORSDOF 4
