REMARK  Name = ZINC12279410
REMARK  14 active torsions:
REMARK  status: ('A' for Active; 'I' for Inactive)
REMARK    1  A    between atoms: C_1  and  C_2
REMARK    2  A    between atoms: C_2  and  C_4
REMARK    3  A    between atoms: C_2  and  N_67
REMARK    4  A    between atoms: C_4  and  C_5
REMARK    5  A    between atoms: C_5  and  C_6
REMARK    6  A    between atoms: C_5  and  C_7
REMARK    7  A    between atoms: C_5  and  O_8
REMARK    8  A    between atoms: C_14  and  S_20
REMARK    9  A    between atoms: C_15  and  C_16
REMARK   10  A    between atoms: C_16  and  O_18
REMARK   11  A    between atoms: O_18  and  C_19
REMARK   12  A    between atoms: S_20  and  N_23
REMARK   13  A    between atoms: N_23  and  C_24
REMARK   14  A    between atoms: C_24  and  C_25
REMARK                            x       y       z     vdW  Elec       q    Type
REMARK                         _______ _______ _______ _____ _____    ______ ____
ROOT
ATOM      1  C   UNL     1      -1.666   1.151  -1.845  0.00  0.00    -0.073 C 
ATOM      2  C   UNL     1      -2.171   1.936  -3.059  0.00  0.00    +0.018 C 
ATOM      3  C   UNL     1      -1.181   1.735  -4.200  0.00  0.00    -0.025 A 
ATOM      4  C   UNL     1       0.067   1.277  -3.943  0.00  0.00    -0.021 A 
ATOM      5  S   UNL     1       0.847   1.195  -5.528  0.00  0.00    -0.074 S 
ATOM      6  C   UNL     1      -0.462   1.762  -6.511  0.00  0.00    +0.157 A 
ATOM      7  C   UNL     1      -1.466   1.999  -5.596  0.00  0.00    +0.096 A 
ATOM      8  C   UNL     1       0.626   0.928  -2.600  0.00  0.00    -0.035 C 
ATOM      9  N   UNL     1      -0.262   1.522  -1.571  0.00  0.00    +0.385 N 
ATOM     10  H   UNL     1      -0.174   2.544  -1.603  0.00  0.00    -0.081 HD
ENDROOT
BRANCH   6  11
ATOM     11  S   UNL     1      -0.502   1.983  -8.259  0.00  0.00    +0.065 S 
ATOM     12  O   UNL     1      -0.811   0.715  -8.822  0.00  0.00    -0.153 OA
ATOM     13  O   UNL     1      -1.291   3.139  -8.505  0.00  0.00    -0.153 OA
BRANCH  11  14
ATOM     14  N   UNL     1       1.039   2.352  -8.741  0.00  0.00    -0.189 NA
ATOM     15  H   UNL     1       1.233   3.222  -9.122  0.00  0.00    +0.148 HD
BRANCH  14  16
ATOM     16  C   UNL     1       2.110   1.363  -8.592  0.00  0.00    +0.109 C 
BRANCH  16  17
ATOM     17  C   UNL     1       3.317   1.787  -9.431  0.00  0.00    +0.005 C 
ATOM     18  C   UNL     1       2.942   1.758 -10.914  0.00  0.00    +0.005 C 
ATOM     19  C   UNL     1       4.149   2.183 -11.753  0.00  0.00    +0.000 C 
ATOM     20  C   UNL     1       5.310   1.218 -11.501  0.00  0.00    +0.000 C 
ATOM     21  C   UNL     1       5.684   1.247 -10.018  0.00  0.00    +0.000 C 
ATOM     22  C   UNL     1       4.478   0.823  -9.179  0.00  0.00    +0.005 C 
ENDBRANCH  16  17
ENDBRANCH  14  16
ENDBRANCH  11  14
ENDBRANCH   6  11
BRANCH   9  24
ATOM     23  C   UNL     1      -0.861   1.586   0.805  0.00  0.00    -0.013 C 
ATOM     24  C   UNL     1       0.133   1.048  -0.227  0.00  0.00    -0.069 C 
BRANCH  24  25
ATOM     25  C   UNL     1       1.534   1.574   0.092  0.00  0.00    +0.019 C 
BRANCH  25  26
ATOM     26  C   UNL     1       1.494   3.100   0.196  0.00  0.00    +0.059 C 
ATOM     27  C   UNL     1       2.917   3.637   0.367  0.00  0.00    +0.041 C 
ATOM     28  C   UNL     1       0.879   3.682  -1.078  0.00  0.00    +0.041 C 
BRANCH  26  29
ATOM     29  O   UNL     1       0.703   3.480   1.324  0.00  0.00    -0.389 OA
ATOM     30  H   UNL     1       0.571   4.435   1.408  0.00  0.00    +0.210 HD
ENDBRANCH  26  29
ENDBRANCH  25  26
ENDBRANCH  24  25
ENDBRANCH   9  24
BRANCH   7  31
ATOM     31  C   UNL     1      -2.780   2.502  -6.021  0.00  0.00    +0.342 C 
ATOM     32  O   UNL     1      -2.983   3.700  -6.080  0.00  0.00    -0.245 OA
BRANCH  31  33
ATOM     33  O   UNL     1      -3.761   1.636  -6.346  0.00  0.00    -0.464 OA
ATOM     34  C   UNL     1      -5.032   2.204  -6.758  0.00  0.00    +0.280 C 
ENDBRANCH  31  33
ENDBRANCH   7  31
TORSDOF 10
