REMARK  Name = ZINC11911638
REMARK  4 active torsions:
REMARK  status: ('A' for Active; 'I' for Inactive)
REMARK    1  A    between atoms: C_6  and  C_7
REMARK    2  A    between atoms: C_7  and  C_9
REMARK    3  A    between atoms: C_7  and  O_15
REMARK    4  A    between atoms: C_21  and  C_23
REMARK                            x       y       z     vdW  Elec       q    Type
REMARK                         _______ _______ _______ _____ _____    ______ ____
ROOT
ATOM      1  C   UNL     1      -1.278   1.284   3.573  0.00  0.00    +0.010 A 
ATOM      2  C   UNL     1      -1.965   0.542   2.622  0.00  0.00    +0.046 A 
ATOM      3  C   UNL     1      -1.454   0.427   1.336  0.00  0.00    +0.125 A 
ATOM      4  C   UNL     1      -0.238   1.030   1.035  0.00  0.00    +0.012 A 
ATOM      5  C   UNL     1       0.431   1.784   1.970  0.00  0.00    +0.015 A 
ATOM      6  C   UNL     1      -0.092   1.915   3.246  0.00  0.00    -0.018 A 
ATOM      7  C   UNL     1       0.333   0.823  -0.355  0.00  0.00    +0.147 C 
ATOM      8  N   UNL     1      -0.564   1.443  -1.335  0.00  0.00    -0.289 N 
ATOM      9  C   UNL     1      -1.771   0.748  -1.784  0.00  0.00    +0.149 C 
ATOM     10  C   UNL     1      -2.748   0.545  -0.635  0.00  0.00    +0.248 C 
ATOM     11  O   UNL     1      -2.143  -0.254   0.390  0.00  0.00    -0.490 OA
ATOM     12  C   UNL     1      -0.276   2.665  -1.826  0.00  0.00    +0.265 C 
ATOM     13  O   UNL     1      -0.956   3.139  -2.715  0.00  0.00    -0.268 OA
ENDROOT
BRANCH  12  14
ATOM     14  C   UNL     1       0.863   3.425  -1.285  0.00  0.00    +0.124 A 
ATOM     15  C   UNL     1       1.377   4.601  -1.770  0.00  0.00    +0.005 A 
ATOM     16  C   UNL     1       2.446   4.929  -0.927  0.00  0.00    +0.067 A 
ATOM     17  N   UNL     1       2.534   4.001  -0.020  0.00  0.00    -0.178 NA
ATOM     18  N   UNL     1       1.623   3.106  -0.191  0.00  0.00    -0.272 N 
ATOM     19  H   UNL     1       1.490   2.301   0.388  0.00  0.00    +0.189 HD
ATOM     20  C   UNL     1       3.297   6.161  -1.113  0.00  0.00    +0.057 C 
ATOM     21  C   UNL     1       3.070   6.690  -2.534  0.00  0.00    +0.007 C 
ATOM     22  C   UNL     1       1.570   6.824  -2.806  0.00  0.00    +0.005 C 
ATOM     23  C   UNL     1       0.943   5.430  -2.947  0.00  0.00    +0.039 C 
ENDBRANCH  12  14
BRANCH   6  24
ATOM     24  C   UNL     1       0.631   2.743   4.277  0.00  0.00    +0.148 C 
BRANCH  24  25
ATOM     25  C   UNL     1      -0.027   4.120   4.379  0.00  0.00    +0.022 C 
ATOM     26  C   UNL     1       0.044   4.821   3.020  0.00  0.00    +0.006 C 
ATOM     27  C   UNL     1      -0.615   6.198   3.122  0.00  0.00    +0.000 C 
ATOM     28  C   UNL     1       0.119   7.038   4.168  0.00  0.00    +0.000 C 
ATOM     29  C   UNL     1       0.049   6.338   5.527  0.00  0.00    +0.000 C 
ATOM     30  C   UNL     1       0.707   4.960   5.425  0.00  0.00    +0.006 C 
ENDBRANCH  24  25
BRANCH  24  31
ATOM     31  O   UNL     1       0.565   2.088   5.546  0.00  0.00    -0.387 OA
ATOM     32  H   UNL     1      -0.335   1.951   5.871  0.00  0.00    +0.210 HD
ENDBRANCH  24  31
ENDBRANCH   6  24
TORSDOF 4
