REMARK  Name = ZINC07049227
REMARK  8 active torsions:
REMARK  status: ('A' for Active; 'I' for Inactive)
REMARK    1  A    between atoms: C_1  and  C_2
REMARK    2  A    between atoms: C_4  and  N_24
REMARK    3  A    between atoms: C_6  and  S_8
REMARK    4  A    between atoms: S_8  and  C_9
REMARK    5  A    between atoms: C_9  and  C_10
REMARK    6  A    between atoms: N_12  and  C_13
REMARK    7  A    between atoms: C_13  and  C_15
REMARK    8  A    between atoms: C_13  and  C_16
REMARK                            x       y       z     vdW  Elec       q    Type
REMARK                         _______ _______ _______ _____ _____    ______ ____
ROOT
ATOM      1  C   UNL     1       0.092  -5.461   3.466  0.00  0.00    +0.224 C 
ATOM      2  O   UNL     1       0.090  -4.937   4.560  0.00  0.00    -0.275 OA
ATOM      3  N   UNL     1       0.110  -6.805   3.363  0.00  0.00    -0.308 N 
ATOM      4  H   UNL     1       0.112  -7.224   2.488  0.00  0.00    +0.149 HD
ENDROOT
BRANCH   3   5
ATOM      5  C   UNL     1       0.127  -7.632   4.572  0.00  0.00    +0.100 C 
ATOM      6  C   UNL     1      -1.305  -7.836   5.070  0.00  0.00    +0.033 C 
BRANCH   5   7
ATOM      7  C   UNL     1       0.744  -8.970   4.256  0.00  0.00    -0.026 A 
ATOM      8  C   UNL     1       0.458  -9.597   3.057  0.00  0.00    +0.007 A 
ATOM      9  C   UNL     1       1.023 -10.825   2.767  0.00  0.00    +0.022 A 
ATOM     10  C   UNL     1       1.876 -11.426   3.675  0.00  0.00    +0.059 A 
ATOM     11  C   UNL     1       2.162 -10.798   4.875  0.00  0.00    +0.060 A 
ATOM     12  C   UNL     1       1.600  -9.567   5.162  0.00  0.00    +0.027 A 
ATOM     13 CL   UNL     1       3.231 -11.552   6.016  0.00  0.00    -0.082 Cl
ATOM     14 CL   UNL     1       2.585 -12.968   3.311  0.00  0.00    -0.082 Cl
ENDBRANCH   5   7
ENDBRANCH   3   5
BRANCH   1  15
ATOM     15  C   UNL     1       0.075  -4.610   2.222  0.00  0.00    +0.173 C 
BRANCH  15  16
ATOM     16  S   UNL     1       0.053  -2.857   2.690  0.00  0.00    -0.077 S 
BRANCH  16  22
ATOM     17  C   UNL     1      -0.018   1.503   0.010  0.00  0.00    +0.066 C 
ATOM     18  C   UNL     1       0.002  -0.004   0.002  0.00  0.00    +0.044 A 
ATOM     19  C   UNL     1       0.006  -0.696  -1.194  0.00  0.00    +0.066 A 
ATOM     20  C   UNL     1       0.025  -2.091  -1.157  0.00  0.00    +0.121 A 
ATOM     21  N   UNL     1       0.039  -2.705   0.022  0.00  0.00    -0.207 NA
ATOM     22  C   UNL     1       0.035  -2.005   1.147  0.00  0.00    +0.191 A 
ATOM     23  N   UNL     1       0.022  -0.679   1.141  0.00  0.00    -0.227 NA
BRANCH  20  24
ATOM     24  N   UNL     1       0.029  -2.826  -2.331  0.00  0.00    -0.343 N 
ATOM     25  H   UNL     1       0.018  -2.371  -3.188  0.00  0.00    +0.144 HD
ATOM     26  H   UNL     1       0.042  -3.795  -2.297  0.00  0.00    +0.144 HD
ENDBRANCH  20  24
ENDBRANCH  16  22
ENDBRANCH  15  16
ENDBRANCH   1  15
TORSDOF 6
