REMARK  Name = ZINC47328598
REMARK  3 active torsions:
REMARK  status: ('A' for Active; 'I' for Inactive)
REMARK    1  A    between atoms: C_3  and  N_9
REMARK    2  A    between atoms: N_9  and  S_10
REMARK    3  A    between atoms: S_10  and  C_13
REMARK                            x       y       z     vdW  Elec       q    Type
REMARK                         _______ _______ _______ _____ _____    ______ ____
ROOT
ATOM      1  C   UNL     1       6.295   2.538   0.192  0.00  0.00    +0.146 A 
ATOM      2  C   UNL     1       7.061   2.638   1.339  0.00  0.00    +0.037 A 
ATOM      3  C   UNL     1       8.057   3.591   1.425  0.00  0.00    -0.024 A 
ATOM      4  C   UNL     1       8.290   4.450   0.358  0.00  0.00    +0.039 A 
ATOM      5  C   UNL     1       7.520   4.349  -0.792  0.00  0.00    +0.064 A 
ATOM      6  C   UNL     1       6.528   3.389  -0.876  0.00  0.00    +0.152 A 
ATOM      7  F   UNL     1       5.781   3.285  -1.997  0.00  0.00    -0.203 F 
ATOM      8  N   UNL     1       9.299   5.414   0.446  0.00  0.00    -0.285 N 
ATOM      9  C   UNL     1      10.277   5.295   1.363  0.00  0.00    +0.218 C 
ATOM     10  O   UNL     1      11.137   6.147   1.436  0.00  0.00    -0.275 OA
ATOM     11  C   UNL     1      10.316   4.118   2.299  0.00  0.00    +0.101 C 
ATOM     12  C   UNL     1       8.893   3.702   2.673  0.00  0.00    +0.046 C 
ATOM     13  H   UNL     1       9.295   6.173  -0.158  0.00  0.00    +0.155 HD
ENDROOT
BRANCH   1  14
ATOM     14  S   UNL     1       5.026   1.321   0.086  0.00  0.00    +0.094 S 
ATOM     15  O   UNL     1       5.017   0.634   1.330  0.00  0.00    -0.148 OA
ATOM     16  O   UNL     1       5.210   0.650  -1.153  0.00  0.00    -0.148 OA
BRANCH  14  17
ATOM     17  N   UNL     1       3.583   2.126  -0.021  0.00  0.00    -0.096 NA
BRANCH  17  20
ATOM     18  C   UNL     1       1.211  -0.682  -0.089  0.00  0.00    +0.022 A 
ATOM     19  C   UNL     1       2.399   0.023  -0.082  0.00  0.00    +0.029 A 
ATOM     20  C   UNL     1       2.382   1.410  -0.029  0.00  0.00    +0.093 A 
ATOM     21  C   UNL     1       1.168   2.086   0.017  0.00  0.00    +0.067 A 
ATOM     22  C   UNL     1      -0.017   1.375   0.009  0.00  0.00    +0.042 A 
ATOM     23  C   UNL     1       0.004  -0.008  -0.044  0.00  0.00    +0.042 A 
ATOM     24 CL   UNL     1      -1.486  -0.897  -0.054  0.00  0.00    -0.083 Cl
ATOM     25 CL   UNL     1       1.141   3.820   0.084  0.00  0.00    -0.081 Cl
ENDBRANCH  17  20
ENDBRANCH  14  17
ENDBRANCH   1  14
TORSDOF 3
