REMARK  Name = ZINC65305960
REMARK  17 active torsions:
REMARK  status: ('A' for Active; 'I' for Inactive)
REMARK    1  A    between atoms: C_1  and  C_2
REMARK    2  A    between atoms: C_2  and  C_3
REMARK    3  A    between atoms: C_3  and  C_5
REMARK    4  A    between atoms: C_3  and  C_6
REMARK    5  A    between atoms: C_6  and  C_8
REMARK    6  A    between atoms: C_6  and  N_20
REMARK    7  A    between atoms: N_10  and  C_11
REMARK    8  A    between atoms: C_21  and  C_23
REMARK    9  A    between atoms: C_25  and  O_35
REMARK   10  A    between atoms: C_26  and  O_32
REMARK   11  A    between atoms: C_27  and  O_29
REMARK   12  A    between atoms: O_29  and  C_30
REMARK   13  A    between atoms: C_30  and  C_31
REMARK   14  A    between atoms: O_32  and  C_33
REMARK   15  A    between atoms: C_33  and  C_34
REMARK   16  A    between atoms: O_35  and  C_36
REMARK   17  A    between atoms: C_36  and  C_37
REMARK                            x       y       z     vdW  Elec       q    Type
REMARK                         _______ _______ _______ _____ _____    ______ ____
ROOT
ATOM      1  C   UNL     1      -1.416  -2.058  -0.121  0.00  0.00    +0.162 C 
ENDROOT
BRANCH   1   2
ATOM      2  C   UNL     1      -0.749  -2.440  -1.417  0.00  0.00    +0.236 C 
ATOM      3  O   UNL     1       0.249  -3.130  -1.406  0.00  0.00    -0.274 OA
ATOM      4  N   UNL     1      -1.261  -2.016  -2.590  0.00  0.00    -0.277 N 
ATOM      5  H   UNL     1      -2.059  -1.465  -2.599  0.00  0.00    +0.152 HD
BRANCH   4   6
ATOM      6  C   UNL     1      -0.613  -2.388  -3.850  0.00  0.00    +0.269 C 
ATOM      7  N   UNL     1       0.574  -1.553  -4.072  0.00  0.00    -0.348 N 
ATOM      8  C   UNL     1       0.387  -0.895  -5.180  0.00  0.00    +0.061 A 
ATOM      9  C   UNL     1       1.206   0.081  -5.912  0.00  0.00    +0.027 A 
ATOM     10  C   UNL     1       0.741   0.608  -7.063  0.00  0.00    +0.002 A 
ATOM     11  C   UNL     1      -0.510   0.263  -7.604  0.00  0.00    +0.002 A 
ATOM     12  C   UNL     1      -1.339  -0.621  -7.013  0.00  0.00    +0.027 A 
ATOM     13  C   UNL     1      -0.937  -1.261  -5.753  0.00  0.00    +0.061 A 
ATOM     14  N   UNL     1      -1.518  -2.130  -4.977  0.00  0.00    -0.348 N 
ATOM     15  H   UNL     1       1.354  -1.500  -3.498  0.00  0.00    +0.163 HD
ATOM     16  H   UNL     1      -2.388  -2.534  -5.118  0.00  0.00    +0.163 HD
ENDBRANCH   4   6
ENDBRANCH   1   2
BRANCH   1  17
ATOM     17  N   UNL     1      -0.673  -2.638   1.000  0.00  0.00    -0.300 N 
ATOM     18  C   UNL     1      -1.297  -2.877   2.170  0.00  0.00    +0.245 C 
ATOM     19  O   UNL     1      -2.477  -2.612   2.295  0.00  0.00    -0.270 OA
ATOM     20  H   UNL     1       0.269  -2.850   0.900  0.00  0.00    +0.150 HD
BRANCH  18  21
ATOM     21  C   UNL     1      -0.548  -3.462   3.300  0.00  0.00    +0.044 A 
ATOM     22  C   UNL     1       0.809  -3.762   3.159  0.00  0.00    +0.062 A 
ATOM     23  C   UNL     1       1.508  -4.309   4.219  0.00  0.00    +0.166 A 
ATOM     24  C   UNL     1       0.861  -4.562   5.426  0.00  0.00    +0.204 A 
ATOM     25  C   UNL     1      -0.492  -4.264   5.568  0.00  0.00    +0.166 A 
ATOM     26  C   UNL     1      -1.194  -3.711   4.514  0.00  0.00    +0.062 A 
BRANCH  25  27
ATOM     27  O   UNL     1      -1.121  -4.512   6.748  0.00  0.00    -0.488 OA
BRANCH  27  28
ATOM     28  C   UNL     1      -2.510  -4.181   6.824  0.00  0.00    +0.226 C 
ATOM     29  C   UNL     1      -3.041  -4.529   8.217  0.00  0.00    +0.048 C 
ENDBRANCH  27  28
ENDBRANCH  25  27
BRANCH  24  30
ATOM     30  O   UNL     1       1.550  -5.100   6.466  0.00  0.00    -0.485 OA
BRANCH  30  31
ATOM     31  C   UNL     1       2.180  -4.188   7.368  0.00  0.00    +0.226 C 
ATOM     32  C   UNL     1       2.902  -4.973   8.465  0.00  0.00    +0.048 C 
ENDBRANCH  30  31
ENDBRANCH  24  30
BRANCH  23  33
ATOM     33  O   UNL     1       2.829  -4.602   4.083  0.00  0.00    -0.488 OA
BRANCH  33  34
ATOM     34  C   UNL     1       3.429  -4.318   2.818  0.00  0.00    +0.226 C 
ATOM     35  C   UNL     1       4.908  -4.711   2.855  0.00  0.00    +0.048 C 
ENDBRANCH  33  34
ENDBRANCH  23  33
ENDBRANCH  18  21
ENDBRANCH   1  17
BRANCH   1  36
ATOM     36  C   UNL     1      -1.433  -0.534   0.013  0.00  0.00    +0.015 C 
ATOM     37  C   UNL     1      -2.110  -0.145   1.329  0.00  0.00    +0.010 C 
BRANCH  36  39
ATOM     38  C   UNL     1      -0.019   1.526   0.010  0.00  0.00    +0.004 C 
ATOM     39  C   UNL     1       0.002  -0.004   0.002  0.00  0.00    +0.002 C 
ENDBRANCH  36  39
ENDBRANCH   1  36
TORSDOF 12
