REMARK  Name = ZINC39691977
REMARK  7 active torsions:
REMARK  status: ('A' for Active; 'I' for Inactive)
REMARK    1  A    between atoms: C_1  and  C_2
REMARK    2  A    between atoms: C_2  and  N_3
REMARK    3  A    between atoms: C_11  and  S_12
REMARK    4  A    between atoms: S_12  and  C_13
REMARK    5  A    between atoms: C_13  and  C_14
REMARK    6  A    between atoms: C_20  and  C_28
REMARK    7  A    between atoms: C_21  and  C_25
REMARK                            x       y       z     vdW  Elec       q    Type
REMARK                         _______ _______ _______ _____ _____    ______ ____
ROOT
ATOM      1  S   UNL     1      -1.648   0.255  -2.595  0.00  0.00    -0.083 S 
ENDROOT
BRANCH   1   8
ATOM      2  N   UNL     1      -1.372  -0.511   0.012  0.00  0.00    -0.251 N 
ATOM      3  C   UNL     1      -1.994  -0.745   1.209  0.00  0.00    +0.231 C 
ATOM      4  O   UNL     1      -1.490  -0.487   2.281  0.00  0.00    -0.274 OA
ATOM      5  C   UNL     1      -3.365  -1.353   1.065  0.00  0.00    +0.137 C 
ATOM      6  C   UNL     1      -3.174  -2.408  -0.074  0.00  0.00    +0.185 C 
ATOM      7  N   UNL     1      -2.932  -1.714  -1.287  0.00  0.00    -0.247 NA
ATOM      8  C   UNL     1      -2.023  -0.741  -1.191  0.00  0.00    +0.160 C 
ATOM      9  S   UNL     1      -4.720  -3.315   0.210  0.00  0.00    -0.102 S 
ATOM     10  C   UNL     1      -4.733  -3.105   1.988  0.00  0.00    -0.012 C 
ATOM     11  C   UNL     1      -3.929  -2.078   2.250  0.00  0.00    -0.045 C 
ATOM     12  C   UNL     1      -3.645  -1.680   3.691  0.00  0.00    +0.032 C 
ATOM     13  C   UNL     1      -4.729  -2.264   4.597  0.00  0.00    +0.005 C 
ATOM     14  C   UNL     1      -4.861  -3.769   4.342  0.00  0.00    +0.005 C 
ATOM     15  C   UNL     1      -5.482  -3.943   2.975  0.00  0.00    +0.042 C 
BRANCH   2  17
ATOM     16  C   UNL     1      -0.019   1.526   0.010  0.00  0.00    +0.025 C 
ATOM     17  C   UNL     1       0.002  -0.004   0.002  0.00  0.00    +0.112 C 
ENDBRANCH   2  17
ENDBRANCH   1   8
BRANCH   1  18
ATOM     18  C   UNL     1      -2.722  -0.404  -3.900  0.00  0.00    +0.151 C 
BRANCH  18  19
ATOM     19  C   UNL     1      -2.498   0.370  -5.174  0.00  0.00    +0.121 A 
ATOM     20  N   UNL     1      -3.211   0.039  -6.279  0.00  0.00    -0.310 N 
ATOM     21  H   UNL     1      -3.851  -0.688  -6.231  0.00  0.00    +0.170 HD
ATOM     22  C   UNL     1      -3.049   0.700  -7.441  0.00  0.00    +0.260 A 
ATOM     23  O   UNL     1      -3.695   0.396  -8.428  0.00  0.00    -0.267 OA
ATOM     24  C   UNL     1      -2.064   1.806  -7.489  0.00  0.00    +0.076 A 
ATOM     25  C   UNL     1      -1.719   2.631  -8.559  0.00  0.00    -0.015 A 
ATOM     26  C   UNL     1      -0.767   3.610  -8.383  0.00  0.00    +0.106 A 
ATOM     27  S   UNL     1      -0.308   3.408  -6.671  0.00  0.00    -0.062 S 
ATOM     28  C   UNL     1      -1.385   2.053  -6.273  0.00  0.00    +0.116 A 
ATOM     29  N   UNL     1      -1.627   1.342  -5.180  0.00  0.00    -0.226 NA
ATOM     30  C   UNL     1      -2.384   2.452  -9.900  0.00  0.00    +0.046 C 
BRANCH  26  31
ATOM     31  C   UNL     1      -0.274   4.546  -9.328  0.00  0.00    +0.393 C 
ATOM     32  O   UNL     1      -0.705   4.544 -10.475  0.00  0.00    -0.240 OA
ATOM     33  O   UNL     1       0.584   5.356  -8.997  0.00  0.00    -0.240 OA
ENDBRANCH  26  31
ENDBRANCH  18  19
ENDBRANCH   1  18
TORSDOF 5
