REMARK  Name = ZINC39877753
REMARK  10 active torsions:
REMARK  status: ('A' for Active; 'I' for Inactive)
REMARK    1  A    between atoms: C_1  and  C_2
REMARK    2  A    between atoms: C_2  and  O_3
REMARK    3  A    between atoms: O_3  and  C_4
REMARK    4  A    between atoms: C_6  and  C_11
REMARK    5  A    between atoms: C_9  and  O_10
REMARK    6  A    between atoms: C_18  and  C_37
REMARK    7  A    between atoms: C_19  and  C_36
REMARK    8  A    between atoms: N_26  and  C_27
REMARK    9  A    between atoms: C_30  and  C_33
REMARK   10  A    between atoms: C_33  and  C_35
REMARK                            x       y       z     vdW  Elec       q    Type
REMARK                         _______ _______ _______ _____ _____    ______ ____
ROOT
ATOM      1  C   UNL     1      -0.217  -4.963  -0.535  0.00  0.00    +0.150 C 
ATOM      2  C   UNL     1      -1.504  -5.538  -0.042  0.00  0.00    +0.072 A 
ATOM      3  C   UNL     1      -2.759  -4.895   0.359  0.00  0.00    +0.199 A 
ATOM      4  O   UNL     1      -2.992  -3.713   0.174  0.00  0.00    -0.287 OA
ATOM      5  C   UNL     1      -3.720  -5.821   1.010  0.00  0.00    +0.065 A 
ATOM      6  C   UNL     1      -4.871  -5.327   1.624  0.00  0.00    +0.019 A 
ATOM      7  C   UNL     1      -5.744  -6.192   2.224  0.00  0.00    -0.047 A 
ATOM      8  C   UNL     1      -5.486  -7.556   2.223  0.00  0.00    -0.044 A 
ATOM      9  C   UNL     1      -4.356  -8.061   1.621  0.00  0.00    +0.050 A 
ATOM     10  C   UNL     1      -3.452  -7.199   0.999  0.00  0.00    +0.140 A 
ATOM     11  O   UNL     1      -2.353  -7.717   0.405  0.00  0.00    -0.450 OA
ATOM     12  C   UNL     1      -1.362  -6.896   0.005  0.00  0.00    +0.199 A 
ATOM     13  C   UNL     1      -0.000  -7.234  -0.443  0.00  0.00    +0.287 C 
ATOM     14  O   UNL     1       0.449  -8.361  -0.514  0.00  0.00    -0.266 OA
ATOM     15  N   UNL     1       0.677  -6.111  -0.762  0.00  0.00    -0.253 N 
ATOM     16  C   UNL     1      -6.456  -8.496   2.891  0.00  0.00    +0.044 C 
ATOM     17  C   UNL     1      -6.989  -5.663   2.888  0.00  0.00    +0.044 C 
ENDROOT
BRANCH   1  20
ATOM     18  C   UNL     1       0.802  -1.825   1.306  0.00  0.00    +0.162 A 
ATOM     19  C   UNL     1       0.261  -2.673   0.353  0.00  0.00    +0.055 A 
ATOM     20  C   UNL     1       0.372  -4.043   0.502  0.00  0.00    -0.018 A 
ATOM     21  C   UNL     1       1.024  -4.570   1.602  0.00  0.00    +0.009 A 
ATOM     22  C   UNL     1       1.566  -3.730   2.557  0.00  0.00    +0.049 A 
ATOM     23  C   UNL     1       1.462  -2.356   2.410  0.00  0.00    +0.158 A 
BRANCH  23  24
ATOM     24  O   UNL     1       2.000  -1.528   3.345  0.00  0.00    -0.503 OA
ATOM     25  H   UNL     1       1.395  -1.301   4.064  0.00  0.00    +0.292 HD
ENDBRANCH  23  24
BRANCH  18  26
ATOM     26  O   UNL     1       0.693  -0.477   1.160  0.00  0.00    -0.489 OA
BRANCH  26  28
ATOM     27  C   UNL     1      -0.019   1.526   0.010  0.00  0.00    +0.048 C 
ATOM     28  C   UNL     1       0.002  -0.004   0.002  0.00  0.00    +0.226 C 
ENDBRANCH  26  28
ENDBRANCH  18  26
ENDBRANCH   1  20
BRANCH  15  29
ATOM     29  C   UNL     1       1.988  -6.047  -1.224  0.00  0.00    +0.038 A 
ATOM     30  C   UNL     1       2.564  -4.812  -1.510  0.00  0.00    +0.024 A 
ATOM     31  C   UNL     1       3.851  -4.745  -1.964  0.00  0.00    +0.013 A 
ATOM     32  C   UNL     1       4.591  -5.921  -2.142  0.00  0.00    +0.017 A 
ATOM     33  C   UNL     1       4.007  -7.161  -1.852  0.00  0.00    +0.013 A 
ATOM     34  C   UNL     1       2.721  -7.218  -1.394  0.00  0.00    +0.024 A 
BRANCH  32  35
ATOM     35  C   UNL     1       5.974  -5.854  -2.630  0.00  0.00    +0.160 C 
ATOM     36  O   UNL     1       6.477  -4.779  -2.880  0.00  0.00    -0.292 OA
ATOM     37  C   UNL     1       6.768  -7.121  -2.820  0.00  0.00    +0.091 C 
ENDBRANCH  32  35
ENDBRANCH  15  29
TORSDOF 6
