REMARK  Name = ZINC01745942
REMARK  11 active torsions:
REMARK  status: ('A' for Active; 'I' for Inactive)
REMARK    1  A    between atoms: C_1  and  C_2
REMARK    2  A    between atoms: C_5  and  S_8
REMARK    3  A    between atoms: S_8  and  N_11
REMARK    4  A    between atoms: N_11  and  C_12
REMARK    5  A    between atoms: N_11  and  C_30
REMARK    6  A    between atoms: C_12  and  C_13
REMARK    7  A    between atoms: C_13  and  C_14
REMARK    8  A    between atoms: C_14  and  C_15
REMARK    9  A    between atoms: C_16  and  C_29
REMARK   10  A    between atoms: C_20  and  N_21
REMARK   11  A    between atoms: N_21  and  C_22
REMARK                            x       y       z     vdW  Elec       q    Type
REMARK                         _______ _______ _______ _____ _____    ______ ____
ROOT
ATOM      1  C   UNL     1      -1.609  -0.901   1.766  0.00  0.00    +0.025 C 
ENDROOT
BRANCH   1   2
ATOM      2  C   UNL     1      -0.253  -0.459   1.214  0.00  0.00    +0.132 C 
BRANCH   2   3
ATOM      3  N   UNL     1      -0.439   0.167  -0.097  0.00  0.00    -0.203 N 
BRANCH   3   4
ATOM      4  C   UNL     1      -0.499  -0.624  -1.247  0.00  0.00    +0.051 A 
ATOM      5  C   UNL     1      -0.911  -1.948  -1.161  0.00  0.00    +0.025 A 
ATOM      6  C   UNL     1      -0.974  -2.725  -2.300  0.00  0.00    +0.002 A 
ATOM      7  C   UNL     1      -0.616  -2.191  -3.524  0.00  0.00    +0.000 A 
ATOM      8  C   UNL     1      -0.200  -0.875  -3.613  0.00  0.00    +0.002 A 
ATOM      9  C   UNL     1      -0.140  -0.090  -2.478  0.00  0.00    +0.025 A 
ENDBRANCH   3   4
BRANCH   3  10
ATOM     10  S   UNL     1      -0.580   1.813  -0.216  0.00  0.00    +0.075 S 
ATOM     11  O   UNL     1      -1.259   2.075  -1.437  0.00  0.00    -0.150 OA
ATOM     12  O   UNL     1      -1.064   2.271   1.039  0.00  0.00    -0.150 OA
BRANCH  10  17
ATOM     13  C   UNL     1       4.994   4.040  -0.831  0.00  0.00    +0.044 C 
ATOM     14  C   UNL     1       3.602   3.484  -0.677  0.00  0.00    -0.050 A 
ATOM     15  C   UNL     1       2.823   3.253  -1.795  0.00  0.00    +0.005 A 
ATOM     16  C   UNL     1       1.546   2.743  -1.655  0.00  0.00    +0.029 A 
ATOM     17  C   UNL     1       1.048   2.463  -0.396  0.00  0.00    +0.109 A 
ATOM     18  C   UNL     1       1.825   2.699   0.723  0.00  0.00    +0.029 A 
ATOM     19  C   UNL     1       3.104   3.205   0.582  0.00  0.00    +0.005 A 
ENDBRANCH  10  17
ENDBRANCH   3  10
ENDBRANCH   2   3
ENDBRANCH   1   2
BRANCH   1  20
ATOM     20  C   UNL     1      -1.414  -1.555   3.135  0.00  0.00    +0.042 C 
BRANCH  20  21
ATOM     21  C   UNL     1      -2.751  -1.991   3.679  0.00  0.00    +0.014 A 
ATOM     22  C   UNL     1      -3.246  -3.252   3.410  0.00  0.00    +0.048 A 
ATOM     23  N   UNL     1      -4.424  -3.605   3.903  0.00  0.00    -0.220 NA
ATOM     24  C   UNL     1      -5.130  -2.765   4.647  0.00  0.00    +0.214 A 
ATOM     25  N   UNL     1      -4.691  -1.548   4.927  0.00  0.00    -0.199 NA
ATOM     26  C   UNL     1      -3.514  -1.131   4.471  0.00  0.00    +0.131 A 
ATOM     27  N   UNL     1      -6.356  -3.171   5.142  0.00  0.00    -0.327 N 
ATOM     28  C   UNL     1      -2.454  -4.217   2.565  0.00  0.00    +0.066 C 
ATOM     29  H   UNL     1      -6.690  -4.061   4.944  0.00  0.00    +0.145 HD
ATOM     30  H   UNL     1      -6.883  -2.567   5.688  0.00  0.00    +0.145 HD
BRANCH  26  31
ATOM     31  N   UNL     1      -3.054   0.142   4.771  0.00  0.00    -0.299 N 
ATOM     32  H   UNL     1      -2.165   0.415   4.495  0.00  0.00    +0.154 HD
BRANCH  31  33
ATOM     33  C   UNL     1      -3.873   1.034   5.471  0.00  0.00    +0.032 A 
ATOM     34  C   UNL     1      -5.248   1.014   5.279  0.00  0.00    +0.023 A 
ATOM     35  C   UNL     1      -6.054   1.893   5.976  0.00  0.00    +0.002 A 
ATOM     36  C   UNL     1      -5.492   2.799   6.856  0.00  0.00    +0.000 A 
ATOM     37  C   UNL     1      -4.122   2.825   7.047  0.00  0.00    +0.002 A 
ATOM     38  C   UNL     1      -3.311   1.945   6.357  0.00  0.00    +0.023 A 
ENDBRANCH  31  33
ENDBRANCH  26  31
ENDBRANCH  20  21
ENDBRANCH   1  20
TORSDOF 9
