REMARK  Name = ZINC01853305
REMARK  14 active torsions:
REMARK  status: ('A' for Active; 'I' for Inactive)
REMARK    1  A    between atoms: C_1  and  C_2
REMARK    2  A    between atoms: C_2  and  C_3
REMARK    3  A    between atoms: C_2  and  C_4
REMARK    4  A    between atoms: C_2  and  C_5
REMARK    5  A    between atoms: C_8  and  C_11
REMARK    6  A    between atoms: C_14  and  S_24
REMARK    7  A    between atoms: N_15  and  C_16
REMARK    8  A    between atoms: C_19  and  O_22
REMARK    9  A    between atoms: O_22  and  C_23
REMARK   10  A    between atoms: S_24  and  C_25
REMARK   11  A    between atoms: C_25  and  C_26
REMARK   12  A    between atoms: N_28  and  N_29
REMARK   13  A    between atoms: N_29  and  C_30
REMARK   14  A    between atoms: C_30  and  C_32
REMARK                            x       y       z     vdW  Elec       q    Type
REMARK                         _______ _______ _______ _____ _____    ______ ____
ROOT
ATOM      1  C   UNL     1       2.696  -1.860  -4.732  0.00  0.00    +0.169 A 
ATOM      2  N   UNL     1       2.293  -2.819  -5.534  0.00  0.00    -0.128 NA
ATOM      3  N   UNL     1       3.135  -2.973  -6.493  0.00  0.00    -0.122 NA
ATOM      4  C   UNL     1       4.129  -2.122  -6.363  0.00  0.00    +0.197 A 
ATOM      5  N   UNL     1       3.882  -1.379  -5.241  0.00  0.00    -0.270 N 
ENDROOT
BRANCH   1   9
ATOM      6  C   UNL     1       0.707  -0.490  -1.238  0.00  0.00    -0.042 A 
ATOM      7  C   UNL     1       0.033  -1.285  -2.147  0.00  0.00    +0.005 A 
ATOM      8  C   UNL     1       0.672  -1.733  -3.284  0.00  0.00    +0.012 A 
ATOM      9  C   UNL     1       2.004  -1.383  -3.516  0.00  0.00    +0.020 A 
ATOM     10  C   UNL     1       2.679  -0.581  -2.595  0.00  0.00    +0.012 A 
ATOM     11  C   UNL     1       2.025  -0.135  -1.464  0.00  0.00    +0.005 A 
BRANCH   6  13
ATOM     12  C   UNL     1      -0.019   1.526   0.010  0.00  0.00    +0.015 C 
ATOM     13  C   UNL     1       0.002  -0.004   0.002  0.00  0.00    -0.013 C 
ATOM     14  C   UNL     1       0.742  -0.511   1.242  0.00  0.00    +0.015 C 
ATOM     15  C   UNL     1      -1.433  -0.534   0.013  0.00  0.00    +0.015 C 
ENDBRANCH   6  13
ENDBRANCH   1   9
BRANCH   5  16
ATOM     16  C   UNL     1       4.673  -0.346  -4.717  0.00  0.00    +0.051 A 
ATOM     17  C   UNL     1       4.181   0.951  -4.670  0.00  0.00    +0.030 A 
ATOM     18  C   UNL     1       4.960   1.967  -4.154  0.00  0.00    +0.047 A 
ATOM     19  C   UNL     1       6.235   1.692  -3.682  0.00  0.00    +0.120 A 
ATOM     20  C   UNL     1       6.728   0.396  -3.729  0.00  0.00    +0.047 A 
ATOM     21  C   UNL     1       5.947  -0.622  -4.239  0.00  0.00    +0.030 A 
BRANCH  19  22
ATOM     22  O   UNL     1       7.002   2.693  -3.175  0.00  0.00    -0.495 OA
ATOM     23  C   UNL     1       8.305   2.339  -2.707  0.00  0.00    +0.277 C 
ENDBRANCH  19  22
ENDBRANCH   5  16
BRANCH   4  24
ATOM     24  S   UNL     1       5.516  -1.963  -7.438  0.00  0.00    -0.076 S 
BRANCH  24  25
ATOM     25  C   UNL     1       5.229  -3.221  -8.713  0.00  0.00    +0.174 C 
BRANCH  25  26
ATOM     26  C   UNL     1       6.358  -3.191  -9.711  0.00  0.00    +0.239 C 
ATOM     27  O   UNL     1       7.267  -2.400  -9.574  0.00  0.00    -0.273 OA
ATOM     28  N   UNL     1       6.358  -4.045 -10.754  0.00  0.00    -0.236 N 
ATOM     29  H   UNL     1       5.632  -4.678 -10.863  0.00  0.00    +0.173 HD
BRANCH  28  30
ATOM     30  N   UNL     1       7.408  -4.017 -11.681  0.00  0.00    -0.264 N 
ATOM     31  H   UNL     1       8.135  -3.384 -11.572  0.00  0.00    +0.170 HD
BRANCH  30  32
ATOM     32  C   UNL     1       7.408  -4.901 -12.761  0.00  0.00    +0.044 C 
ATOM     33  C   UNL     1       6.409  -5.771 -12.911  0.00  0.00    +0.035 C 
BRANCH  32  34
ATOM     34  C   UNL     1       8.518  -4.872 -13.741  0.00  0.00    -0.003 A 
ATOM     35  C   UNL     1       9.568  -3.966 -13.584  0.00  0.00    +0.011 A 
ATOM     36  C   UNL     1      10.599  -3.944 -14.500  0.00  0.00    +0.016 A 
ATOM     37  C   UNL     1      10.594  -4.817 -15.574  0.00  0.00    +0.018 A 
ATOM     38  C   UNL     1       9.555  -5.718 -15.735  0.00  0.00    +0.016 A 
ATOM     39  C   UNL     1       8.521  -5.753 -14.822  0.00  0.00    +0.011 A 
ATOM     40 BR   UNL     1      12.010  -4.780 -16.826  0.00  0.00    -0.050 Br
ENDBRANCH  32  34
ENDBRANCH  30  32
ENDBRANCH  28  30
ENDBRANCH  25  26
ENDBRANCH  24  25
ENDBRANCH   4  24
TORSDOF 10
