REMARK  Name = ZINC08622526
REMARK  4 active torsions:
REMARK  status: ('A' for Active; 'I' for Inactive)
REMARK    1  A    between atoms: C_16  and  C_19
REMARK    2  A    between atoms: C_22  and  C_24
REMARK    3  A    between atoms: C_27  and  S_30
REMARK    4  A    between atoms: S_30  and  N_33
REMARK                            x       y       z     vdW  Elec       q    Type
REMARK                         _______ _______ _______ _____ _____    ______ ____
ROOT
ATOM      1  C   UNL     1      -0.017   1.378   0.010  0.00  0.00    +0.001 A 
ATOM      2  C   UNL     1       1.170   2.092   0.002  0.00  0.00    +0.002 A 
ATOM      3  C   UNL     1       2.388   1.439  -0.024  0.00  0.00    +0.024 A 
ATOM      4  C   UNL     1       2.427   0.054  -0.038  0.00  0.00    +0.040 A 
ATOM      5  C   UNL     1       1.219  -0.669  -0.011  0.00  0.00    +0.038 A 
ATOM      6  C   UNL     1       0.002  -0.004   0.002  0.00  0.00    +0.013 A 
ATOM      7  C   UNL     1       1.325  -2.141   0.036  0.00  0.00    +0.145 A 
ATOM      8  N   UNL     1       0.401  -3.051  -0.100  0.00  0.00    -0.227 NA
ATOM      9  C   UNL     1       0.961  -4.271  -0.015  0.00  0.00    +0.090 A 
ATOM     10  C   UNL     1       0.412  -5.557  -0.104  0.00  0.00    +0.030 A 
ATOM     11  C   UNL     1       1.276  -6.616   0.022  0.00  0.00    +0.002 A 
ATOM     12  C   UNL     1       2.634  -6.439   0.227  0.00  0.00    +0.002 A 
ATOM     13  C   UNL     1       3.205  -5.181   0.321  0.00  0.00    +0.028 A 
ATOM     14  C   UNL     1       2.353  -4.089   0.201  0.00  0.00    +0.071 A 
ATOM     15  N   UNL     1       2.554  -2.745   0.250  0.00  0.00    -0.297 N 
ATOM     16  C   UNL     1       3.774  -1.972   0.500  0.00  0.00    +0.241 C 
ATOM     17  N   UNL     1       3.634  -0.637  -0.098  0.00  0.00    -0.317 N 
ATOM     18  H   UNL     1       4.395  -0.231  -0.541  0.00  0.00    +0.148 HD
ENDROOT
BRANCH  16  19
ATOM     19  C   UNL     1       3.990  -1.838   1.985  0.00  0.00    +0.147 A 
ATOM     20  C   UNL     1       4.842  -2.575   2.725  0.00  0.00    +0.049 A 
ATOM     21  C   UNL     1       4.729  -2.125   4.055  0.00  0.00    +0.050 A 
ATOM     22  C   UNL     1       3.805  -1.129   4.055  0.00  0.00    +0.135 A 
ATOM     23  O   UNL     1       3.369  -0.962   2.791  0.00  0.00    -0.456 OA
BRANCH  22  24
ATOM     24  C   UNL     1       3.359  -0.358   5.234  0.00  0.00    +0.017 A 
ATOM     25  C   UNL     1       3.903  -0.625   6.492  0.00  0.00    +0.013 A 
ATOM     26  C   UNL     1       3.483   0.098   7.589  0.00  0.00    +0.029 A 
ATOM     27  C   UNL     1       2.525   1.087   7.445  0.00  0.00    +0.105 A 
ATOM     28  C   UNL     1       1.982   1.356   6.201  0.00  0.00    +0.029 A 
ATOM     29  C   UNL     1       2.398   0.645   5.095  0.00  0.00    +0.013 A 
BRANCH  27  30
ATOM     30  S   UNL     1       1.994   2.005   8.852  0.00  0.00    +0.056 S 
ATOM     31  O   UNL     1       0.697   2.499   8.548  0.00  0.00    -0.153 OA
ATOM     32  O   UNL     1       2.254   1.194   9.989  0.00  0.00    -0.153 OA
BRANCH  30  33
ATOM     33  N   UNL     1       2.986   3.326   8.977  0.00  0.00    -0.204 NA
ATOM     34  H   UNL     1       2.650   4.150   9.361  0.00  0.00    +0.144 HD
ATOM     35  H   UNL     1       3.903   3.275   8.665  0.00  0.00    +0.144 HD
ENDBRANCH  30  33
ENDBRANCH  27  30
ENDBRANCH  22  24
ENDBRANCH  16  19
TORSDOF 4
