REMARK  Name = ZINC32745126
REMARK  4 active torsions:
REMARK  status: ('A' for Active; 'I' for Inactive)
REMARK    1  A    between atoms: C_1  and  C_2
REMARK    2  A    between atoms: C_2  and  C_4
REMARK    3  A    between atoms: C_4  and  C_5
REMARK    4  A    between atoms: C_5  and  N_6
REMARK                            x       y       z     vdW  Elec       q    Type
REMARK                         _______ _______ _______ _____ _____    ______ ____
ROOT
ATOM      1  N   UNL     1      -3.329  -0.503   0.194  0.00  0.00    -0.224 N 
ATOM      2  C   UNL     1      -2.219  -0.603   0.958  0.00  0.00    +0.251 C 
ATOM      3  O   UNL     1      -2.128  -0.411   2.152  0.00  0.00    -0.272 OA
ATOM      4  C   UNL     1      -1.120  -1.006   0.010  0.00  0.00    +0.138 C 
ATOM      5  C   UNL     1      -0.496  -2.346   0.419  0.00  0.00    +0.045 C 
ATOM      6  C   UNL     1       0.974  -2.169  -0.023  0.00  0.00    +0.038 C 
ATOM      7  C   UNL     1       1.215  -0.674  -0.014  0.00  0.00    -0.042 A 
ATOM      8  C   UNL     1       0.002  -0.004   0.002  0.00  0.00    -0.012 A 
ATOM      9  C   UNL     1      -0.017   1.381   0.010  0.00  0.00    +0.006 A 
ATOM     10  C   UNL     1       1.166   2.094   0.002  0.00  0.00    +0.000 A 
ATOM     11  C   UNL     1       2.375   1.425  -0.013  0.00  0.00    +0.000 A 
ATOM     12  C   UNL     1       2.398   0.044  -0.021  0.00  0.00    +0.004 A 
ATOM     13  N   UNL     1      -1.775  -1.099  -1.295  0.00  0.00    -0.281 N 
ATOM     14  C   UNL     1      -3.070  -0.787  -1.089  0.00  0.00    +0.310 C 
ATOM     15  O   UNL     1      -3.909  -0.765  -1.968  0.00  0.00    -0.252 OA
ATOM     16  H   UNL     1      -1.192  -1.381  -2.184  0.00  0.00    +0.152 HD
ENDROOT
BRANCH   1  17
ATOM     17  C   UNL     1      -4.650  -0.131   0.706  0.00  0.00    +0.125 C 
BRANCH  17  18
ATOM     18  C   UNL     1      -4.814   1.389   0.636  0.00  0.00    +0.093 C 
BRANCH  18  20
ATOM     19  C   UNL     1      -6.585   3.222   1.200  0.00  0.00    +0.086 C 
ATOM     20  C   UNL     1      -6.173   1.773   1.162  0.00  0.00    +0.132 C 
ATOM     21  O   UNL     1      -6.932   0.919   1.552  0.00  0.00    -0.298 OA
ENDBRANCH  18  20
ENDBRANCH  17  18
ENDBRANCH   1  17
TORSDOF 3
