REMARK  Name = ZINC39675112
REMARK  9 active torsions:
REMARK  status: ('A' for Active; 'I' for Inactive)
REMARK    1  A    between atoms: C_1  and  C_2
REMARK    2  A    between atoms: C_4  and  C_37
REMARK    3  A    between atoms: N_5  and  C_7
REMARK    4  A    between atoms: C_7  and  C_8
REMARK    5  A    between atoms: C_8  and  N_9
REMARK    6  A    between atoms: C_10  and  C_12
REMARK    7  A    between atoms: C_23  and  C_25
REMARK    8  A    between atoms: C_32  and  C_36
REMARK    9  A    between atoms: N_34  and  C_35
REMARK                            x       y       z     vdW  Elec       q    Type
REMARK                         _______ _______ _______ _____ _____    ______ ____
ROOT
ATOM      1  C   UNL     1       2.711  -7.235   3.775  0.00  0.00    +0.100 C 
ATOM      2  C   UNL     1       2.143  -6.673   5.098  0.00  0.00    +0.121 C 
ATOM      3  N   UNL     1       3.005  -7.256   6.153  0.00  0.00    -0.296 N 
ATOM      4  C   UNL     1       4.370  -7.220   5.576  0.00  0.00    +0.115 C 
ATOM      5  C   UNL     1       4.173  -7.592   4.093  0.00  0.00    -0.004 C 
ATOM      6  C   UNL     1       4.408  -9.085   3.888  0.00  0.00    -0.010 C 
ATOM      7  C   UNL     1       5.882  -9.406   4.155  0.00  0.00    -0.082 C 
ATOM      8  N   UNL     1       6.727  -8.627   3.242  0.00  0.00    +0.379 N 
ATOM      9  C   UNL     1       6.563  -7.193   3.509  0.00  0.00    -0.082 C 
ATOM     10  C   UNL     1       5.119  -6.779   3.215  0.00  0.00    -0.010 C 
ATOM     11  C   UNL     1       2.632  -7.716   7.364  0.00  0.00    +0.250 C 
ATOM     12  O   UNL     1       3.474  -8.081   8.161  0.00  0.00    -0.270 OA
ATOM     13  H   UNL     1       7.693  -8.885   3.378  0.00  0.00    -0.086 HD
ATOM     14  H   UNL     1       6.460  -8.823   2.289  0.00  0.00    -0.086 HD
ENDROOT
BRANCH  11  15
ATOM     15  C   UNL     1       1.201  -7.777   7.721  0.00  0.00    +0.074 A 
ATOM     16  C   UNL     1       0.313  -6.793   7.267  0.00  0.00    +0.127 A 
ATOM     17  N   UNL     1      -0.962  -6.829   7.573  0.00  0.00    -0.235 NA
ATOM     18  C   UNL     1      -1.477  -7.796   8.326  0.00  0.00    +0.160 A 
ATOM     19  C   UNL     1      -0.650  -8.825   8.822  0.00  0.00    +0.060 A 
ATOM     20  C   UNL     1       0.714  -8.821   8.512  0.00  0.00    +0.067 A 
ATOM     21 CL   UNL     1       1.768 -10.070   9.095  0.00  0.00    -0.082 Cl
ATOM     22  C   UNL     1      -1.513  -9.710   9.598  0.00  0.00    +0.071 A 
ATOM     23  N   UNL     1      -2.721  -9.227   9.547  0.00  0.00    -0.174 NA
ATOM     24  N   UNL     1      -2.739  -8.059   8.779  0.00  0.00    -0.249 N 
ATOM     25  C   UNL     1      -3.924  -7.243   8.504  0.00  0.00    +0.174 C 
ATOM     26  C   UNL     1      -1.083 -10.958  10.326  0.00  0.00    +0.068 C 
ENDBRANCH  11  15
BRANCH   1  28
ATOM     27  N   UNL     1       2.524  -6.561   1.402  0.00  0.00    -0.313 N 
ATOM     28  C   UNL     1       2.650  -6.189   2.692  0.00  0.00    +0.218 C 
ATOM     29  O   UNL     1       2.714  -5.013   2.980  0.00  0.00    -0.275 OA
ATOM     30  H   UNL     1       2.472  -7.502   1.172  0.00  0.00    +0.149 HD
BRANCH  27  31
ATOM     31  C   UNL     1       2.464  -5.544   0.349  0.00  0.00    +0.127 C 
BRANCH  31  32
ATOM     32  C   UNL     1       2.322  -6.228  -1.012  0.00  0.00    +0.162 C 
BRANCH  32  37
ATOM     33  C   UNL     1       0.513  -2.878  -4.283  0.00  0.00    +0.067 C 
ATOM     34  C   UNL     1       1.450  -3.751  -3.489  0.00  0.00    +0.060 A 
ATOM     35  C   UNL     1       2.842  -3.790  -3.618  0.00  0.00    +0.047 A 
ATOM     36  C   UNL     1       3.317  -4.696  -2.732  0.00  0.00    +0.036 A 
ATOM     37  N   UNL     1       2.262  -5.211  -2.065  0.00  0.00    -0.267 N 
ATOM     38  N   UNL     1       1.102  -4.598  -2.554  0.00  0.00    -0.176 NA
ATOM     39  C   UNL     1       4.763  -5.064  -2.526  0.00  0.00    +0.065 C 
ENDBRANCH  32  37
ENDBRANCH  31  32
ENDBRANCH  27  31
ENDBRANCH   1  28
TORSDOF 5
