REMARK  Name = ZINC28792426
REMARK  4 active torsions:
REMARK  status: ('A' for Active; 'I' for Inactive)
REMARK    1  A    between atoms: C_4  and  C_7
REMARK    2  A    between atoms: C_9  and  C_12
REMARK    3  A    between atoms: N_14  and  N_15
REMARK    4  A    between atoms: C_16  and  C_18
REMARK                            x       y       z     vdW  Elec       q    Type
REMARK                         _______ _______ _______ _____ _____    ______ ____
ROOT
ATOM      1  C   UNL     1       5.874  -3.646  -0.083  0.00  0.00    +0.282 C 
ATOM      2  O   UNL     1       5.178  -4.642  -0.086  0.00  0.00    -0.267 OA
ATOM      3  N   UNL     1       7.217  -3.763  -0.095  0.00  0.00    -0.229 N 
ATOM      4  H   UNL     1       7.772  -2.967  -0.093  0.00  0.00    +0.173 HD
ENDROOT
BRANCH   1   7
ATOM      5  C   UNL     1       3.696  -0.685  -0.037  0.00  0.00    +0.168 A 
ATOM      6  C   UNL     1       3.860  -2.034  -0.052  0.00  0.00    +0.086 A 
ATOM      7  C   UNL     1       5.246  -2.302  -0.066  0.00  0.00    +0.170 A 
ATOM      8  N   UNL     1       5.881  -1.154  -0.060  0.00  0.00    -0.073 NA
ATOM      9  O   UNL     1       4.916  -0.118  -0.047  0.00  0.00    -0.354 OA
BRANCH   5  13
ATOM     10  C   UNL     1      -0.017   1.379   0.010  0.00  0.00    +0.000 A 
ATOM     11  C   UNL     1       1.168   2.093   0.002  0.00  0.00    +0.001 A 
ATOM     12  C   UNL     1       2.377   1.429  -0.013  0.00  0.00    +0.011 A 
ATOM     13  C   UNL     1       2.403   0.034  -0.021  0.00  0.00    +0.020 A 
ATOM     14  C   UNL     1       1.204  -0.681  -0.013  0.00  0.00    +0.011 A 
ATOM     15  C   UNL     1       0.002  -0.004   0.002  0.00  0.00    +0.001 A 
ENDBRANCH   5  13
ENDBRANCH   1   7
BRANCH   3  16
ATOM     16  N   UNL     1       7.810  -5.032  -0.112  0.00  0.00    -0.231 N 
ATOM     17  C   UNL     1       9.152  -5.148  -0.124  0.00  0.00    +0.270 C 
ATOM     18  O   UNL     1       9.847  -4.154  -0.120  0.00  0.00    -0.270 OA
ATOM     19  H   UNL     1       7.254  -5.827  -0.114  0.00  0.00    +0.173 HD
BRANCH  17  20
ATOM     20  C   UNL     1       9.790  -6.513  -0.141  0.00  0.00    +0.264 C 
ATOM     21  C   UNL     1       9.532  -7.256   1.191  0.00  0.00    +0.093 C 
ATOM     22  C   UNL     1      10.836  -8.005   1.390  0.00  0.00    -0.000 A 
ATOM     23  C   UNL     1      11.183  -9.053   2.213  0.00  0.00    +0.027 A 
ATOM     24  C   UNL     1      12.472  -9.557   2.184  0.00  0.00    +0.041 A 
ATOM     25  C   UNL     1      13.407  -9.004   1.326  0.00  0.00    +0.023 A 
ATOM     26  C   UNL     1      13.061  -7.952   0.504  0.00  0.00    +0.047 A 
ATOM     27  C   UNL     1      11.767  -7.437   0.530  0.00  0.00    +0.125 A 
ATOM     28  O   UNL     1      11.224  -6.405  -0.178  0.00  0.00    -0.479 OA
ATOM     29 CL   UNL     1      12.915 -10.879   3.219  0.00  0.00    -0.084 Cl
ENDBRANCH  17  20
ENDBRANCH   3  16
TORSDOF 4
