REMARK  Name = ZINC10812720
REMARK  4 active torsions:
REMARK  status: ('A' for Active; 'I' for Inactive)
REMARK    1  A    between atoms: C_6  and  C_7
REMARK    2  A    between atoms: C_13  and  C_15
REMARK    3  A    between atoms: N_21  and  S_22
REMARK    4  A    between atoms: S_22  and  C_25
REMARK                            x       y       z     vdW  Elec       q    Type
REMARK                         _______ _______ _______ _____ _____    ______ ____
ROOT
ATOM      1  C   UNL     1       5.854   1.560  -0.575  0.00  0.00    +0.250 A 
ATOM      2  N   UNL     1       5.307   2.752  -0.599  0.00  0.00    -0.106 NA
ATOM      3  N   UNL     1       4.029   2.637  -0.500  0.00  0.00    -0.092 NA
ATOM      4  C   UNL     1       3.711   1.368  -0.410  0.00  0.00    +0.314 A 
ATOM      5  O   UNL     1       4.855   0.660  -0.451  0.00  0.00    -0.405 OA
ATOM      6  N   UNL     1       2.430   0.851  -0.290  0.00  0.00    -0.237 N 
ATOM      7  C   UNL     1       1.369   1.681  -0.257  0.00  0.00    +0.239 C 
ATOM      8  O   UNL     1       1.534   2.880  -0.333  0.00  0.00    -0.274 OA
ATOM      9  H   UNL     1       2.298  -0.108  -0.230  0.00  0.00    +0.159 HD
ENDROOT
BRANCH   1  15
ATOM     10  C   UNL     1       7.741  -0.065  -0.619  0.00  0.00    +0.016 A 
ATOM     11  C   UNL     1       9.089  -0.342  -0.707  0.00  0.00    +0.039 A 
ATOM     12  C   UNL     1      10.005   0.692  -0.827  0.00  0.00    +0.123 A 
ATOM     13  C   UNL     1       9.571   2.008  -0.867  0.00  0.00    +0.039 A 
ATOM     14  C   UNL     1       8.224   2.295  -0.785  0.00  0.00    +0.016 A 
ATOM     15  C   UNL     1       7.298   1.258  -0.663  0.00  0.00    +0.039 A 
ATOM     16  F   UNL     1      11.325   0.416  -0.907  0.00  0.00    -0.205 F 
ENDBRANCH   1  15
BRANCH   7  17
ATOM     17  C   UNL     1      -0.023   1.119  -0.126  0.00  0.00    +0.166 C 
ATOM     18  C   UNL     1      -0.835   1.461  -1.379  0.00  0.00    +0.030 C 
ATOM     19  C   UNL     1      -2.284   1.007  -1.184  0.00  0.00    +0.003 C 
ATOM     20  C   UNL     1      -2.896   1.748   0.007  0.00  0.00    +0.017 C 
ATOM     21  C   UNL     1      -2.107   1.409   1.276  0.00  0.00    +0.110 C 
ATOM     22  N   UNL     1      -0.685   1.708   1.046  0.00  0.00    -0.164 NA
BRANCH  22  23
ATOM     23  S   UNL     1       0.153   2.692   2.082  0.00  0.00    +0.068 S 
ATOM     24  O   UNL     1      -0.512   2.622   3.335  0.00  0.00    -0.152 OA
ATOM     25  O   UNL     1       1.528   2.365   1.929  0.00  0.00    -0.152 OA
BRANCH  23  26
ATOM     26  C   UNL     1      -0.038   4.344   1.501  0.00  0.00    +0.144 A 
ATOM     27  C   UNL     1      -0.993   5.253   1.815  0.00  0.00    +0.038 A 
ATOM     28  C   UNL     1      -0.945   6.506   1.231  0.00  0.00    +0.030 A 
ATOM     29  C   UNL     1       0.058   6.787   0.362  0.00  0.00    +0.080 A 
ATOM     30  S   UNL     1       0.980   5.258   0.354  0.00  0.00    -0.057 S 
ATOM     31 CL   UNL     1       0.369   8.255  -0.510  0.00  0.00    -0.076 Cl
ENDBRANCH  23  26
ENDBRANCH  22  23
ENDBRANCH   7  17
TORSDOF 4
