REMARK  Name = ZINC20646104
REMARK  3 active torsions:
REMARK  status: ('A' for Active; 'I' for Inactive)
REMARK    1  A    between atoms: N_13  and  C_14
REMARK    2  A    between atoms: C_14  and  C_15
REMARK    3  A    between atoms: C_18  and  C_21
REMARK                            x       y       z     vdW  Elec       q    Type
REMARK                         _______ _______ _______ _____ _____    ______ ____
ROOT
ATOM      1  C   UNL     1      -1.111  -5.025  -0.016  0.00  0.00    +0.006 C 
ATOM      2  C   UNL     1      -1.789  -4.683   1.313  0.00  0.00    +0.006 C 
ATOM      3  C   UNL     1      -3.203  -5.267   1.329  0.00  0.00    +0.013 C 
ATOM      4  C   UNL     1      -3.130  -6.787   1.170  0.00  0.00    +0.075 C 
ATOM      5  C   UNL     1      -2.452  -7.128  -0.158  0.00  0.00    +0.013 C 
ATOM      6  C   UNL     1      -1.038  -6.545  -0.175  0.00  0.00    +0.006 C 
ENDROOT
BRANCH   4   7
ATOM      7  C   UNL     1      -4.523  -7.361   1.187  0.00  0.00    +0.219 C 
ATOM      8  O   UNL     1      -5.170  -7.410   0.162  0.00  0.00    -0.275 OA
ATOM      9  N   UNL     1      -5.049  -7.821   2.339  0.00  0.00    -0.298 N 
ATOM     10  C   UNL     1      -4.329  -7.652   3.609  0.00  0.00    +0.126 C 
ATOM     11  C   UNL     1      -5.250  -6.932   4.602  0.00  0.00    +0.125 C 
ATOM     12  N   UNL     1      -6.553  -7.611   4.611  0.00  0.00    -0.314 N 
ATOM     13  C   UNL     1      -7.273  -7.779   3.341  0.00  0.00    +0.125 C 
ATOM     14  C   UNL     1      -6.355  -8.495   2.349  0.00  0.00    +0.126 C 
ATOM     15  C   UNL     1      -7.096  -8.085   5.800  0.00  0.00    +0.099 A 
ATOM     16  C   UNL     1      -6.460  -7.809   7.006  0.00  0.00    +0.042 A 
ATOM     17  C   UNL     1      -7.011  -8.287   8.181  0.00  0.00    +0.005 A 
ATOM     18  C   UNL     1      -8.183  -9.028   8.111  0.00  0.00    +0.018 A 
ATOM     19  C   UNL     1      -8.761  -9.264   6.879  0.00  0.00    +0.084 A 
ATOM     20  N   UNL     1      -8.216  -8.790   5.774  0.00  0.00    -0.350 N 
ATOM     21  H   UNL     1      -8.644  -8.967   4.922  0.00  0.00    +0.166 HD
ENDBRANCH   4   7
BRANCH   1  22
ATOM     22  C   UNL     1       0.303  -4.442  -0.032  0.00  0.00    +0.106 C 
BRANCH  22  35
ATOM     23  C   UNL     1       0.119   1.304   0.091  0.00  0.00    +0.001 A 
ATOM     24  C   UNL     1       1.318   2.003   0.083  0.00  0.00    +0.002 A 
ATOM     25  C   UNL     1       2.523   1.333   0.044  0.00  0.00    +0.026 A 
ATOM     26  C   UNL     1       2.538  -0.054   0.015  0.00  0.00    +0.052 A 
ATOM     27  C   UNL     1       1.323  -0.765   0.024  0.00  0.00    +0.038 A 
ATOM     28  C   UNL     1       0.113  -0.073   0.062  0.00  0.00    +0.013 A 
ATOM     29  C   UNL     1       1.379  -2.233  -0.008  0.00  0.00    +0.131 A 
ATOM     30  N   UNL     1       2.565  -2.820  -0.044  0.00  0.00    -0.207 NA
ATOM     31  C   UNL     1       3.696  -2.115  -0.051  0.00  0.00    +0.179 A 
ATOM     32  S   UNL     1       5.185  -2.959  -0.099  0.00  0.00    -0.011 S 
ATOM     33  N   UNL     1       3.720  -0.771  -0.024  0.00  0.00    -0.333 N 
ATOM     34  H   UNL     1       4.569  -0.302  -0.031  0.00  0.00    +0.168 HD
ATOM     35  N   UNL     1       0.228  -2.979  -0.000  0.00  0.00    -0.328 N 
ATOM     36  H   UNL     1      -0.635  -2.538   0.026  0.00  0.00    +0.147 HD
ENDBRANCH  22  35
ENDBRANCH   1  22
TORSDOF 3
