REMARK  Name = ZINC12965095
REMARK  4 active torsions:
REMARK  status: ('A' for Active; 'I' for Inactive)
REMARK    1  A    between atoms: C_1  and  C_2
REMARK    2  A    between atoms: C_9  and  S_11
REMARK    3  A    between atoms: S_11  and  C_12
REMARK    4  A    between atoms: N_22  and  O_23
REMARK                            x       y       z     vdW  Elec       q    Type
REMARK                         _______ _______ _______ _____ _____    ______ ____
ROOT
ATOM      1  C   UNL     1      -0.018   1.503   0.010  0.00  0.00    +0.044 C 
ATOM      2  C   UNL     1       0.002  -0.004   0.002  0.00  0.00    -0.048 A 
ATOM      3  C   UNL     1       0.006  -0.686  -1.206  0.00  0.00    +0.005 A 
ATOM      4  C   UNL     1       0.024  -2.063  -1.230  0.00  0.00    +0.030 A 
ATOM      5  C   UNL     1       0.040  -2.778  -0.030  0.00  0.00    +0.090 A 
ATOM      6  C   UNL     1       0.037  -2.082   1.190  0.00  0.00    +0.067 A 
ATOM      7  C   UNL     1       0.023  -0.696   1.196  0.00  0.00    +0.031 A 
ATOM      8  N   UNL     1       0.055  -3.047   2.184  0.00  0.00    -0.333 N 
ATOM      9  C   UNL     1       0.069  -4.265   1.566  0.00  0.00    +0.168 A 
ATOM     10  N   UNL     1       0.060  -4.104   0.266  0.00  0.00    -0.222 NA
ATOM     11  H   UNL     1       0.058  -2.887   3.141  0.00  0.00    +0.168 HD
ENDROOT
BRANCH   9  12
ATOM     12  S   UNL     1       0.096  -5.820   2.394  0.00  0.00    -0.078 S 
BRANCH  12  13
ATOM     13  C   UNL     1       0.105  -7.035   1.047  0.00  0.00    +0.105 C 
ATOM     14  C   UNL     1       0.218  -8.481   1.620  0.00  0.00    +0.009 C 
ATOM     15  C   UNL     1       0.477  -9.373   0.368  0.00  0.00    +0.005 C 
ATOM     16  C   UNL     1      -0.855  -9.335  -0.416  0.00  0.00    +0.010 C 
ATOM     17  C   UNL     1      -1.790  -8.431   0.443  0.00  0.00    +0.038 C 
ATOM     18  C   UNL     1      -1.295  -8.784   1.909  0.00  0.00    +0.014 C 
ATOM     19  C   UNL     1      -1.222  -7.010   0.302  0.00  0.00    +0.074 C 
ATOM     20  N   UNL     1      -1.739  -6.024  -0.328  0.00  0.00    -0.095 NA
BRANCH  20  21
ATOM     21  O   UNL     1      -2.992  -6.173  -0.971  0.00  0.00    -0.409 OA
ATOM     22  H   UNL     1      -3.301  -5.375  -1.420  0.00  0.00    +0.328 HD
ENDBRANCH  20  21
ENDBRANCH  12  13
ENDBRANCH   9  12
TORSDOF 3
