REMARK  Name = ZINC04066295
REMARK  7 active torsions:
REMARK  status: ('A' for Active; 'I' for Inactive)
REMARK    1  A    between atoms: C_1  and  C_2
REMARK    2  A    between atoms: C_6  and  O_12
REMARK    3  A    between atoms: C_9  and  C_11
REMARK    4  A    between atoms: O_12  and  C_13
REMARK    5  A    between atoms: C_13  and  C_15
REMARK    6  A    between atoms: C_16  and  C_32
REMARK    7  A    between atoms: C_21  and  C_23
REMARK                            x       y       z     vdW  Elec       q    Type
REMARK                         _______ _______ _______ _____ _____    ______ ____
ROOT
ATOM      1  C   UNL     1      -0.688  -6.034   2.510  0.00  0.00    +0.078 C 
ATOM      2  C   UNL     1      -0.487  -6.673   3.683  0.00  0.00    +0.021 C 
ATOM      3  N   UNL     1      -0.399  -8.035   3.737  0.00  0.00    -0.273 N 
ATOM      4  C   UNL     1      -0.489  -8.828   2.662  0.00  0.00    +0.304 C 
ATOM      5  O   UNL     1      -0.393 -10.031   2.810  0.00  0.00    -0.252 OA
ATOM      6  N   UNL     1      -0.683  -8.337   1.423  0.00  0.00    -0.288 N 
ATOM      7  C   UNL     1      -0.798  -6.878   1.257  0.00  0.00    +0.144 C 
ATOM      8  C   UNL     1      -0.365  -5.871   4.953  0.00  0.00    +0.061 C 
ATOM      9  H   UNL     1      -0.259  -8.450   4.602  0.00  0.00    +0.156 HD
ATOM     10  H   UNL     1      -0.746  -8.930   0.658  0.00  0.00    +0.151 HD
ENDROOT
BRANCH   7  11
ATOM     11  C   UNL     1       0.278  -6.433   0.300  0.00  0.00    -0.019 A 
ATOM     12  C   UNL     1       1.576  -6.877   0.467  0.00  0.00    +0.009 A 
ATOM     13  C   UNL     1       2.566  -6.472  -0.408  0.00  0.00    +0.050 A 
ATOM     14  C   UNL     1       2.260  -5.618  -1.455  0.00  0.00    +0.166 A 
ATOM     15  C   UNL     1       0.952  -5.170  -1.623  0.00  0.00    +0.167 A 
ATOM     16  C   UNL     1      -0.037  -5.585  -0.746  0.00  0.00    +0.055 A 
ATOM     17  O   UNL     1       0.908  -4.350  -2.713  0.00  0.00    -0.453 OA
ATOM     18  C   UNL     1       2.275  -3.975  -2.967  0.00  0.00    +0.466 C 
ATOM     19  O   UNL     1       3.036  -5.078  -2.439  0.00  0.00    -0.453 OA
ENDBRANCH   7  11
BRANCH   1  20
ATOM     20  C   UNL     1      -0.786  -4.624   2.453  0.00  0.00    +0.339 C 
ATOM     21  O   UNL     1      -0.768  -3.971   3.480  0.00  0.00    -0.245 OA
BRANCH  20  22
ATOM     22  O   UNL     1      -0.899  -4.003   1.260  0.00  0.00    -0.458 OA
BRANCH  22  27
ATOM     23  C   UNL     1      -0.620   1.552   0.036  0.00  0.00    +0.008 C 
ATOM     24  C   UNL     1      -0.519   0.025   0.018  0.00  0.00    -0.011 C 
ATOM     25  C   UNL     1       0.308  -0.446   1.216  0.00  0.00    +0.007 C 
ATOM     26  C   UNL     1       0.410  -1.972   1.197  0.00  0.00    +0.045 C 
ATOM     27  C   UNL     1      -0.993  -2.577   1.278  0.00  0.00    +0.177 C 
ATOM     28  C   UNL     1      -1.821  -2.106   0.080  0.00  0.00    +0.048 C 
ATOM     29  C   UNL     1      -1.922  -0.580   0.098  0.00  0.00    -0.008 C 
ATOM     30  C   UNL     1      -2.750  -0.109  -1.099  0.00  0.00    +0.008 C 
ENDBRANCH  22  27
ENDBRANCH  20  22
ENDBRANCH   1  20
TORSDOF 4
