REMARK  Name = ZINC09136662
REMARK  8 active torsions:
REMARK  status: ('A' for Active; 'I' for Inactive)
REMARK    1  A    between atoms: C_8  and  S_10
REMARK    2  A    between atoms: S_10  and  C_11
REMARK    3  A    between atoms: C_11  and  C_12
REMARK    4  A    between atoms: N_14  and  N_15
REMARK    5  A    between atoms: C_16  and  C_17
REMARK    6  A    between atoms: C_20  and  C_22
REMARK    7  A    between atoms: C_25  and  S_28
REMARK    8  A    between atoms: S_28  and  N_31
REMARK                            x       y       z     vdW  Elec       q    Type
REMARK                         _______ _______ _______ _____ _____    ______ ____
ROOT
ATOM      1  N   UNL     1      -6.060   1.342   7.369  0.00  0.00    -0.185 NA
ATOM      2  C   UNL     1      -5.544   2.529   7.512  0.00  0.00    +0.176 C 
ENDROOT
BRANCH   2   3
ATOM      3  C   UNL     1      -4.526   3.003   6.572  0.00  0.00    +0.148 A 
ATOM      4  C   UNL     1      -3.902   4.230   6.608  0.00  0.00    +0.051 A 
ATOM      5  C   UNL     1      -3.007   4.260   5.531  0.00  0.00    +0.050 A 
ATOM      6  C   UNL     1      -3.117   3.064   4.885  0.00  0.00    +0.136 A 
ATOM      7  O   UNL     1      -4.040   2.316   5.519  0.00  0.00    -0.454 OA
BRANCH   6   8
ATOM      8  C   UNL     1      -2.356   2.660   3.687  0.00  0.00    +0.017 A 
ATOM      9  C   UNL     1      -2.561   1.401   3.117  0.00  0.00    +0.013 A 
ATOM     10  C   UNL     1      -1.846   1.030   1.998  0.00  0.00    +0.029 A 
ATOM     11  C   UNL     1      -0.927   1.900   1.439  0.00  0.00    +0.105 A 
ATOM     12  C   UNL     1      -0.714   3.147   2.002  0.00  0.00    +0.029 A 
ATOM     13  C   UNL     1      -1.426   3.534   3.118  0.00  0.00    +0.013 A 
BRANCH  11  14
ATOM     14  S   UNL     1      -0.017   1.417   0.010  0.00  0.00    +0.056 S 
ATOM     15  O   UNL     1       0.002  -0.004   0.002  0.00  0.00    -0.153 OA
ATOM     16  O   UNL     1       1.172   2.195   0.003  0.00  0.00    -0.153 OA
BRANCH  14  17
ATOM     17  N   UNL     1      -0.897   1.885  -1.312  0.00  0.00    -0.204 NA
ATOM     18  H   UNL     1      -1.201   1.223  -1.952  0.00  0.00    +0.144 HD
ATOM     19  H   UNL     1      -1.110   2.822  -1.446  0.00  0.00    +0.144 HD
ENDBRANCH  14  17
ENDBRANCH  11  14
ENDBRANCH   6   8
ENDBRANCH   2   3
BRANCH   1  22
ATOM     20  C   UNL     1      -7.567  -0.341   8.119  0.00  0.00    +0.242 C 
ATOM     21  O   UNL     1      -7.204  -1.054   7.207  0.00  0.00    -0.273 OA
ATOM     22  N   UNL     1      -7.034   0.888   8.268  0.00  0.00    -0.206 N 
ATOM     23  H   UNL     1      -7.324   1.458   8.996  0.00  0.00    +0.177 HD
BRANCH  20  24
ATOM     24  C   UNL     1      -8.615  -0.829   9.086  0.00  0.00    +0.173 C 
BRANCH  24  25
ATOM     25  S   UNL     1      -9.130  -2.502   8.624  0.00  0.00    -0.089 S 
BRANCH  25  33
ATOM     26  C   UNL     1     -13.622  -5.020  12.494  0.00  0.00    +0.002 A 
ATOM     27  C   UNL     1     -13.684  -3.897  13.305  0.00  0.00    +0.001 A 
ATOM     28  C   UNL     1     -12.875  -2.811  13.021  0.00  0.00    +0.017 A 
ATOM     29  C   UNL     1     -12.026  -2.862  11.944  0.00  0.00    +0.040 A 
ATOM     30  C   UNL     1     -11.936  -3.990  11.096  0.00  0.00    +0.079 A 
ATOM     31  C   UNL     1     -12.777  -5.080  11.416  0.00  0.00    +0.029 A 
ATOM     32  N   UNL     1     -11.054  -3.888  10.079  0.00  0.00    -0.233 NA
ATOM     33  C   UNL     1     -10.322  -2.813   9.883  0.00  0.00    +0.136 A 
ATOM     34  S   UNL     1     -10.840  -1.752  11.225  0.00  0.00    -0.061 S 
ENDBRANCH  25  33
ENDBRANCH  24  25
ENDBRANCH  20  24
ENDBRANCH   1  22
TORSDOF 8
