REMARK  Name = ZINC38766846
REMARK  7 active torsions:
REMARK  status: ('A' for Active; 'I' for Inactive)
REMARK    1  A    between atoms: C_1  and  C_2
REMARK    2  A    between atoms: C_8  and  C_16
REMARK    3  A    between atoms: C_19  and  O_24
REMARK    4  A    between atoms: C_20  and  O_22
REMARK    5  A    between atoms: O_22  and  C_23
REMARK    6  A    between atoms: O_24  and  C_25
REMARK    7  A    between atoms: C_25  and  C_26
REMARK                            x       y       z     vdW  Elec       q    Type
REMARK                         _______ _______ _______ _____ _____    ______ ____
ROOT
ATOM      1  C   UNL     1      -2.232  -3.076   0.167  0.00  0.00    -0.039 A 
ATOM      2  C   UNL     1      -2.525  -2.346   1.304  0.00  0.00    +0.008 A 
ATOM      3  C   UNL     1      -3.746  -1.711   1.426  0.00  0.00    +0.050 A 
ATOM      4  C   UNL     1      -4.680  -1.804   0.407  0.00  0.00    +0.162 A 
ATOM      5  C   UNL     1      -4.385  -2.538  -0.738  0.00  0.00    +0.162 A 
ATOM      6  C   UNL     1      -3.157  -3.168  -0.856  0.00  0.00    +0.053 A 
ENDROOT
BRANCH   1  13
ATOM      7  C   UNL     1      -0.146   1.431  -0.939  0.00  0.00    +0.085 C 
ATOM      8  C   UNL     1      -0.092  -0.056  -0.699  0.00  0.00    +0.121 C 
ATOM      9  N   UNL     1      -0.175  -0.835  -1.748  0.00  0.00    -0.165 NA
ATOM     10  C   UNL     1      -0.085  -2.170  -1.655  0.00  0.00    +0.249 C 
ATOM     11  O   UNL     1      -0.213  -2.888  -2.626  0.00  0.00    -0.273 OA
ATOM     12  C   UNL     1       0.187  -2.735  -0.275  0.00  0.00    +0.148 C 
ATOM     13  C   UNL     1      -0.898  -3.767   0.040  0.00  0.00    +0.047 C 
ATOM     14  C   UNL     1      -0.546  -4.459   1.359  0.00  0.00    +0.105 C 
ATOM     15  C   UNL     1      -0.207  -3.453   2.420  0.00  0.00    +0.219 C 
ATOM     16  O   UNL     1      -0.248  -3.800   3.581  0.00  0.00    -0.275 OA
ATOM     17  N   UNL     1       0.140  -2.186   2.141  0.00  0.00    -0.273 N 
ATOM     18  C   UNL     1       0.159  -1.729   0.862  0.00  0.00    +0.116 C 
ATOM     19  N   UNL     1       0.042  -0.464   0.558  0.00  0.00    -0.224 NA
ATOM     20  H   UNL     1       0.396  -1.589   2.861  0.00  0.00    +0.156 HD
ENDBRANCH   1  13
BRANCH   5  21
ATOM     21  O   UNL     1      -5.298  -2.632  -1.741  0.00  0.00    -0.491 OA
ATOM     22  C   UNL     1      -4.927  -3.402  -2.886  0.00  0.00    +0.277 C 
ENDBRANCH   5  21
BRANCH   4  23
ATOM     23  O   UNL     1      -5.882  -1.180   0.525  0.00  0.00    -0.484 OA
BRANCH  23  24
ATOM     24  C   UNL     1      -6.116  -0.445   1.728  0.00  0.00    +0.264 C 
BRANCH  24  25
ATOM     25  C   UNL     1      -7.490   0.173   1.680  0.00  0.00    -0.010 A 
ATOM     26  C   UNL     1      -7.661   1.436   1.143  0.00  0.00    +0.008 A 
ATOM     27  C   UNL     1      -8.921   2.003   1.099  0.00  0.00    +0.020 A 
ATOM     28  C   UNL     1     -10.010   1.307   1.592  0.00  0.00    +0.041 A 
ATOM     29  C   UNL     1      -9.838   0.044   2.130  0.00  0.00    +0.020 A 
ATOM     30  C   UNL     1      -8.579  -0.524   2.168  0.00  0.00    +0.008 A 
ATOM     31 CL   UNL     1     -11.592   2.019   1.538  0.00  0.00    -0.084 Cl
ENDBRANCH  24  25
ENDBRANCH  23  24
ENDBRANCH   4  23
TORSDOF 5
