REMARK  Name = ZINC33042699
REMARK  9 active torsions:
REMARK  status: ('A' for Active; 'I' for Inactive)
REMARK    1  A    between atoms: C_1  and  C_2
REMARK    2  A    between atoms: C_5  and  C_28
REMARK    3  A    between atoms: N_9  and  N_10
REMARK    4  A    between atoms: C_11  and  C_13
REMARK    5  A    between atoms: N_15  and  N_16
REMARK    6  A    between atoms: C_19  and  C_25
REMARK    7  A    between atoms: C_23  and  C_24
REMARK    8  A    between atoms: C_25  and  C_27
REMARK    9  A    between atoms: C_28  and  C_30
REMARK                            x       y       z     vdW  Elec       q    Type
REMARK                         _______ _______ _______ _____ _____    ______ ____
ROOT
ATOM      1  N   UNL     1       0.033   0.883   0.280  0.00  0.00    -0.199 N 
ATOM      2  C   UNL     1       1.171   1.539  -0.021  0.00  0.00    +0.320 C 
ATOM      3  O   UNL     1       1.121   2.665  -0.475  0.00  0.00    -0.263 OA
ATOM      4  H   UNL     1       0.079  -0.135   0.696  0.00  0.00    +0.178 HD
ENDROOT
BRANCH   1  12
ATOM      5  C   UNL     1      -3.711   2.955  -0.170  0.00  0.00    +0.045 C 
ATOM      6  C   UNL     1      -3.622   1.483   0.139  0.00  0.00    -0.032 C 
ATOM      7  C   UNL     1      -4.729   0.758   0.213  0.00  0.00    -0.021 C 
ATOM      8  C   UNL     1      -4.733  -0.708   0.530  0.00  0.00    +0.035 C 
ATOM      9  C   UNL     1      -3.380  -1.344   0.215  0.00  0.00    +0.024 C 
ATOM     10  C   UNL     1      -2.274  -0.544   0.917  0.00  0.00    +0.065 C 
ATOM     11  C   UNL     1      -2.307   0.861   0.350  0.00  0.00    +0.062 C 
ATOM     12  N   UNL     1      -1.208   1.496   0.064  0.00  0.00    -0.184 NA
BRANCH   9  13
ATOM     13  C   UNL     1      -3.365  -2.767   0.711  0.00  0.00    -0.076 C 
ATOM     14  C   UNL     1      -3.164  -3.752  -0.130  0.00  0.00    +0.007 C 
ATOM     15  C   UNL     1      -3.580  -3.058   2.174  0.00  0.00    +0.039 C 
ENDBRANCH   9  13
ENDBRANCH   1  12
BRANCH   2  16
ATOM     16  C   UNL     1       2.490   0.885   0.203  0.00  0.00    +0.320 C 
ATOM     17  O   UNL     1       2.540  -0.241   0.657  0.00  0.00    -0.263 OA
ATOM     18  N   UNL     1       3.628   1.541  -0.098  0.00  0.00    -0.199 N 
ATOM     19  H   UNL     1       3.582   2.560  -0.509  0.00  0.00    +0.178 HD
BRANCH  18  20
ATOM     20  N   UNL     1       4.868   0.925   0.113  0.00  0.00    -0.184 NA
ATOM     21  C   UNL     1       5.967   1.599  -0.065  0.00  0.00    +0.062 C 
ATOM     22  C   UNL     1       7.304   0.897  -0.196  0.00  0.00    +0.065 C 
ATOM     23  C   UNL     1       8.075   1.602  -1.326  0.00  0.00    +0.024 C 
ATOM     24  C   UNL     1       8.313   3.058  -0.930  0.00  0.00    +0.035 C 
ATOM     25  C   UNL     1       7.030   3.730  -0.540  0.00  0.00    -0.021 C 
ATOM     26  C   UNL     1       5.956   3.067  -0.139  0.00  0.00    -0.032 C 
ATOM     27  C   UNL     1       4.710   3.825   0.243  0.00  0.00    +0.045 C 
BRANCH  23  28
ATOM     28  C   UNL     1       9.399   0.914  -1.539  0.00  0.00    -0.076 C 
ATOM     29  C   UNL     1       9.686   0.394  -2.707  0.00  0.00    +0.007 C 
ATOM     30  C   UNL     1      10.392   0.825  -0.409  0.00  0.00    +0.039 C 
ENDBRANCH  23  28
ENDBRANCH  18  20
ENDBRANCH   2  16
TORSDOF 5
