REMARK  Name = ZINC00950308
REMARK  3 active torsions:
REMARK  status: ('A' for Active; 'I' for Inactive)
REMARK    1  A    between atoms: C_10  and  S_11
REMARK    2  A    between atoms: S_11  and  N_14
REMARK    3  A    between atoms: N_14  and  C_15
REMARK                            x       y       z     vdW  Elec       q    Type
REMARK                         _______ _______ _______ _____ _____    ______ ____
ROOT
ATOM      1  N   UNL     1      -1.285   5.920  -0.016  0.00  0.00    -0.216 N 
ATOM      2  H   UNL     1      -1.995   5.528   0.516  0.00  0.00    +0.174 HD
ENDROOT
BRANCH   1   3
ATOM      3  C   UNL     1      -0.103   5.210  -0.236  0.00  0.00    +0.057 A 
ATOM      4  C   UNL     1       1.097   5.864  -0.305  0.00  0.00    +0.044 A 
ATOM      5  C   UNL     1       2.270   5.162  -0.523  0.00  0.00    +0.063 A 
ATOM      6  C   UNL     1       2.313   3.780  -0.683  0.00  0.00    +0.154 A 
ATOM      7  C   UNL     1       1.069   3.092  -0.612  0.00  0.00    +0.027 A 
ATOM      8  C   UNL     1      -0.129   3.806  -0.390  0.00  0.00    +0.008 A 
ATOM      9  C   UNL     1      -1.345   3.103  -0.325  0.00  0.00    +0.010 A 
ATOM     10  C   UNL     1      -1.351   1.751  -0.481  0.00  0.00    +0.001 A 
ATOM     11  C   UNL     1      -0.168   1.047  -0.695  0.00  0.00    +0.001 A 
ATOM     12  C   UNL     1       1.028   1.696  -0.764  0.00  0.00    +0.012 A 
ATOM     13  O   UNL     1       3.541   3.259  -0.886  0.00  0.00    -0.416 OA
ATOM     14  C   UNL     1       4.632   4.040  -0.927  0.00  0.00    +0.379 A 
ATOM     15  O   UNL     1       5.792   3.716  -1.100  0.00  0.00    -0.237 OA
ATOM     16  S   UNL     1       3.978   5.628  -0.672  0.00  0.00    -0.004 S 
ENDBRANCH   1   3
BRANCH   1  17
ATOM     17  S   UNL     1      -1.475   7.432  -0.664  0.00  0.00    +0.073 S 
ATOM     18  O   UNL     1      -1.050   7.350  -2.018  0.00  0.00    -0.150 OA
ATOM     19  O   UNL     1      -2.777   7.870  -0.299  0.00  0.00    -0.150 OA
BRANCH  17  29
ATOM     20  C   UNL     1      -0.642   9.209   4.263  0.00  0.00    +0.001 A 
ATOM     21  C   UNL     1      -1.552   8.363   3.631  0.00  0.00    +0.001 A 
ATOM     22  C   UNL     1      -1.470   8.118   2.295  0.00  0.00    +0.010 A 
ATOM     23  C   UNL     1      -0.454   8.727   1.538  0.00  0.00    +0.009 A 
ATOM     24  C   UNL     1       0.471   9.587   2.181  0.00  0.00    -0.016 A 
ATOM     25  C   UNL     1       0.354   9.815   3.563  0.00  0.00    +0.008 A 
ATOM     26  C   UNL     1       1.487  10.195   1.424  0.00  0.00    +0.008 A 
ATOM     27  C   UNL     1       1.569   9.950   0.088  0.00  0.00    +0.003 A 
ATOM     28  C   UNL     1       0.664   9.099  -0.543  0.00  0.00    +0.029 A 
ATOM     29  C   UNL     1      -0.337   8.498   0.157  0.00  0.00    +0.116 A 
ENDBRANCH  17  29
ENDBRANCH   1  17
TORSDOF 3
