REMARK  Name = ZINC16246338
REMARK  9 active torsions:
REMARK  status: ('A' for Active; 'I' for Inactive)
REMARK    1  A    between atoms: C_1  and  O_2
REMARK    2  A    between atoms: O_2  and  C_3
REMARK    3  A    between atoms: C_6  and  N_9
REMARK    4  A    between atoms: C_10  and  C_28
REMARK    5  A    between atoms: C_13  and  S_14
REMARK    6  A    between atoms: S_14  and  C_15
REMARK    7  A    between atoms: C_15  and  C_16
REMARK    8  A    between atoms: C_33  and  O_34
REMARK    9  A    between atoms: O_34  and  C_35
REMARK                            x       y       z     vdW  Elec       q    Type
REMARK                         _______ _______ _______ _____ _____    ______ ____
ROOT
ATOM      1  N   UNL     1      -5.425   1.449  -0.111  0.00  0.00    -0.270 N 
ATOM      2  C   UNL     1      -6.123   2.632  -0.005  0.00  0.00    +0.173 A 
ATOM      3  N   UNL     1      -5.237   3.589   0.150  0.00  0.00    -0.128 NA
ATOM      4  N   UNL     1      -4.051   3.094   0.155  0.00  0.00    -0.122 NA
ATOM      5  C   UNL     1      -4.105   1.790   0.002  0.00  0.00    +0.197 A 
ENDROOT
BRANCH   1   9
ATOM      6  C   UNL     1      -7.007  -2.372  -0.654  0.00  0.00    +0.120 A 
ATOM      7  C   UNL     1      -6.365  -2.050   0.532  0.00  0.00    +0.047 A 
ATOM      8  C   UNL     1      -5.841  -0.785   0.712  0.00  0.00    +0.030 A 
ATOM      9  C   UNL     1      -5.957   0.164  -0.294  0.00  0.00    +0.051 A 
ATOM     10  C   UNL     1      -6.605  -0.158  -1.479  0.00  0.00    +0.030 A 
ATOM     11  C   UNL     1      -7.124  -1.424  -1.660  0.00  0.00    +0.047 A 
BRANCH   6  13
ATOM     12  C   UNL     1      -8.171  -3.881  -2.078  0.00  0.00    +0.277 C 
ATOM     13  O   UNL     1      -7.523  -3.618  -0.831  0.00  0.00    -0.495 OA
ENDBRANCH   6  13
ENDBRANCH   1   9
BRANCH   2  14
ATOM     14  C   UNL     1      -7.591   2.795  -0.062  0.00  0.00    +0.061 A 
ATOM     15  C   UNL     1      -8.418   1.961   0.691  0.00  0.00    +0.015 A 
ATOM     16  C   UNL     1      -9.788   2.117   0.633  0.00  0.00    +0.001 A 
ATOM     17  C   UNL     1     -10.345   3.099  -0.168  0.00  0.00    +0.004 A 
ATOM     18  C   UNL     1      -9.535   3.931  -0.918  0.00  0.00    +0.046 A 
ATOM     19  C   UNL     1      -8.158   3.790  -0.868  0.00  0.00    +0.131 A 
BRANCH  19  20
ATOM     20  O   UNL     1      -7.361   4.611  -1.600  0.00  0.00    -0.494 OA
ATOM     21  C   UNL     1      -8.011   5.603  -2.398  0.00  0.00    +0.277 C 
ENDBRANCH  19  20
ENDBRANCH   2  14
BRANCH   5  22
ATOM     22  S   UNL     1      -2.732   0.687  -0.054  0.00  0.00    -0.078 S 
BRANCH  22  23
ATOM     23  C   UNL     1      -1.374   1.865   0.153  0.00  0.00    +0.151 C 
BRANCH  23  24
ATOM     24  C   UNL     1      -0.061   1.126   0.136  0.00  0.00    +0.121 A 
ATOM     25  N   UNL     1       1.085   1.843   0.273  0.00  0.00    -0.310 N 
ATOM     26  H   UNL     1       1.039   2.806   0.382  0.00  0.00    +0.170 HD
ATOM     27  C   UNL     1       2.290   1.227   0.258  0.00  0.00    +0.259 A 
ATOM     28  O   UNL     1       3.324   1.857   0.379  0.00  0.00    -0.267 OA
ATOM     29  C   UNL     1       2.301  -0.234   0.090  0.00  0.00    +0.065 A 
ATOM     30  C   UNL     1       3.488  -0.964   0.062  0.00  0.00    +0.015 A 
ATOM     31  C   UNL     1       3.440  -2.331  -0.099  0.00  0.00    +0.001 A 
ATOM     32  C   UNL     1       2.222  -2.985  -0.232  0.00  0.00    +0.002 A 
ATOM     33  C   UNL     1       1.038  -2.282  -0.206  0.00  0.00    +0.028 A 
ATOM     34  C   UNL     1       1.060  -0.895  -0.044  0.00  0.00    +0.078 A 
ATOM     35  N   UNL     1      -0.082  -0.164  -0.014  0.00  0.00    -0.233 NA
ENDBRANCH  23  24
ENDBRANCH  22  23
ENDBRANCH   5  22
TORSDOF 7
