REMARK  Name = ZINC67454285
REMARK  7 active torsions:
REMARK  status: ('A' for Active; 'I' for Inactive)
REMARK    1  A    between atoms: C_1  and  C_2
REMARK    2  A    between atoms: C_2  and  N_3
REMARK    3  A    between atoms: C_4  and  C_16
REMARK    4  A    between atoms: C_21  and  C_22
REMARK    5  A    between atoms: C_22  and  C_23
REMARK    6  A    between atoms: C_22  and  C_24
REMARK    7  A    between atoms: C_22  and  C_25
REMARK                            x       y       z     vdW  Elec       q    Type
REMARK                         _______ _______ _______ _____ _____    ______ ____
ROOT
ATOM      1  N   UNL     1      -2.398  -1.431  -0.177  0.00  0.00    -0.275 N 
ATOM      2  C   UNL     1      -2.721  -1.438   1.250  0.00  0.00    +0.196 C 
ATOM      3  N   UNL     1      -4.174  -1.359   1.444  0.00  0.00    -0.321 N 
ATOM      4  C   UNL     1      -4.994  -2.153   0.650  0.00  0.00    +0.041 A 
ATOM      5  C   UNL     1      -6.219  -2.618   1.096  0.00  0.00    +0.025 A 
ATOM      6  C   UNL     1      -6.994  -3.406   0.268  0.00  0.00    +0.022 A 
ATOM      7  C   UNL     1      -6.555  -3.736  -1.005  0.00  0.00    +0.042 A 
ATOM      8  C   UNL     1      -5.337  -3.280  -1.466  0.00  0.00    +0.035 A 
ATOM      9  C   UNL     1      -4.546  -2.482  -0.642  0.00  0.00    +0.059 A 
ATOM     10  C   UNL     1      -3.244  -1.956  -1.087  0.00  0.00    +0.250 C 
ATOM     11  O   UNL     1      -2.933  -1.998  -2.262  0.00  0.00    -0.270 OA
ATOM     12 CL   UNL     1      -7.545  -4.731  -2.027  0.00  0.00    -0.084 Cl
ATOM     13  H   UNL     1      -4.553  -0.765   2.111  0.00  0.00    +0.148 HD
ENDROOT
BRANCH   2  14
ATOM     14  C   UNL     1      -2.207  -2.712   1.871  0.00  0.00    +0.032 A 
ATOM     15  C   UNL     1      -2.030  -3.893   1.235  0.00  0.00    +0.112 A 
ATOM     16  N   UNL     1      -1.556  -4.779   2.137  0.00  0.00    -0.284 N 
ATOM     17  H   UNL     1      -1.336  -5.707   1.963  0.00  0.00    +0.188 HD
ATOM     18  N   UNL     1      -1.439  -4.120   3.367  0.00  0.00    -0.178 NA
ATOM     19  C   UNL     1      -1.823  -2.880   3.206  0.00  0.00    +0.075 A 
BRANCH  19  20
ATOM     20  C   UNL     1      -1.852  -1.817   4.274  0.00  0.00    +0.007 C 
ATOM     21  C   UNL     1      -3.267  -1.248   4.389  0.00  0.00    +0.017 C 
ATOM     22  C   UNL     1      -1.438  -2.430   5.614  0.00  0.00    +0.017 C 
ATOM     23  C   UNL     1      -0.879  -0.696   3.904  0.00  0.00    +0.017 C 
ENDBRANCH  19  20
ENDBRANCH   2  14
BRANCH   1  25
ATOM     24  C   UNL     1      -1.347   0.650  -0.916  0.00  0.00    +0.024 C 
ATOM     25  C   UNL     1      -1.136  -0.838  -0.625  0.00  0.00    +0.107 C 
ENDBRANCH   1  25
TORSDOF 3
