REMARK  Name = ZINC63515521
REMARK  6 active torsions:
REMARK  status: ('A' for Active; 'I' for Inactive)
REMARK    1  A    between atoms: C_1  and  C_2
REMARK    2  A    between atoms: C_9  and  C_14
REMARK    3  A    between atoms: C_14  and  N_15
REMARK    4  A    between atoms: N_15  and  C_16
REMARK    5  A    between atoms: C_19  and  N_30
REMARK    6  A    between atoms: C_21  and  C_22
REMARK                            x       y       z     vdW  Elec       q    Type
REMARK                         _______ _______ _______ _____ _____    ______ ____
ROOT
ATOM      1  C   UNL     1       2.346  -7.163   3.563  0.00  0.00    +0.040 A 
ATOM      2  C   UNL     1       3.497  -6.471   3.919  0.00  0.00    +0.025 A 
ATOM      3  C   UNL     1       4.431  -7.059   4.746  0.00  0.00    +0.025 A 
ATOM      4  C   UNL     1       4.229  -8.348   5.231  0.00  0.00    +0.031 A 
ATOM      5  C   UNL     1       3.088  -9.050   4.886  0.00  0.00    +0.038 A 
ATOM      6  C   UNL     1       2.133  -8.460   4.053  0.00  0.00    +0.059 A 
ENDROOT
BRANCH   6   7
ATOM      7  C   UNL     1       0.911  -9.199   3.686  0.00  0.00    +0.248 C 
ATOM      8  O   UNL     1       0.617  -9.344   2.515  0.00  0.00    -0.270 OA
ATOM      9  N   UNL     1       0.121  -9.714   4.648  0.00  0.00    -0.297 N 
ATOM     10  C   UNL     1       0.504  -9.617   6.063  0.00  0.00    +0.108 C 
ATOM     11  C   UNL     1      -0.651  -8.981   6.844  0.00  0.00    +0.019 C 
ATOM     12  C   UNL     1      -1.932  -9.780   6.593  0.00  0.00    +0.003 C 
ATOM     13  C   UNL     1      -2.276  -9.740   5.102  0.00  0.00    +0.019 C 
ATOM     14  C   UNL     1      -1.143 -10.379   4.302  0.00  0.00    +0.108 C 
ENDBRANCH   6   7
BRANCH   4  15
ATOM     15  N   UNL     1       5.183  -8.935   6.070  0.00  0.00    -0.330 N 
ATOM     16  C   UNL     1       5.058 -10.342   6.476  0.00  0.00    +0.105 C 
ATOM     17  C   UNL     1       6.362 -11.071   6.137  0.00  0.00    +0.019 C 
ATOM     18  C   UNL     1       7.537 -10.332   6.783  0.00  0.00    +0.003 C 
ATOM     19  C   UNL     1       7.618  -8.911   6.222  0.00  0.00    +0.019 C 
ATOM     20  C   UNL     1       6.332  -8.159   6.557  0.00  0.00    +0.105 C 
ENDBRANCH   4  15
BRANCH   1  21
ATOM     21  N   UNL     1       1.405  -6.569   2.727  0.00  0.00    -0.342 N 
ATOM     22  H   UNL     1       0.638  -7.078   2.421  0.00  0.00    +0.146 HD
BRANCH  21  23
ATOM     23  C   UNL     1       1.573  -5.175   2.310  0.00  0.00    +0.118 C 
BRANCH  23  32
ATOM     24  C   UNL     1       0.728   0.614  -1.787  0.00  0.00    +0.044 C 
ATOM     25  C   UNL     1       0.688  -0.871  -1.530  0.00  0.00    -0.050 A 
ATOM     26  C   UNL     1       0.760  -1.753  -2.608  0.00  0.00    +0.005 A 
ATOM     27  C   UNL     1       0.731  -3.102  -2.454  0.00  0.00    +0.024 A 
ATOM     28  C   UNL     1       0.624  -3.673  -1.173  0.00  0.00    +0.040 A 
ATOM     29  N   UNL     1       0.596  -4.998  -1.034  0.00  0.00    -0.284 N 
ATOM     30  C   UNL     1       0.497  -5.599   0.140  0.00  0.00    +0.226 C 
ATOM     31  O   UNL     1       0.476  -6.814   0.204  0.00  0.00    -0.275 OA
ATOM     32  C   UNL     1       0.409  -4.771   1.402  0.00  0.00    +0.115 C 
ATOM     33  C   UNL     1       0.441  -3.263   1.249  0.00  0.00    -0.003 C 
ATOM     34  C   UNL     1       0.546  -2.765  -0.015  0.00  0.00    -0.007 A 
ATOM     35  C   UNL     1       0.589  -1.321  -0.253  0.00  0.00    +0.012 A 
ATOM     36  H   UNL     1       0.651  -5.548  -1.831  0.00  0.00    +0.155 HD
ENDBRANCH  23  32
ENDBRANCH  21  23
ENDBRANCH   1  21
TORSDOF 5
