REMARK  Name = ZINC58321398
REMARK  12 active torsions:
REMARK  status: ('A' for Active; 'I' for Inactive)
REMARK    1  A    between atoms: C_1  and  C_2
REMARK    2  A    between atoms: C_4  and  C_13
REMARK    3  A    between atoms: C_5  and  C_12
REMARK    4  A    between atoms: N_6  and  C_7
REMARK    5  A    between atoms: C_7  and  C_8
REMARK    6  A    between atoms: C_8  and  C_9
REMARK    7  A    between atoms: C_9  and  C_10
REMARK    8  A    between atoms: C_9  and  C_11
REMARK    9  A    between atoms: C_13  and  C_15
REMARK   10  A    between atoms: C_15  and  N_16
REMARK   11  A    between atoms: C_19  and  C_23
REMARK   12  A    between atoms: C_19  and  C_24
REMARK                            x       y       z     vdW  Elec       q    Type
REMARK                         _______ _______ _______ _____ _____    ______ ____
ROOT
ATOM      1  N   UNL     1       0.052  -4.611  -3.539  0.00  0.00    -0.216 N 
ATOM      2  C   UNL     1       1.175  -5.291  -3.842  0.00  0.00    +0.254 C 
ATOM      3  O   UNL     1       2.319  -4.922  -3.687  0.00  0.00    -0.272 OA
ATOM      4  C   UNL     1       0.710  -6.613  -4.419  0.00  0.00    +0.168 C 
ATOM      5  N   UNL     1      -0.759  -6.516  -4.368  0.00  0.00    -0.279 N 
ATOM      6  C   UNL     1      -1.047  -5.314  -3.836  0.00  0.00    +0.310 C 
ATOM      7  O   UNL     1      -2.178  -4.912  -3.648  0.00  0.00    -0.252 OA
ATOM      8  C   UNL     1       1.202  -7.778  -3.558  0.00  0.00    +0.050 C 
ATOM      9  H   UNL     1      -1.395  -7.188  -4.659  0.00  0.00    +0.152 HD
ENDROOT
BRANCH   4  10
ATOM     10  C   UNL     1       1.183  -6.767  -5.841  0.00  0.00    +0.138 A 
ATOM     11  C   UNL     1       0.536  -7.452  -6.795  0.00  0.00    +0.056 A 
ATOM     12  C   UNL     1       1.352  -7.333  -8.009  0.00  0.00    +0.020 A 
ATOM     13  C   UNL     1       1.233  -7.808  -9.314  0.00  0.00    +0.011 A 
ATOM     14  C   UNL     1       2.199  -7.510 -10.235  0.00  0.00    +0.001 A 
ATOM     15  C   UNL     1       3.295  -6.738  -9.878  0.00  0.00    +0.004 A 
ATOM     16  C   UNL     1       3.430  -6.259  -8.592  0.00  0.00    +0.047 A 
ATOM     17  C   UNL     1       2.460  -6.551  -7.641  0.00  0.00    +0.135 A 
ATOM     18  O   UNL     1       2.311  -6.233  -6.340  0.00  0.00    -0.457 OA
ENDBRANCH   4  10
BRANCH   1  19
ATOM     19  C   UNL     1       0.035  -3.269  -2.951  0.00  0.00    +0.197 C 
BRANCH  19  20
ATOM     20  C   UNL     1       0.043  -3.379  -1.448  0.00  0.00    +0.183 C 
ATOM     21  O   UNL     1       0.060  -4.471  -0.920  0.00  0.00    -0.290 OA
BRANCH  20  25
ATOM     22  C   UNL     1      -0.018   1.503   0.010  0.00  0.00    +0.063 C 
ATOM     23  C   UNL     1       0.002  -0.004   0.002  0.00  0.00    +0.017 A 
ATOM     24  C   UNL     1       0.008  -0.777  -1.097  0.00  0.00    +0.034 A 
ATOM     25  C   UNL     1       0.030  -2.167  -0.625  0.00  0.00    +0.040 A 
ATOM     26  C   UNL     1       0.035  -2.098   0.755  0.00  0.00    +0.026 A 
ATOM     27  N   UNL     1       0.023  -0.801   1.110  0.00  0.00    -0.348 N 
ATOM     28  C   UNL     1       0.056  -3.273   1.700  0.00  0.00    +0.064 C 
BRANCH  27  29
ATOM     29  C   UNL     1       0.029  -0.312   2.491  0.00  0.00    +0.122 C 
BRANCH  29  30
ATOM     30  C   UNL     1      -1.411  -0.163   2.985  0.00  0.00    +0.024 C 
BRANCH  30  31
ATOM     31  C   UNL     1      -1.405   0.348   4.427  0.00  0.00    -0.016 C 
ATOM     32  C   UNL     1      -2.842   0.616   4.879  0.00  0.00    +0.007 C 
ATOM     33  C   UNL     1      -0.772  -0.705   5.339  0.00  0.00    +0.007 C 
ENDBRANCH  30  31
ENDBRANCH  29  30
ENDBRANCH  27  29
ENDBRANCH  20  25
ENDBRANCH  19  20
ENDBRANCH   1  19
TORSDOF 7
