REMARK  Name = ZINC09268836
REMARK  10 active torsions:
REMARK  status: ('A' for Active; 'I' for Inactive)
REMARK    1  A    between atoms: C_3  and  C_6
REMARK    2  A    between atoms: C_6  and  N_54
REMARK    3  A    between atoms: C_7  and  C_8
REMARK    4  A    between atoms: C_7  and  N_54
REMARK    5  A    between atoms: C_8  and  N_9
REMARK    6  A    between atoms: N_9  and  S_10
REMARK    7  A    between atoms: S_10  and  C_13
REMARK    8  A    between atoms: C_16  and  C_18
REMARK    9  A    between atoms: C_20  and  C_23
REMARK   10  A    between atoms: C_27  and  N_54
REMARK                            x       y       z     vdW  Elec       q    Type
REMARK                         _______ _______ _______ _____ _____    ______ ____
ROOT
ATOM      1  N   UNL     1       7.926   0.093   1.297  0.00  0.00    -0.191 NA
ATOM      2  H   UNL     1       8.617   0.748   1.482  0.00  0.00    +0.148 HD
ENDROOT
BRANCH   1   3
ATOM      3  S   UNL     1       7.229   0.025  -0.204  0.00  0.00    +0.065 S 
ATOM      4  O   UNL     1       7.252  -1.339  -0.601  0.00  0.00    -0.153 OA
ATOM      5  O   UNL     1       7.830   1.054  -0.977  0.00  0.00    -0.153 OA
BRANCH   3   6
ATOM      6  C   UNL     1       5.534   0.465  -0.011  0.00  0.00    +0.143 A 
ATOM      7  C   UNL     1       4.957   1.693  -0.079  0.00  0.00    +0.037 A 
ATOM      8  C   UNL     1       3.596   1.806   0.098  0.00  0.00    +0.020 A 
ATOM      9  C   UNL     1       2.868   0.673   0.348  0.00  0.00    +0.043 A 
ATOM     10  S   UNL     1       4.131  -0.589   0.320  0.00  0.00    -0.067 S 
BRANCH   9  11
ATOM     11  C   UNL     1       1.415   0.530   0.576  0.00  0.00    +0.120 A 
ATOM     12  C   UNL     1       0.701  -0.677   0.827  0.00  0.00    +0.085 A 
ATOM     13  C   UNL     1      -0.582  -0.274   0.963  0.00  0.00    +0.240 A 
ATOM     14  O   UNL     1      -0.588   1.057   0.801  0.00  0.00    -0.350 OA
ATOM     15  N   UNL     1       0.520   1.491   0.587  0.00  0.00    -0.077 NA
BRANCH  13  16
ATOM     16  C   UNL     1      -1.774  -1.151   1.244  0.00  0.00    +0.453 C 
ATOM     17  F   UNL     1      -1.956  -1.263   2.626  0.00  0.00    -0.163 F 
ATOM     18  F   UNL     1      -2.916  -0.584   0.668  0.00  0.00    -0.163 F 
ATOM     19  F   UNL     1      -1.558  -2.421   0.698  0.00  0.00    -0.163 F 
ENDBRANCH  13  16
ENDBRANCH   9  11
ENDBRANCH   3   6
ENDBRANCH   1   3
BRANCH   1  20
ATOM     20  C   UNL     1       7.497  -0.835   2.347  0.00  0.00    +0.087 C 
BRANCH  20  21
ATOM     21  C   UNL     1       8.520  -0.826   3.484  0.00  0.00    -0.061 C 
BRANCH  21  22
ATOM     22  N   UNL     1       8.084  -1.785   4.522  0.00  0.00    +0.387 N 
ATOM     23  H   UNL     1       7.087  -1.635   4.717  0.00  0.00    -0.081 HD
BRANCH  22  24
ATOM     24  C   UNL     1       8.277  -3.170   4.043  0.00  0.00    -0.068 C 
ATOM     25  C   UNL     1       9.604  -3.307   3.268  0.00  0.00    -0.015 C 
ATOM     26  C   UNL     1       9.271  -4.288   2.116  0.00  0.00    -0.002 C 
ATOM     27  C   UNL     1       7.835  -3.869   1.715  0.00  0.00    -0.002 C 
ATOM     28  C   UNL     1       7.152  -3.527   3.056  0.00  0.00    -0.015 C 
ENDBRANCH  22  24
BRANCH  22  29
ATOM     29  C   UNL     1       8.854  -1.568   5.765  0.00  0.00    -0.003 C 
BRANCH  29  32
ATOM     30  C   UNL     1       7.662  -3.897   8.361  0.00  0.00    +0.041 A 
ATOM     31  C   UNL     1       8.531  -3.570   7.294  0.00  0.00    +0.042 A 
ATOM     32  C   UNL     1       8.195  -2.334   6.883  0.00  0.00    +0.089 A 
ATOM     33  O   UNL     1       7.170  -1.901   7.634  0.00  0.00    -0.470 OA
ATOM     34  C   UNL     1       6.843  -2.844   8.532  0.00  0.00    +0.195 A 
ENDBRANCH  29  32
ENDBRANCH  22  29
ENDBRANCH  21  22
ENDBRANCH  20  21
ENDBRANCH   1  20
TORSDOF 10
