REMARK  Name = ZINC39712357
REMARK  9 active torsions:
REMARK  status: ('A' for Active; 'I' for Inactive)
REMARK    1  A    between atoms: C_1  and  C_2
REMARK    2  A    between atoms: C_7  and  N_8
REMARK    3  A    between atoms: C_9  and  S_20
REMARK    4  A    between atoms: C_13  and  C_14
REMARK    5  A    between atoms: S_20  and  C_21
REMARK    6  A    between atoms: C_21  and  C_23
REMARK    7  A    between atoms: C_21  and  C_24
REMARK    8  A    between atoms: C_29  and  C_36
REMARK    9  A    between atoms: C_30  and  C_35
REMARK                            x       y       z     vdW  Elec       q    Type
REMARK                         _______ _______ _______ _____ _____    ______ ____
ROOT
ATOM      1  N   UNL     1      -0.643  -0.467   2.225  0.00  0.00    -0.254 N 
ATOM      2  C   UNL     1      -1.645   0.200   3.074  0.00  0.00    +0.242 C 
ATOM      3  N   UNL     1      -0.842   0.875   4.109  0.00  0.00    -0.237 N 
ATOM      4  N   UNL     1       0.496   0.582   3.822  0.00  0.00    -0.168 NA
ATOM      5  C   UNL     1       0.604  -0.170   2.776  0.00  0.00    +0.153 C 
ATOM      6  H   UNL     1      -1.175   1.415   4.843  0.00  0.00    +0.171 HD
ENDROOT
BRANCH   1  13
ATOM      7  C   UNL     1      -1.361  -3.193   2.607  0.00  0.00    +0.045 C 
ATOM      8  C   UNL     1      -1.246  -2.583   1.234  0.00  0.00    -0.029 A 
ATOM      9  C   UNL     1      -1.498  -3.350   0.114  0.00  0.00    +0.005 A 
ATOM     10  C   UNL     1      -1.393  -2.792  -1.147  0.00  0.00    +0.000 A 
ATOM     11  C   UNL     1      -1.035  -1.464  -1.290  0.00  0.00    +0.002 A 
ATOM     12  C   UNL     1      -0.781  -0.691  -0.175  0.00  0.00    +0.024 A 
ATOM     13  C   UNL     1      -0.892  -1.247   1.094  0.00  0.00    +0.041 A 
ENDBRANCH   1  13
BRANCH   5  14
ATOM     14  C   UNL     1       1.889  -0.652   2.228  0.00  0.00    +0.020 A 
ATOM     15  C   UNL     1       1.922  -1.618   1.215  0.00  0.00    +0.029 A 
ATOM     16  C   UNL     1       3.144  -2.039   0.733  0.00  0.00    +0.083 A 
ATOM     17  N   UNL     1       4.269  -1.546   1.215  0.00  0.00    -0.367 N 
ATOM     18  C   UNL     1       4.282  -0.635   2.170  0.00  0.00    +0.083 A 
ATOM     19  C   UNL     1       3.107  -0.152   2.705  0.00  0.00    +0.029 A 
ATOM     20  H   UNL     1       5.112  -1.863   0.855  0.00  0.00    +0.165 HD
ENDBRANCH   5  14
BRANCH   2  21
ATOM     21  S   UNL     1      -2.593   1.409   2.110  0.00  0.00    -0.107 S 
BRANCH  21  22
ATOM     22  C   UNL     1      -1.402   2.736   1.778  0.00  0.00    +0.112 C 
ATOM     23  C   UNL     1      -0.370   2.252   0.758  0.00  0.00    +0.027 C 
BRANCH  22  24
ATOM     24  C   UNL     1      -2.128   3.936   1.227  0.00  0.00    +0.136 C 
ATOM     25  N   UNL     1      -3.438   3.898   1.172  0.00  0.00    -0.160 NA
ATOM     26  C   UNL     1      -4.173   4.911   0.700  0.00  0.00    +0.271 C 
ATOM     27  O   UNL     1      -5.389   4.843   0.664  0.00  0.00    -0.268 OA
ATOM     28  C   UNL     1      -3.452   6.132   0.217  0.00  0.00    +0.071 C 
ATOM     29  C   UNL     1      -3.973   7.259  -0.291  0.00  0.00    -0.045 C 
ATOM     30  C   UNL     1      -3.015   8.352  -0.706  0.00  0.00    +0.076 C 
ATOM     31  S   UNL     1      -1.389   7.598  -0.297  0.00  0.00    -0.098 S 
ATOM     32  C   UNL     1      -1.980   6.048   0.333  0.00  0.00    +0.111 C 
ATOM     33  N   UNL     1      -1.411   4.974   0.828  0.00  0.00    -0.226 NA
ATOM     34  C   UNL     1      -3.126   8.638  -2.205  0.00  0.00    +0.024 C 
ATOM     35  C   UNL     1      -5.463   7.428  -0.444  0.00  0.00    +0.041 C 
ENDBRANCH  22  24
ENDBRANCH  21  22
ENDBRANCH   2  21
TORSDOF 5
