REMARK  Name = ZINC08326855
REMARK  7 active torsions:
REMARK  status: ('A' for Active; 'I' for Inactive)
REMARK    1  A    between atoms: C_1  and  C_2
REMARK    2  A    between atoms: C_2  and  C_3
REMARK    3  A    between atoms: C_3  and  C_5
REMARK    4  A    between atoms: C_3  and  S_6
REMARK    5  A    between atoms: S_6  and  C_7
REMARK    6  A    between atoms: C_18  and  C_20
REMARK    7  A    between atoms: C_24  and  C_26
REMARK                            x       y       z     vdW  Elec       q    Type
REMARK                         _______ _______ _______ _____ _____    ______ ____
ROOT
ATOM      1  C   UNL     1       0.852  -0.566   4.057  0.00  0.00    +0.171 A 
ATOM      2  N   UNL     1       0.441  -0.370   5.341  0.00  0.00    -0.302 N 
ATOM      3  H   UNL     1      -0.416   0.047   5.516  0.00  0.00    +0.171 HD
ATOM      4  C   UNL     1       1.226  -0.755   6.370  0.00  0.00    +0.258 A 
ATOM      5  O   UNL     1       0.868  -0.582   7.524  0.00  0.00    -0.267 OA
ATOM      6  C   UNL     1       2.457  -1.358   6.088  0.00  0.00    +0.069 A 
ATOM      7  C   UNL     1       2.826  -1.538   4.766  0.00  0.00    +0.135 A 
ATOM      8  N   UNL     1       2.008  -1.138   3.787  0.00  0.00    -0.208 NA
ATOM      9  N   UNL     1       4.034  -2.138   4.469  0.00  0.00    -0.302 N 
ATOM     10  C   UNL     1       4.686  -2.895   5.404  0.00  0.00    +0.017 C 
ATOM     11  C   UNL     1       4.397  -2.776   6.717  0.00  0.00    +0.024 C 
ATOM     12  C   UNL     1       3.359  -1.797   7.203  0.00  0.00    +0.092 C 
ATOM     13  C   UNL     1       5.055  -3.565   7.677  0.00  0.00    +0.162 C 
ATOM     14  O   UNL     1       4.778  -3.428   8.852  0.00  0.00    -0.292 OA
ATOM     15  C   UNL     1       6.095  -4.576   7.278  0.00  0.00    +0.080 C 
ATOM     16  C   UNL     1       5.790  -5.072   5.861  0.00  0.00    +0.014 C 
ATOM     17  C   UNL     1       5.740  -3.863   4.925  0.00  0.00    +0.051 C 
ATOM     18  H   UNL     1       4.423  -2.022   3.588  0.00  0.00    +0.153 HD
ENDROOT
BRANCH  12  19
ATOM     19  C   UNL     1       4.053  -0.590   7.780  0.00  0.00    -0.035 A 
ATOM     20  C   UNL     1       4.857   0.196   6.976  0.00  0.00    +0.004 A 
ATOM     21  C   UNL     1       5.493   1.303   7.505  0.00  0.00    +0.001 A 
ATOM     22  C   UNL     1       5.325   1.625   8.839  0.00  0.00    +0.003 A 
ATOM     23  C   UNL     1       4.520   0.840   9.643  0.00  0.00    -0.050 A 
ATOM     24  C   UNL     1       3.880  -0.265   9.113  0.00  0.00    +0.008 A 
ATOM     25  C   UNL     1       4.337   1.191  11.097  0.00  0.00    +0.044 C 
ENDBRANCH  12  19
BRANCH   1  26
ATOM     26  S   UNL     1      -0.187  -0.052   2.730  0.00  0.00    -0.085 S 
BRANCH  26  27
ATOM     27  C   UNL     1       0.742  -0.511   1.242  0.00  0.00    +0.051 C 
ATOM     28  C   UNL     1       0.872  -2.034   1.171  0.00  0.00    +0.019 C 
BRANCH  27  30
ATOM     29  C   UNL     1      -0.019   1.526   0.010  0.00  0.00    +0.005 C 
ATOM     30  C   UNL     1       0.002  -0.004   0.002  0.00  0.00    +0.011 C 
ENDBRANCH  27  30
ENDBRANCH  26  27
ENDBRANCH   1  26
TORSDOF 4
