REMARK  Name = ZINC35450713
REMARK  13 active torsions:
REMARK  status: ('A' for Active; 'I' for Inactive)
REMARK    1  A    between atoms: C_1  and  C_2
REMARK    2  A    between atoms: C_2  and  C_3
REMARK    3  A    between atoms: C_2  and  C_4
REMARK    4  A    between atoms: C_4  and  C_5
REMARK    5  A    between atoms: C_5  and  S_6
REMARK    6  A    between atoms: S_6  and  C_7
REMARK    7  A    between atoms: C_14  and  C_26
REMARK    8  A    between atoms: C_20  and  C_24
REMARK    9  A    between atoms: C_20  and  C_25
REMARK   10  A    between atoms: C_28  and  O_34
REMARK   11  A    between atoms: C_31  and  O_32
REMARK   12  A    between atoms: O_32  and  C_33
REMARK   13  A    between atoms: O_34  and  C_35
REMARK                            x       y       z     vdW  Elec       q    Type
REMARK                         _______ _______ _______ _____ _____    ______ ____
ROOT
ATOM      1  C   UNL     1       4.694  -0.098  -2.494  0.00  0.00    +0.171 A 
ATOM      2  N   UNL     1       5.018   0.576  -1.409  0.00  0.00    -0.208 NA
ATOM      3  C   UNL     1       6.266   1.017  -1.217  0.00  0.00    +0.135 A 
ATOM      4  C   UNL     1       7.240   0.763  -2.167  0.00  0.00    +0.069 A 
ATOM      5  C   UNL     1       6.890   0.049  -3.318  0.00  0.00    +0.258 A 
ATOM      6  O   UNL     1       7.723  -0.191  -4.178  0.00  0.00    -0.267 OA
ATOM      7  N   UNL     1       5.616  -0.374  -3.458  0.00  0.00    -0.302 N 
ATOM      8  C   UNL     1       8.648   1.238  -1.968  0.00  0.00    +0.096 C 
ATOM      9  C   UNL     1       8.720   2.318  -0.918  0.00  0.00    +0.024 C 
ATOM     10  C   UNL     1       7.712   2.511  -0.042  0.00  0.00    +0.017 C 
ATOM     11  N   UNL     1       6.590   1.728  -0.078  0.00  0.00    -0.302 N 
ATOM     12  C   UNL     1       7.787   3.598   1.003  0.00  0.00    +0.058 C 
ATOM     13  C   UNL     1       9.246   3.825   1.404  0.00  0.00    -0.023 C 
ATOM     14  C   UNL     1      10.039   4.205   0.149  0.00  0.00    +0.086 C 
ATOM     15  C   UNL     1       9.875   3.120  -0.880  0.00  0.00    +0.162 C 
ATOM     16  O   UNL     1      10.758   2.933  -1.694  0.00  0.00    -0.292 OA
ATOM     17  C   UNL     1       9.328   4.959   2.428  0.00  0.00    +0.011 C 
ATOM     18  C   UNL     1       9.820   2.542   2.007  0.00  0.00    +0.011 C 
ATOM     19  H   UNL     1       6.017   1.672   0.702  0.00  0.00    +0.153 HD
ATOM     20  H   UNL     1       5.356  -0.873  -4.248  0.00  0.00    +0.171 HD
ENDROOT
BRANCH   8  21
ATOM     21  C   UNL     1       9.505   0.075  -1.536  0.00  0.00    +0.010 A 
ATOM     22  C   UNL     1       9.205  -0.609  -0.374  0.00  0.00    +0.053 A 
ATOM     23  C   UNL     1       9.993  -1.679   0.023  0.00  0.00    +0.121 A 
ATOM     24  C   UNL     1      11.081  -2.062  -0.747  0.00  0.00    +0.049 A 
ATOM     25  C   UNL     1      11.381  -1.378  -1.909  0.00  0.00    +0.049 A 
ATOM     26  C   UNL     1      10.590  -0.311  -2.308  0.00  0.00    +0.124 A 
BRANCH  26  27
ATOM     27  O   UNL     1      10.881   0.360  -3.455  0.00  0.00    -0.495 OA
ATOM     28  C   UNL     1      12.014  -0.092  -4.201  0.00  0.00    +0.277 C 
ENDBRANCH  26  27
BRANCH  23  29
ATOM     29  O   UNL     1       9.698  -2.353   1.166  0.00  0.00    -0.495 OA
ATOM     30  C   UNL     1      10.552  -3.445   1.514  0.00  0.00    +0.277 C 
ENDBRANCH  23  29
ENDBRANCH   8  21
BRANCH   1  31
ATOM     31  S   UNL     1       3.036  -0.658  -2.700  0.00  0.00    -0.088 S 
BRANCH  31  32
ATOM     32  C   UNL     1       2.187  -0.073  -1.207  0.00  0.00    +0.077 C 
BRANCH  32  33
ATOM     33  C   UNL     1       0.718  -0.497  -1.257  0.00  0.00    +0.014 C 
BRANCH  33  35
ATOM     34  C   UNL     1      -0.019   1.526   0.010  0.00  0.00    +0.007 C 
ATOM     35  C   UNL     1       0.002  -0.004   0.002  0.00  0.00    -0.016 C 
ATOM     36  C   UNL     1      -1.433  -0.534   0.013  0.00  0.00    +0.007 C 
ENDBRANCH  33  35
ENDBRANCH  32  33
ENDBRANCH  31  32
ENDBRANCH   1  31
TORSDOF 7
