REMARK  Name = ZINC15946199
REMARK  8 active torsions:
REMARK  status: ('A' for Active; 'I' for Inactive)
REMARK    1  A    between atoms: C_1  and  C_2
REMARK    2  A    between atoms: C_2  and  C_3
REMARK    3  A    between atoms: C_3  and  C_4
REMARK    4  A    between atoms: C_3  and  C_5
REMARK    5  A    between atoms: C_3  and  C_6
REMARK    6  A    between atoms: C_15  and  O_33
REMARK    7  A    between atoms: C_17  and  C_20
REMARK    8  A    between atoms: C_23  and  C_25
REMARK                            x       y       z     vdW  Elec       q    Type
REMARK                         _______ _______ _______ _____ _____    ______ ____
ROOT
ATOM      1  C   UNL     1      -1.413  -2.063   0.004  0.00  0.00    -0.000 C 
ATOM      2  C   UNL     1      -2.848  -2.596   0.022  0.00  0.00    +0.009 C 
ATOM      3  C   UNL     1      -2.847  -4.105  -0.234  0.00  0.00    +0.037 C 
ATOM      4  C   UNL     1      -1.881  -4.765   0.739  0.00  0.00    -0.023 A 
ATOM      5  C   UNL     1      -0.932  -4.045   1.379  0.00  0.00    -0.004 A 
ATOM      6  S   UNL     1      -0.070  -5.223   2.384  0.00  0.00    -0.078 S 
ATOM      7  C   UNL     1      -0.912  -6.594   1.981  0.00  0.00    +0.080 A 
ATOM      8  C   UNL     1      -1.885  -6.180   1.064  0.00  0.00    +0.068 A 
ATOM      9  C   UNL     1      -2.812  -7.213   0.534  0.00  0.00    +0.220 C 
ATOM     10  N   UNL     1      -2.512  -8.465   0.753  0.00  0.00    -0.220 NA
ATOM     11  C   UNL     1      -1.300  -8.919   1.424  0.00  0.00    +0.260 C 
ATOM     12  N   UNL     1      -0.792  -7.909   2.370  0.00  0.00    -0.311 N 
ATOM     13  C   UNL     1      -0.676  -2.575   1.251  0.00  0.00    +0.046 C 
ATOM     14  H   UNL     1      -0.395  -8.157   3.220  0.00  0.00    +0.149 HD
ENDROOT
BRANCH  11  15
ATOM     15  C   UNL     1      -0.241  -9.200   0.390  0.00  0.00    +0.148 A 
ATOM     16  C   UNL     1      -0.465  -9.607  -0.874  0.00  0.00    +0.049 A 
ATOM     17  C   UNL     1       0.793  -9.748  -1.493  0.00  0.00    +0.050 A 
ATOM     18  C   UNL     1       1.726  -9.415  -0.562  0.00  0.00    +0.135 A 
ATOM     19  O   UNL     1       1.084  -9.080   0.574  0.00  0.00    -0.456 OA
BRANCH  18  20
ATOM     20  C   UNL     1       3.191  -9.415  -0.762  0.00  0.00    +0.019 A 
ATOM     21  C   UNL     1       3.728  -9.776  -2.000  0.00  0.00    +0.013 A 
ATOM     22  C   UNL     1       5.095  -9.774  -2.182  0.00  0.00    +0.022 A 
ATOM     23  C   UNL     1       5.935  -9.417  -1.140  0.00  0.00    +0.059 A 
ATOM     24  C   UNL     1       5.408  -9.058   0.090  0.00  0.00    +0.060 A 
ATOM     25  C   UNL     1       4.041  -9.050   0.282  0.00  0.00    +0.033 A 
ATOM     26 CL   UNL     1       6.469  -8.611   1.390  0.00  0.00    -0.082 Cl
ATOM     27 CL   UNL     1       7.655  -9.418  -1.377  0.00  0.00    -0.082 Cl
ENDBRANCH  18  20
ENDBRANCH  11  15
BRANCH   1  28
ATOM     28  C   UNL     1      -1.433  -0.534   0.013  0.00  0.00    -0.032 C 
ATOM     29  C   UNL     1      -2.149  -0.040   1.272  0.00  0.00    +0.011 C 
ATOM     30  C   UNL     1      -2.173  -0.027  -1.227  0.00  0.00    +0.011 C 
BRANCH  28  32
ATOM     31  C   UNL     1      -0.019   1.526   0.010  0.00  0.00    +0.004 C 
ATOM     32  C   UNL     1       0.002  -0.004   0.002  0.00  0.00    +0.003 C 
ENDBRANCH  28  32
ENDBRANCH   1  28
BRANCH   9  33
ATOM     33  O   UNL     1      -3.927  -6.870  -0.151  0.00  0.00    -0.492 OA
ATOM     34  H   UNL     1      -4.454  -7.624  -0.448  0.00  0.00    +0.294 HD
ENDBRANCH   9  33
TORSDOF 5
