REMARK  Name = ZINC12926827
REMARK  10 active torsions:
REMARK  status: ('A' for Active; 'I' for Inactive)
REMARK    1  A    between atoms: C_1  and  C_2
REMARK    2  A    between atoms: C_3  and  C_33
REMARK    3  A    between atoms: C_11  and  C_13
REMARK    4  A    between atoms: C_13  and  C_14
REMARK    5  A    between atoms: N_16  and  C_17
REMARK    6  A    between atoms: C_17  and  C_18
REMARK    7  A    between atoms: C_18  and  C_20
REMARK    8  A    between atoms: C_18  and  N_28
REMARK    9  A    between atoms: C_23  and  O_26
REMARK   10  A    between atoms: O_26  and  C_27
REMARK                            x       y       z     vdW  Elec       q    Type
REMARK                         _______ _______ _______ _____ _____    ______ ____
ROOT
ATOM      1  C   UNL     1       1.422  -6.871   2.365  0.00  0.00    +0.220 C 
ATOM      2  O   UNL     1       0.507  -6.206   1.928  0.00  0.00    -0.275 OA
ATOM      3  N   UNL     1       1.290  -7.505   3.547  0.00  0.00    -0.316 N 
ATOM      4  H   UNL     1       2.022  -8.037   3.897  0.00  0.00    +0.149 HD
ENDROOT
BRANCH   1   5
ATOM      5  C   UNL     1       2.708  -6.987   1.588  0.00  0.00    +0.170 C 
BRANCH   5  16
ATOM      6  C   UNL     1       3.115  -3.735  -4.261  0.00  0.00    +0.045 C 
ATOM      7  C   UNL     1       2.092  -3.920  -3.170  0.00  0.00    -0.026 A 
ATOM      8  C   UNL     1       0.887  -3.335  -3.261  0.00  0.00    -0.008 A 
ATOM      9  S   UNL     1       0.065  -3.845  -1.764  0.00  0.00    -0.073 S 
ATOM     10  C   UNL     1       1.363  -4.829  -1.059  0.00  0.00    +0.116 A 
ATOM     11  C   UNL     1       2.396  -4.737  -2.010  0.00  0.00    +0.075 A 
ATOM     12  C   UNL     1       3.594  -5.457  -1.693  0.00  0.00    +0.260 A 
ATOM     13  O   UNL     1       4.548  -5.436  -2.452  0.00  0.00    -0.267 OA
ATOM     14  N   UNL     1       3.650  -6.156  -0.544  0.00  0.00    -0.310 N 
ATOM     15  H   UNL     1       4.458  -6.645  -0.325  0.00  0.00    +0.170 HD
ATOM     16  C   UNL     1       2.598  -6.191   0.313  0.00  0.00    +0.120 A 
ATOM     17  N   UNL     1       1.496  -5.538   0.058  0.00  0.00    -0.226 NA
ATOM     18  C   UNL     1       0.357  -2.457  -4.365  0.00  0.00    +0.052 C 
ENDBRANCH   5  16
ENDBRANCH   1   5
BRANCH   3  19
ATOM     19  C   UNL     1       0.040  -7.391   4.303  0.00  0.00    +0.093 C 
BRANCH  19  20
ATOM     20  C   UNL     1       0.100  -8.306   5.528  0.00  0.00    -0.020 C 
BRANCH  20  21
ATOM     21  C   UNL     1       0.154  -9.744   5.080  0.00  0.00    -0.059 A 
ATOM     22  C   UNL     1      -1.006 -10.389   4.692  0.00  0.00    +0.005 A 
ATOM     23  C   UNL     1      -0.960 -11.707   4.281  0.00  0.00    +0.046 A 
ATOM     24  C   UNL     1       0.252 -12.383   4.258  0.00  0.00    +0.120 A 
ATOM     25  C   UNL     1       1.414 -11.733   4.648  0.00  0.00    +0.046 A 
ATOM     26  C   UNL     1       1.363 -10.414   5.053  0.00  0.00    +0.005 A 
BRANCH  24  27
ATOM     27  O   UNL     1       0.299 -13.680   3.854  0.00  0.00    -0.495 OA
ATOM     28  C   UNL     1       1.581 -14.313   3.856  0.00  0.00    +0.277 C 
ENDBRANCH  24  27
ENDBRANCH  20  21
BRANCH  20  29
ATOM     29  N   UNL     1      -1.095  -8.095   6.356  0.00  0.00    +0.385 N 
ATOM     30  C   UNL     1      -1.045  -8.965   7.559  0.00  0.00    -0.078 C 
ATOM     31  C   UNL     1      -1.999  -8.254   8.551  0.00  0.00    -0.020 C 
ATOM     32  C   UNL     1      -1.725  -6.757   8.282  0.00  0.00    -0.020 C 
ATOM     33  C   UNL     1      -1.125  -6.706   6.864  0.00  0.00    -0.078 C 
ATOM     34  H   UNL     1      -1.928  -8.288   5.820  0.00  0.00    -0.081 HD
ENDBRANCH  20  29
ENDBRANCH  19  20
ENDBRANCH   3  19
TORSDOF 7
