REMARK  Name = ZINC14470859
REMARK  6 active torsions:
REMARK  status: ('A' for Active; 'I' for Inactive)
REMARK    1  A    between atoms: C_4  and  C_7
REMARK    2  A    between atoms: C_7  and  N_8
REMARK    3  A    between atoms: N_8  and  S_9
REMARK    4  A    between atoms: S_9  and  C_12
REMARK    5  A    between atoms: C_25  and  C_28
REMARK    6  A    between atoms: C_32  and  N_34
REMARK                            x       y       z     vdW  Elec       q    Type
REMARK                         _______ _______ _______ _____ _____    ______ ____
ROOT
ATOM      1  C   UNL     1      -5.060   5.257   0.753  0.00  0.00    +0.106 A 
ATOM      2  C   UNL     1      -5.163   4.983  -0.599  0.00  0.00    +0.030 A 
ATOM      3  C   UNL     1      -4.650   3.802  -1.098  0.00  0.00    +0.025 A 
ATOM      4  C   UNL     1      -4.035   2.896  -0.244  0.00  0.00    +0.031 A 
ATOM      5  C   UNL     1      -3.931   3.166   1.112  0.00  0.00    -0.018 A 
ATOM      6  C   UNL     1      -4.450   4.356   1.602  0.00  0.00    +0.034 A 
ATOM      7  C   UNL     1      -3.280   2.219   2.069  0.00  0.00    +0.049 C 
ATOM      8  C   UNL     1      -1.911   2.705   2.483  0.00  0.00    -0.023 C 
ATOM      9  C   UNL     1      -1.093   1.691   2.625  0.00  0.00    -0.030 C 
ATOM     10  C   UNL     1      -1.808   0.387   2.329  0.00  0.00    +0.033 C 
ATOM     11  C   UNL     1      -3.019   0.829   1.456  0.00  0.00    +0.029 C 
ATOM     12  C   UNL     1      -2.513   0.979   0.019  0.00  0.00    +0.105 C 
ATOM     13  N   UNL     1      -3.518   1.704  -0.765  0.00  0.00    -0.336 N 
ATOM     14  H   UNL     1      -3.818   1.366  -1.624  0.00  0.00    +0.147 HD
ENDROOT
BRANCH  12  15
ATOM     15  C   UNL     1      -1.219   1.750   0.017  0.00  0.00    -0.025 A 
ATOM     16  C   UNL     1      -0.014   1.079   0.109  0.00  0.00    +0.007 A 
ATOM     17  C   UNL     1       1.173   1.786   0.114  0.00  0.00    +0.022 A 
ATOM     18  C   UNL     1       1.156   3.167   0.021  0.00  0.00    +0.071 A 
ATOM     19  C   UNL     1      -0.050   3.838  -0.076  0.00  0.00    +0.145 A 
ATOM     20  C   UNL     1      -1.236   3.129  -0.081  0.00  0.00    +0.039 A 
ATOM     21 CL   UNL     1       2.647   4.056   0.028  0.00  0.00    -0.081 Cl
BRANCH  19  22
ATOM     22  N   UNL     1      -0.069   5.314  -0.175  0.00  0.00    +0.058 N 
ATOM     23  O   UNL     1      -1.131   5.905  -0.261  0.00  0.00    -0.126 OA
ATOM     24  O   UNL     1       0.977   5.939  -0.171  0.00  0.00    -0.126 OA
ENDBRANCH  19  22
ENDBRANCH  12  15
BRANCH   1  25
ATOM     25  S   UNL     1      -5.712   6.763   1.395  0.00  0.00    +0.059 S 
ATOM     26  O   UNL     1      -5.007   7.031   2.599  0.00  0.00    -0.153 OA
ATOM     27  O   UNL     1      -5.748   7.684   0.312  0.00  0.00    -0.153 OA
BRANCH  25  28
ATOM     28  N   UNL     1      -7.285   6.474   1.822  0.00  0.00    -0.186 NA
ATOM     29  H   UNL     1      -8.006   6.925   1.355  0.00  0.00    +0.148 HD
BRANCH  28  30
ATOM     30  C   UNL     1      -7.590   5.535   2.905  0.00  0.00    +0.141 C 
BRANCH  30  34
ATOM     31  C   UNL     1     -11.644   6.056   4.145  0.00  0.00    +0.000 A 
ATOM     32  C   UNL     1     -11.339   5.158   3.140  0.00  0.00    +0.000 A 
ATOM     33  C   UNL     1     -10.027   4.989   2.739  0.00  0.00    +0.005 A 
ATOM     34  C   UNL     1      -9.020   5.719   3.342  0.00  0.00    -0.032 A 
ATOM     35  C   UNL     1      -9.324   6.614   4.351  0.00  0.00    +0.005 A 
ATOM     36  C   UNL     1     -10.637   6.786   4.749  0.00  0.00    +0.000 A 
ENDBRANCH  30  34
ENDBRANCH  28  30
ENDBRANCH  25  28
ENDBRANCH   1  25
TORSDOF 6
