REMARK  Name = ZINC14752344
REMARK  9 active torsions:
REMARK  status: ('A' for Active; 'I' for Inactive)
REMARK    1  A    between atoms: C_1  and  C_2
REMARK    2  A    between atoms: C_2  and  C_3
REMARK    3  A    between atoms: C_2  and  N_4
REMARK    4  A    between atoms: N_7  and  C_8
REMARK    5  A    between atoms: C_13  and  C_14
REMARK    6  A    between atoms: C_14  and  O_16
REMARK    7  A    between atoms: O_16  and  C_17
REMARK    8  A    between atoms: C_17  and  C_18
REMARK    9  A    between atoms: N_20  and  C_21
REMARK                            x       y       z     vdW  Elec       q    Type
REMARK                         _______ _______ _______ _____ _____    ______ ____
ROOT
ATOM      1  C   UNL     1       0.086  -1.181   4.690  0.00  0.00    +0.049 A 
ATOM      2  C   UNL     1      -1.266  -0.892   4.824  0.00  0.00    +0.024 A 
ATOM      3  C   UNL     1      -1.868  -0.957   6.064  0.00  0.00    +0.002 A 
ATOM      4  C   UNL     1      -1.131  -1.309   7.184  0.00  0.00    +0.001 A 
ATOM      5  C   UNL     1       0.211  -1.599   7.071  0.00  0.00    +0.017 A 
ATOM      6  C   UNL     1       0.833  -1.544   5.821  0.00  0.00    +0.080 A 
ENDROOT
BRANCH   1  10
ATOM      7  N   UNL     1       0.957  -0.060   1.375  0.00  0.00    -0.297 N 
ATOM      8  C   UNL     1       0.307  -0.182   2.549  0.00  0.00    +0.304 C 
ATOM      9  O   UNL     1      -0.630   0.550   2.804  0.00  0.00    -0.253 OA
ATOM     10  N   UNL     1       0.695  -1.116   3.440  0.00  0.00    -0.269 N 
ATOM     11  H   UNL     1       1.704  -0.644   1.171  0.00  0.00    +0.151 HD
ATOM     12  H   UNL     1       1.398  -1.743   3.210  0.00  0.00    +0.156 HD
BRANCH   7  14
ATOM     13  C   UNL     1       1.200   2.291   0.746  0.00  0.00    +0.027 C 
ATOM     14  C   UNL     1       0.536   0.956   0.406  0.00  0.00    +0.068 C 
ATOM     15  C   UNL     1       0.952   0.522  -1.001  0.00  0.00    +0.027 C 
ENDBRANCH   7  14
ENDBRANCH   1  10
BRANCH   6  16
ATOM     16  C   UNL     1       2.267  -1.859   5.692  0.00  0.00    +0.341 C 
ATOM     17  O   UNL     1       2.827  -1.712   4.623  0.00  0.00    -0.245 OA
BRANCH  16  18
ATOM     18  O   UNL     1       2.957  -2.309   6.758  0.00  0.00    -0.452 OA
BRANCH  18  19
ATOM     19  C   UNL     1       4.343  -2.594   6.561  0.00  0.00    +0.328 C 
BRANCH  19  20
ATOM     20  C   UNL     1       4.944  -3.082   7.854  0.00  0.00    +0.255 C 
ATOM     21  O   UNL     1       4.253  -3.176   8.847  0.00  0.00    -0.272 OA
ATOM     22  N   UNL     1       6.249  -3.414   7.907  0.00  0.00    -0.283 N 
ATOM     23  H   UNL     1       6.786  -3.402   7.100  0.00  0.00    +0.155 HD
BRANCH  22  24
ATOM     24  C   UNL     1       6.830  -3.776   9.128  0.00  0.00    +0.034 A 
ATOM     25  C   UNL     1       8.144  -3.422   9.405  0.00  0.00    +0.024 A 
ATOM     26  C   UNL     1       8.715  -3.780  10.611  0.00  0.00    +0.017 A 
ATOM     27  C   UNL     1       7.978  -4.490  11.543  0.00  0.00    +0.018 A 
ATOM     28  C   UNL     1       6.669  -4.843  11.269  0.00  0.00    +0.017 A 
ATOM     29  C   UNL     1       6.092  -4.484  10.067  0.00  0.00    +0.024 A 
ATOM     30 BR   UNL     1       8.763  -4.979  13.192  0.00  0.00    -0.050 Br
ENDBRANCH  22  24
ENDBRANCH  19  20
ENDBRANCH  18  19
ENDBRANCH  16  18
ENDBRANCH   6  16
TORSDOF 7
