REMARK  Name = ZINC31044751
REMARK  12 active torsions:
REMARK  status: ('A' for Active; 'I' for Inactive)
REMARK    1  A    between atoms: C_1  and  C_2
REMARK    2  A    between atoms: C_2  and  O_3
REMARK    3  A    between atoms: O_3  and  C_4
REMARK    4  A    between atoms: C_4  and  C_6
REMARK    5  A    between atoms: C_7  and  C_33
REMARK    6  A    between atoms: C_15  and  C_16
REMARK    7  A    between atoms: C_16  and  S_17
REMARK    8  A    between atoms: S_17  and  C_18
REMARK    9  A    between atoms: C_21  and  C_24
REMARK   10  A    between atoms: N_22  and  N_23
REMARK   11  A    between atoms: C_24  and  O_25
REMARK   12  A    between atoms: O_25  and  C_26
REMARK                            x       y       z     vdW  Elec       q    Type
REMARK                         _______ _______ _______ _____ _____    ______ ____
ROOT
ATOM      1  S   UNL     1       1.377   1.661  -2.862  0.00  0.00    -0.078 S 
ENDROOT
BRANCH   1   2
ATOM      2  C   UNL     1      -0.282   1.804  -2.288  0.00  0.00    +0.209 A 
ATOM      3  N   UNL     1      -1.313   2.232  -2.980  0.00  0.00    -0.121 NA
ATOM      4  N   UNL     1      -2.369   2.211  -2.248  0.00  0.00    -0.128 NA
ATOM      5  C   UNL     1      -2.079   1.768  -1.057  0.00  0.00    +0.189 A 
ATOM      6  N   UNL     1      -0.741   1.490  -1.041  0.00  0.00    -0.225 N 
BRANCH   6   7
ATOM      7  N   UNL     1      -0.012   1.005   0.008  0.00  0.00    -0.295 N 
ATOM      8  H   UNL     1      -0.504   0.791   0.968  0.00  0.00    +0.163 HD
ATOM      9  H   UNL     1       1.068   0.828  -0.108  0.00  0.00    +0.163 HD
ENDBRANCH   6   7
BRANCH   5  10
ATOM     10  C   UNL     1      -3.042   1.594   0.090  0.00  0.00    +0.306 C 
BRANCH  10  11
ATOM     11  O   UNL     1      -3.090   2.798   0.858  0.00  0.00    -0.484 OA
BRANCH  11  12
ATOM     12  C   UNL     1      -3.916   2.809   1.937  0.00  0.00    +0.121 A 
ATOM     13  C   UNL     1      -4.670   1.686   2.246  0.00  0.00    +0.048 A 
ATOM     14  C   UNL     1      -5.504   1.696   3.347  0.00  0.00    +0.042 A 
ATOM     15  C   UNL     1      -5.598   2.830   4.135  0.00  0.00    +0.124 A 
ATOM     16  C   UNL     1      -4.852   3.954   3.824  0.00  0.00    +0.042 A 
ATOM     17  C   UNL     1      -4.011   3.945   2.728  0.00  0.00    +0.048 A 
ATOM     18  F   UNL     1      -6.419   2.841   5.208  0.00  0.00    -0.205 F 
ENDBRANCH  11  12
ENDBRANCH  10  11
ENDBRANCH   5  10
ENDBRANCH   1   2
BRANCH   1  19
ATOM     19  C   UNL     1       1.175   2.253  -4.560  0.00  0.00    +0.133 C 
BRANCH  19  29
ATOM     20  C   UNL     1       3.339   3.350  -5.220  0.00  0.00    +0.085 A 
ATOM     21  C   UNL     1       4.571   3.320  -5.865  0.00  0.00    -0.026 A 
ATOM     22  C   UNL     1       4.926   2.147  -6.552  0.00  0.00    +0.004 A 
ATOM     23  C   UNL     1       6.151   2.045  -7.233  0.00  0.00    +0.010 A 
ATOM     24  C   UNL     1       6.463   0.893  -7.889  0.00  0.00    +0.001 A 
ATOM     25  C   UNL     1       5.582  -0.187  -7.893  0.00  0.00    +0.002 A 
ATOM     26  C   UNL     1       4.386  -0.122  -7.244  0.00  0.00    +0.028 A 
ATOM     27  C   UNL     1       4.028   1.050  -6.556  0.00  0.00    +0.072 A 
ATOM     28  N   UNL     1       2.858   1.135  -5.912  0.00  0.00    -0.250 NA
ATOM     29  C   UNL     1       2.506   2.217  -5.266  0.00  0.00    +0.066 A 
ATOM     30  C   UNL     1       5.492   4.512  -5.835  0.00  0.00    +0.045 C 
BRANCH  20  31
ATOM     31  C   UNL     1       2.911   4.558  -4.487  0.00  0.00    +0.341 C 
ATOM     32  O   UNL     1       3.189   4.686  -3.312  0.00  0.00    -0.245 OA
BRANCH  31  33
ATOM     33  O   UNL     1       2.212   5.519  -5.122  0.00  0.00    -0.461 OA
BRANCH  33  35
ATOM     34  C   UNL     1       1.046   7.654  -5.224  0.00  0.00    +0.048 C 
ATOM     35  C   UNL     1       1.825   6.679  -4.340  0.00  0.00    +0.229 C 
ENDBRANCH  33  35
ENDBRANCH  31  33
ENDBRANCH  20  31
ENDBRANCH  19  29
ENDBRANCH   1  19
TORSDOF 10
