REMARK  Name = ZINC09377086
REMARK  11 active torsions:
REMARK  status: ('A' for Active; 'I' for Inactive)
REMARK    1  A    between atoms: C_4  and  C_7
REMARK    2  A    between atoms: C_8  and  S_9
REMARK    3  A    between atoms: S_9  and  N_12
REMARK    4  A    between atoms: C_15  and  C_18
REMARK    5  A    between atoms: N_20  and  C_21
REMARK    6  A    between atoms: C_21  and  C_22
REMARK    7  A    between atoms: C_22  and  C_23
REMARK    8  A    between atoms: C_23  and  C_24
REMARK    9  A    between atoms: C_24  and  C_25
REMARK   10  A    between atoms: C_25  and  C_26
REMARK   11  A    between atoms: C_27  and  C_33
REMARK                            x       y       z     vdW  Elec       q    Type
REMARK                         _______ _______ _______ _____ _____    ______ ____
ROOT
ATOM      1  C   UNL     1       3.663  -4.740   5.091  0.00  0.00    +0.216 C 
ATOM      2  O   UNL     1       3.347  -3.744   5.707  0.00  0.00    -0.276 OA
ATOM      3  N   UNL     1       3.175  -5.942   5.457  0.00  0.00    -0.315 N 
ATOM      4  H   UNL     1       3.428  -6.739   4.964  0.00  0.00    +0.149 HD
ENDROOT
BRANCH   1   8
ATOM      5  N   UNL     1       5.374  -3.696   1.362  0.00  0.00    -0.177 NA
ATOM      6  C   UNL     1       5.984  -3.071   2.543  0.00  0.00    +0.110 C 
ATOM      7  C   UNL     1       5.003  -3.171   3.716  0.00  0.00    +0.030 C 
ATOM      8  C   UNL     1       4.601  -4.634   3.916  0.00  0.00    +0.077 C 
ATOM      9  C   UNL     1       3.902  -5.150   2.657  0.00  0.00    +0.030 C 
ATOM     10  C   UNL     1       4.865  -5.070   1.474  0.00  0.00    +0.110 C 
BRANCH   5  11
ATOM     11  S   UNL     1       5.256  -2.867  -0.066  0.00  0.00    +0.054 S 
ATOM     12  O   UNL     1       5.165  -3.841  -1.096  0.00  0.00    -0.153 OA
ATOM     13  O   UNL     1       6.273  -1.874  -0.044  0.00  0.00    -0.153 OA
BRANCH  11  15
ATOM     14  C   UNL     1       3.695  -0.685  -0.038  0.00  0.00    +0.028 C 
ATOM     15  C   UNL     1       3.716  -2.010  -0.046  0.00  0.00    +0.153 C 
BRANCH  14  19
ATOM     16  C   UNL     1      -0.017   1.379   0.010  0.00  0.00    +0.000 A 
ATOM     17  C   UNL     1       1.168   2.093   0.002  0.00  0.00    +0.001 A 
ATOM     18  C   UNL     1       2.377   1.429  -0.013  0.00  0.00    +0.008 A 
ATOM     19  C   UNL     1       2.403   0.034  -0.021  0.00  0.00    -0.024 A 
ATOM     20  C   UNL     1       1.204  -0.681  -0.013  0.00  0.00    +0.008 A 
ATOM     21  C   UNL     1       0.002  -0.004   0.002  0.00  0.00    +0.001 A 
ENDBRANCH  14  19
ENDBRANCH  11  15
ENDBRANCH   5  11
ENDBRANCH   1   8
BRANCH   3  22
ATOM     22  C   UNL     1       2.263  -6.046   6.599  0.00  0.00    +0.104 C 
BRANCH  22  23
ATOM     23  C   UNL     1       1.861  -7.508   6.799  0.00  0.00    +0.019 C 
BRANCH  23  24
ATOM     24  C   UNL     1       0.909  -7.616   7.992  0.00  0.00    +0.002 C 
BRANCH  24  25
ATOM     25  C   UNL     1       0.507  -9.079   8.192  0.00  0.00    +0.006 C 
BRANCH  25  26
ATOM     26  C   UNL     1      -0.446  -9.187   9.385  0.00  0.00    +0.056 C 
BRANCH  26  27
ATOM     27  C   UNL     1      -0.842 -10.627   9.582  0.00  0.00    +0.055 A 
ATOM     28  C   UNL     1      -0.138 -11.577  10.297  0.00  0.00    +0.113 A 
ATOM     29  C   UNL     1      -0.874 -12.787  10.220  0.00  0.00    +0.156 A 
ATOM     30  N   UNL     1      -1.946 -12.561   9.503  0.00  0.00    -0.158 NA
ATOM     31  N   UNL     1      -1.946 -11.221   9.101  0.00  0.00    -0.279 N 
ATOM     32  H   UNL     1      -2.630 -10.792   8.562  0.00  0.00    +0.189 HD
ATOM     33  N   UNL     1      -0.518 -14.003  10.805  0.00  0.00    -0.341 N 
ATOM     34  H   UNL     1       0.300 -14.072  11.321  0.00  0.00    +0.144 HD
ATOM     35  H   UNL     1      -1.089 -14.780  10.696  0.00  0.00    +0.144 HD
BRANCH  28  36
ATOM     36  C   UNL     1       1.101 -11.377  10.986  0.00  0.00    +0.104 C 
ATOM     37  N   UNL     1       2.085 -11.218  11.532  0.00  0.00    -0.191 NA
ENDBRANCH  28  36
ENDBRANCH  26  27
ENDBRANCH  25  26
ENDBRANCH  24  25
ENDBRANCH  23  24
ENDBRANCH  22  23
ENDBRANCH   3  22
TORSDOF 11
