REMARK  Name = ZINC63375113
REMARK  10 active torsions:
REMARK  status: ('A' for Active; 'I' for Inactive)
REMARK    1  A    between atoms: C_1  and  C_2
REMARK    2  A    between atoms: C_2  and  C_3
REMARK    3  A    between atoms: C_2  and  C_4
REMARK    4  A    between atoms: C_4  and  C_6
REMARK    5  A    between atoms: C_4  and  N_18
REMARK    6  A    between atoms: N_8  and  C_9
REMARK    7  A    between atoms: C_9  and  C_10
REMARK    8  A    between atoms: C_10  and  C_11
REMARK    9  A    between atoms: C_11  and  C_12
REMARK   10  A    between atoms: C_21  and  C_37
REMARK                            x       y       z     vdW  Elec       q    Type
REMARK                         _______ _______ _______ _____ _____    ______ ____
ROOT
ATOM      1  N   UNL     1      -1.770  -1.916   0.513  0.00  0.00    -0.212 N 
ATOM      2  C   UNL     1      -2.320  -2.291   1.686  0.00  0.00    +0.249 C 
ATOM      3  O   UNL     1      -2.603  -1.577   2.624  0.00  0.00    -0.273 OA
ATOM      4  C   UNL     1      -2.511  -3.788   1.587  0.00  0.00    +0.136 C 
ATOM      5  C   UNL     1      -1.744  -4.505   2.697  0.00  0.00    +0.139 C 
ATOM      6  C   UNL     1      -0.596  -5.259   2.040  0.00  0.00    -0.034 C 
ATOM      7  C   UNL     1       0.515  -4.838   2.639  0.00  0.00    -0.001 A 
ATOM      8  C   UNL     1       1.921  -5.244   2.485  0.00  0.00    +0.010 A 
ATOM      9  C   UNL     1       2.823  -4.588   3.263  0.00  0.00    +0.001 A 
ATOM     10  C   UNL     1       2.470  -3.581   4.167  0.00  0.00    +0.002 A 
ATOM     11  C   UNL     1       1.201  -3.149   4.377  0.00  0.00    +0.026 A 
ATOM     12  C   UNL     1       0.164  -3.767   3.619  0.00  0.00    +0.043 A 
ATOM     13  N   UNL     1      -1.135  -3.562   3.637  0.00  0.00    -0.375 N 
ATOM     14  C   UNL     1      -0.775  -6.219   0.891  0.00  0.00    +0.052 C 
ATOM     15  C   UNL     1      -1.606  -5.487  -0.182  0.00  0.00    +0.115 C 
ATOM     16  N   UNL     1      -1.869  -4.129   0.301  0.00  0.00    -0.269 N 
ATOM     17  C   UNL     1      -1.553  -2.968  -0.289  0.00  0.00    +0.313 C 
ATOM     18  O   UNL     1      -1.116  -2.879  -1.420  0.00  0.00    -0.252 OA
ATOM     19  C   UNL     1      -3.995  -4.161   1.587  0.00  0.00    +0.044 C 
ATOM     20  H   UNL     1      -1.610  -2.905   4.169  0.00  0.00    +0.160 HD
ENDROOT
BRANCH   1  21
ATOM     21  C   UNL     1      -1.454  -0.531   0.157  0.00  0.00    +0.174 C 
BRANCH  21  22
ATOM     22  C   UNL     1      -2.227  -0.140  -1.076  0.00  0.00    +0.234 C 
ATOM     23  O   UNL     1      -2.777  -0.991  -1.742  0.00  0.00    -0.274 OA
ATOM     24  N   UNL     1      -2.307   1.156  -1.438  0.00  0.00    -0.314 N 
ATOM     25  H   UNL     1      -1.911   1.842  -0.878  0.00  0.00    +0.149 HD
BRANCH  24  26
ATOM     26  C   UNL     1      -2.993   1.528  -2.678  0.00  0.00    +0.104 C 
BRANCH  26  27
ATOM     27  C   UNL     1      -2.940   3.048  -2.853  0.00  0.00    +0.023 C 
BRANCH  27  28
ATOM     28  C   UNL     1      -3.656   3.437  -4.148  0.00  0.00    +0.036 C 
BRANCH  28  29
ATOM     29  C   UNL     1      -3.605   4.933  -4.321  0.00  0.00    -0.047 A 
ATOM     30  C   UNL     1      -4.609   5.724  -3.794  0.00  0.00    +0.003 A 
ATOM     31  C   UNL     1      -4.561   7.097  -3.952  0.00  0.00    +0.000 A 
ATOM     32  C   UNL     1      -3.510   7.678  -4.636  0.00  0.00    +0.000 A 
ATOM     33  C   UNL     1      -2.506   6.887  -5.162  0.00  0.00    +0.000 A 
ATOM     34  C   UNL     1      -2.551   5.515  -5.000  0.00  0.00    +0.003 A 
ENDBRANCH  28  29
ENDBRANCH  27  28
ENDBRANCH  26  27
ENDBRANCH  24  26
ENDBRANCH  21  22
BRANCH  21  36
ATOM     35  C   UNL     1       0.398   1.064  -0.362  0.00  0.00    +0.009 C 
ATOM     36  C   UNL     1       0.046  -0.405  -0.120  0.00  0.00    +0.013 C 
ATOM     37  C   UNL     1       0.833  -0.926   1.083  0.00  0.00    +0.009 C 
ENDBRANCH  21  36
ENDBRANCH   1  21
TORSDOF 7
