REMARK  Name = ZINC05354874
REMARK  11 active torsions:
REMARK  status: ('A' for Active; 'I' for Inactive)
REMARK    1  A    between atoms: C_1  and  C_2
REMARK    2  A    between atoms: C_2  and  C_4
REMARK    3  A    between atoms: C_2  and  N_59
REMARK    4  A    between atoms: C_15  and  C_16
REMARK    5  A    between atoms: C_15  and  N_59
REMARK    6  A    between atoms: C_16  and  C_17
REMARK    7  A    between atoms: C_17  and  C_18
REMARK    8  A    between atoms: C_18  and  N_62
REMARK    9  A    between atoms: C_19  and  C_21
REMARK   10  A    between atoms: C_19  and  C_22
REMARK   11  A    between atoms: C_19  and  N_62
REMARK                            x       y       z     vdW  Elec       q    Type
REMARK                         _______ _______ _______ _____ _____    ______ ____
ROOT
ATOM      1  C   UNL     1       4.959   5.238  -1.775  0.00  0.00    -0.021 C 
ENDROOT
BRANCH   1   2
ATOM      2  C   UNL     1       4.967   3.956  -0.941  0.00  0.00    -0.082 C 
BRANCH   2   3
ATOM      3  N   UNL     1       3.586   3.454  -0.813  0.00  0.00    +0.383 N 
ATOM      4  H   UNL     1       3.008   4.166  -0.352  0.00  0.00    -0.085 HD
ATOM      5  H   UNL     1       3.208   3.259  -1.748  0.00  0.00    -0.085 HD
BRANCH   3   7
ATOM      6  C   UNL     1       3.505   2.570   1.475  0.00  0.00    -0.010 C 
ATOM      7  C   UNL     1       3.563   2.215  -0.012  0.00  0.00    -0.030 C 
BRANCH   7   8
ATOM      8  C   UNL     1       2.327   1.396  -0.390  0.00  0.00    +0.197 C 
ATOM      9  C   UNL     1       2.354   0.050   0.347  0.00  0.00    +0.272 C 
ATOM     10  O   UNL     1       1.181  -0.685  -0.019  0.00  0.00    -0.485 OA
ATOM     11  C   UNL     1       0.002  -0.004   0.002  0.00  0.00    +0.162 A 
ATOM     12  C   UNL     1      -1.192  -0.710   0.015  0.00  0.00    +0.049 A 
ATOM     13  C   UNL     1      -2.396  -0.033   0.034  0.00  0.00    +0.004 A 
ATOM     14  C   UNL     1      -2.415   1.349   0.039  0.00  0.00    +0.004 A 
ATOM     15  C   UNL     1      -1.229   2.059   0.031  0.00  0.00    +0.049 A 
ATOM     16  C   UNL     1      -0.017   1.385   0.010  0.00  0.00    +0.162 A 
ATOM     17  O   UNL     1       1.143   2.098   0.002  0.00  0.00    -0.483 OA
ENDBRANCH   7   8
ENDBRANCH   3   7
ENDBRANCH   2   3
ENDBRANCH   1   2
BRANCH   1  18
ATOM     18  C   UNL     1       6.389   5.766  -1.912  0.00  0.00    -0.021 C 
BRANCH  18  19
ATOM     19  C   UNL     1       6.381   7.049  -2.746  0.00  0.00    -0.082 C 
BRANCH  19  20
ATOM     20  N   UNL     1       7.762   7.551  -2.873  0.00  0.00    +0.383 N 
ATOM     21  H   UNL     1       8.340   6.838  -3.335  0.00  0.00    -0.085 HD
ATOM     22  H   UNL     1       8.140   7.745  -1.938  0.00  0.00    -0.085 HD
BRANCH  20  23
ATOM     23  C   UNL     1       7.785   8.789  -3.674  0.00  0.00    -0.030 C 
ATOM     24  C   UNL     1       7.500   9.989  -2.768  0.00  0.00    -0.010 C 
BRANCH  23  25
ATOM     25  C   UNL     1       9.167   8.949  -4.312  0.00  0.00    +0.197 C 
ATOM     26  C   UNL     1       9.465   7.742  -5.211  0.00  0.00    +0.272 C 
ATOM     27  O   UNL     1      10.767   7.917  -5.779  0.00  0.00    -0.485 OA
ATOM     28  C   UNL     1      11.759   8.302  -4.930  0.00  0.00    +0.162 A 
ATOM     29  C   UNL     1      13.083   8.144  -5.313  0.00  0.00    +0.049 A 
ATOM     30  C   UNL     1      14.100   8.532  -4.462  0.00  0.00    +0.004 A 
ATOM     31  C   UNL     1      13.802   9.079  -3.228  0.00  0.00    +0.004 A 
ATOM     32  C   UNL     1      12.485   9.238  -2.840  0.00  0.00    +0.049 A 
ATOM     33  C   UNL     1      11.459   8.849  -3.688  0.00  0.00    +0.162 A 
ATOM     34  O   UNL     1      10.167   9.006  -3.289  0.00  0.00    -0.483 OA
ENDBRANCH  23  25
ENDBRANCH  20  23
ENDBRANCH  19  20
ENDBRANCH  18  19
ENDBRANCH   1  18
TORSDOF 9
