REMARK  Name = ZINC08920656
REMARK  11 active torsions:
REMARK  status: ('A' for Active; 'I' for Inactive)
REMARK    1  A    between atoms: C_1  and  C_2
REMARK    2  A    between atoms: C_2  and  C_3
REMARK    3  A    between atoms: C_3  and  N_67
REMARK    4  A    between atoms: C_9  and  N_15
REMARK    5  A    between atoms: C_10  and  C_11
REMARK    6  A    between atoms: N_13  and  C_14
REMARK    7  A    between atoms: C_16  and  C_18
REMARK    8  A    between atoms: C_21  and  S_24
REMARK    9  A    between atoms: S_24  and  N_27
REMARK   10  A    between atoms: C_31  and  C_32
REMARK   11  A    between atoms: C_31  and  C_33
REMARK                            x       y       z     vdW  Elec       q    Type
REMARK                         _______ _______ _______ _____ _____    ______ ____
ROOT
ATOM      1  N   UNL     1      -1.320   3.464   0.027  0.00  0.00    -0.275 N 
ATOM      2  C   UNL     1      -1.305   2.117   0.020  0.00  0.00    +0.249 C 
ATOM      3  O   UNL     1      -2.351   1.497   0.021  0.00  0.00    -0.270 OA
ATOM      4  H   UNL     1      -0.485   3.958   0.026  0.00  0.00    +0.156 HD
ENDROOT
BRANCH   1  10
ATOM      5  C   UNL     1      -6.014   7.510  -0.372  0.00  0.00    -0.074 C 
ATOM      6  C   UNL     1      -4.546   7.437   0.060  0.00  0.00    +0.018 C 
ATOM      7  C   UNL     1      -4.121   5.973   0.054  0.00  0.00    -0.027 A 
ATOM      8  C   UNL     1      -5.056   4.996   0.054  0.00  0.00    -0.021 A 
ATOM      9  S   UNL     1      -4.131   3.488   0.033  0.00  0.00    -0.079 S 
ATOM     10  C   UNL     1      -2.527   4.144   0.036  0.00  0.00    +0.085 A 
ATOM     11  C   UNL     1      -2.745   5.516   0.045  0.00  0.00    +0.068 A 
ATOM     12  C   UNL     1      -6.540   5.186   0.064  0.00  0.00    -0.035 C 
ATOM     13  N   UNL     1      -6.816   6.588   0.458  0.00  0.00    +0.383 N 
ATOM     14  H   UNL     1      -6.557   6.715   1.444  0.00  0.00    -0.081 HD
BRANCH  11  15
ATOM     15  C   UNL     1      -1.627   6.464   0.045  0.00  0.00    +0.246 C 
ATOM     16  O   UNL     1      -1.168   6.863  -1.010  0.00  0.00    -0.270 OA
ATOM     17  N   UNL     1      -1.108   6.894   1.212  0.00  0.00    -0.314 N 
ATOM     18  C   UNL     1       0.009   7.842   1.211  0.00  0.00    +0.128 C 
ATOM     19  H   UNL     1      -1.474   6.576   2.052  0.00  0.00    +0.149 HD
ENDBRANCH  11  15
BRANCH  13  20
ATOM     20  C   UNL     1      -8.255   6.886   0.298  0.00  0.00    -0.079 C 
BRANCH  20  22
ATOM     21  C   UNL     1     -10.566   6.077   0.800  0.00  0.00    +0.002 C 
ATOM     22  C   UNL     1      -9.075   5.764   0.940  0.00  0.00    -0.022 C 
ENDBRANCH  20  22
ENDBRANCH  13  20
ENDBRANCH   1  10
BRANCH   2  23
ATOM     23  C   UNL     1      -0.017   1.392   0.010  0.00  0.00    +0.037 A 
ATOM     24  C   UNL     1       1.186   2.100   0.002  0.00  0.00    +0.015 A 
ATOM     25  C   UNL     1       2.385   1.417  -0.014  0.00  0.00    +0.029 A 
ATOM     26  C   UNL     1       2.396   0.034  -0.021  0.00  0.00    +0.106 A 
ATOM     27  C   UNL     1       1.208  -0.674  -0.013  0.00  0.00    +0.029 A 
ATOM     28  C   UNL     1       0.002  -0.004   0.002  0.00  0.00    +0.015 A 
BRANCH  26  29
ATOM     29  S   UNL     1       3.932  -0.830  -0.040  0.00  0.00    +0.063 S 
ATOM     30  O   UNL     1       4.902   0.053   0.506  0.00  0.00    -0.153 OA
ATOM     31  O   UNL     1       3.680  -2.118   0.506  0.00  0.00    -0.153 OA
BRANCH  29  32
ATOM     32  N   UNL     1       4.343  -1.062  -1.627  0.00  0.00    -0.144 NA
ATOM     33  C   UNL     1       5.143  -0.159  -2.479  0.00  0.00    +0.270 C 
ATOM     34  O   UNL     1       4.748  -0.452  -3.837  0.00  0.00    -0.361 OA
ATOM     35  C   UNL     1       4.606  -1.891  -3.857  0.00  0.00    +0.185 C 
ATOM     36  C   UNL     1       3.991  -2.217  -2.478  0.00  0.00    +0.063 C 
ATOM     37  C   UNL     1       4.598  -3.501  -1.910  0.00  0.00    +0.032 C 
ATOM     38  C   UNL     1       2.471  -2.350  -2.593  0.00  0.00    +0.032 C 
ENDBRANCH  29  32
ENDBRANCH  26  29
ENDBRANCH   2  23
TORSDOF 7
