REMARK  Name = ZINC00808831
REMARK  9 active torsions:
REMARK  status: ('A' for Active; 'I' for Inactive)
REMARK    1  A    between atoms: C_1  and  C_2
REMARK    2  A    between atoms: C_2  and  C_3
REMARK    3  A    between atoms: C_2  and  O_4
REMARK    4  A    between atoms: O_4  and  C_5
REMARK    5  A    between atoms: C_8  and  C_13
REMARK    6  A    between atoms: C_10  and  O_11
REMARK    7  A    between atoms: O_11  and  C_12
REMARK    8  A    between atoms: C_27  and  N_31
REMARK    9  A    between atoms: C_28  and  C_29
REMARK                            x       y       z     vdW  Elec       q    Type
REMARK                         _______ _______ _______ _____ _____    ______ ____
ROOT
ATOM      1  C   UNL     1       1.670   2.899   0.226  0.00  0.00    +0.105 C 
ATOM      2  C   UNL     1       1.828   1.411   0.389  0.00  0.00    +0.092 A 
ATOM      3  C   UNL     1       0.734   0.598   0.445  0.00  0.00    +0.152 A 
ATOM      4  C   UNL     1       0.950  -0.848   0.609  0.00  0.00    +0.060 A 
ATOM      5  C   UNL     1      -0.126  -1.735   0.675  0.00  0.00    +0.015 A 
ATOM      6  C   UNL     1       0.111  -3.083   0.829  0.00  0.00    +0.001 A 
ATOM      7  C   UNL     1       1.411  -3.559   0.917  0.00  0.00    +0.004 A 
ATOM      8  C   UNL     1       2.483  -2.694   0.852  0.00  0.00    +0.047 A 
ATOM      9  C   UNL     1       2.265  -1.331   0.698  0.00  0.00    +0.143 A 
ATOM     10  O   UNL     1       3.303  -0.469   0.633  0.00  0.00    -0.422 OA
ATOM     11  C   UNL     1       3.114   0.852   0.484  0.00  0.00    +0.345 A 
ATOM     12  O   UNL     1       4.085   1.587   0.431  0.00  0.00    -0.245 OA
ATOM     13  O   UNL     1      -0.515   1.091   0.350  0.00  0.00    -0.440 OA
ATOM     14  C   UNL     1      -0.719   2.316  -0.162  0.00  0.00    +0.199 C 
ATOM     15  C   UNL     1       0.282   3.224  -0.253  0.00  0.00    +0.098 C 
ENDROOT
BRANCH   1  19
ATOM     16  C   UNL     1       2.343   4.812   3.991  0.00  0.00    +0.162 A 
ATOM     17  C   UNL     1       1.323   3.884   3.855  0.00  0.00    +0.050 A 
ATOM     18  C   UNL     1       1.105   3.271   2.635  0.00  0.00    +0.008 A 
ATOM     19  C   UNL     1       1.908   3.574   1.552  0.00  0.00    -0.031 A 
ATOM     20  C   UNL     1       2.927   4.499   1.681  0.00  0.00    +0.054 A 
ATOM     21  C   UNL     1       3.148   5.121   2.899  0.00  0.00    +0.162 A 
BRANCH  21  22
ATOM     22  O   UNL     1       4.150   6.032   3.028  0.00  0.00    -0.491 OA
ATOM     23  C   UNL     1       4.936   6.300   1.865  0.00  0.00    +0.277 C 
ENDBRANCH  21  22
BRANCH  16  24
ATOM     24  O   UNL     1       2.555   5.420   5.189  0.00  0.00    -0.486 OA
BRANCH  24  26
ATOM     25  C   UNL     1       2.017   3.853   6.948  0.00  0.00    +0.051 C 
ATOM     26  C   UNL     1       1.618   5.145   6.231  0.00  0.00    +0.167 C 
ATOM     27  C   UNL     1       1.613   6.303   7.231  0.00  0.00    +0.051 C 
ENDBRANCH  24  26
ENDBRANCH  16  24
ENDBRANCH   1  19
BRANCH  14  28
ATOM     28  N   UNL     1      -1.972   2.654  -0.610  0.00  0.00    -0.328 N 
ATOM     29  H   UNL     1      -2.132   3.534  -0.985  0.00  0.00    +0.145 HD
ATOM     30  H   UNL     1      -2.698   2.013  -0.550  0.00  0.00    +0.145 HD
ENDBRANCH  14  28
BRANCH  15  31
ATOM     31  C   UNL     1       0.014   4.514  -0.812  0.00  0.00    +0.101 C 
ATOM     32  N   UNL     1      -0.198   5.538  -1.256  0.00  0.00    -0.191 NA
ENDBRANCH  15  31
TORSDOF 6
