REMARK  Name = ZINC04766813
REMARK  7 active torsions:
REMARK  status: ('A' for Active; 'I' for Inactive)
REMARK    1  A    between atoms: C_1  and  C_2
REMARK    2  A    between atoms: C_5  and  C_8
REMARK    3  A    between atoms: C_9  and  C_24
REMARK    4  A    between atoms: C_12  and  S_14
REMARK    5  A    between atoms: S_14  and  C_15
REMARK    6  A    between atoms: C_15  and  C_16
REMARK    7  A    between atoms: C_27  and  C_30
REMARK                            x       y       z     vdW  Elec       q    Type
REMARK                         _______ _______ _______ _____ _____    ______ ____
ROOT
ATOM      1  C   UNL     1       2.344   1.271  -0.013  0.00  0.00    +0.102 A 
ATOM      2  C   UNL     1       1.121   1.972   0.002  0.00  0.00    +0.119 A 
ATOM      3  N   UNL     1      -0.015   1.283   0.009  0.00  0.00    -0.145 NA
ATOM      4  N   UNL     1       0.002  -0.004   0.002  0.00  0.00    -0.122 NA
ATOM      5  C   UNL     1       1.142  -0.685  -0.013  0.00  0.00    +0.210 A 
ATOM      6  N   UNL     1       2.313  -0.060  -0.020  0.00  0.00    -0.218 NA
ENDROOT
BRANCH   1  11
ATOM      7  C   UNL     1       7.358   4.099  -0.046  0.00  0.00    +0.044 C 
ATOM      8  C   UNL     1       6.045   3.359  -0.037  0.00  0.00    -0.050 A 
ATOM      9  C   UNL     1       5.935   2.161   0.645  0.00  0.00    +0.004 A 
ATOM     10  C   UNL     1       4.736   1.478   0.657  0.00  0.00    +0.010 A 
ATOM     11  C   UNL     1       3.634   1.999  -0.022  0.00  0.00    +0.003 A 
ATOM     12  C   UNL     1       3.753   3.204  -0.713  0.00  0.00    +0.010 A 
ATOM     13  C   UNL     1       4.956   3.880  -0.713  0.00  0.00    +0.004 A 
ENDBRANCH   1  11
BRANCH   2  14
ATOM     14  C   UNL     1       1.103   3.453   0.010  0.00  0.00    +0.004 A 
ATOM     15  C   UNL     1       2.085   4.162   0.701  0.00  0.00    +0.010 A 
ATOM     16  C   UNL     1       2.065   5.541   0.701  0.00  0.00    +0.004 A 
ATOM     17  C   UNL     1       1.068   6.222   0.025  0.00  0.00    -0.050 A 
ATOM     18  C   UNL     1       0.088   5.524  -0.658  0.00  0.00    +0.004 A 
ATOM     19  C   UNL     1       0.100   4.144  -0.669  0.00  0.00    +0.010 A 
ATOM     20  C   UNL     1       1.049   7.729   0.034  0.00  0.00    +0.044 C 
ENDBRANCH   2  14
BRANCH   5  21
ATOM     21  S   UNL     1       1.100  -2.447  -0.021  0.00  0.00    -0.075 S 
BRANCH  21  22
ATOM     22  C   UNL     1      -0.689  -2.718  -0.005  0.00  0.00    +0.173 C 
BRANCH  22  23
ATOM     23  C   UNL     1      -0.973  -4.198  -0.010  0.00  0.00    +0.233 C 
ATOM     24  O   UNL     1      -0.055  -4.991  -0.023  0.00  0.00    -0.274 OA
ATOM     25  N   UNL     1      -2.246  -4.641   0.001  0.00  0.00    -0.224 N 
ATOM     26  C   UNL     1      -2.657  -6.053  -0.003  0.00  0.00    +0.136 C 
ATOM     27  C   UNL     1      -4.197  -5.988   0.013  0.00  0.00    +0.125 C 
ATOM     28  N   UNL     1      -4.489  -4.547   0.023  0.00  0.00    -0.297 N 
ATOM     29  C   UNL     1      -3.337  -3.864   0.021  0.00  0.00    +0.309 C 
ATOM     30  O   UNL     1      -3.286  -2.650   0.033  0.00  0.00    -0.252 OA
ATOM     31  H   UNL     1      -5.376  -4.154   0.034  0.00  0.00    +0.150 HD
ENDBRANCH  22  23
ENDBRANCH  21  22
ENDBRANCH   5  21
TORSDOF 5
