REMARK  Name = ZINC39534229
REMARK  9 active torsions:
REMARK  status: ('A' for Active; 'I' for Inactive)
REMARK    1  A    between atoms: C_4  and  C_7
REMARK    2  A    between atoms: C_7  and  C_8
REMARK    3  A    between atoms: N_11  and  C_15
REMARK    4  A    between atoms: C_15  and  C_17
REMARK    5  A    between atoms: C_15  and  C_20
REMARK    6  A    between atoms: C_17  and  N_18
REMARK    7  A    between atoms: C_23  and  S_26
REMARK    8  A    between atoms: S_26  and  O_29
REMARK    9  A    between atoms: O_29  and  C_30
REMARK                            x       y       z     vdW  Elec       q    Type
REMARK                         _______ _______ _______ _____ _____    ______ ____
ROOT
ATOM      1  C   UNL     1       7.357  -2.415   2.801  0.00  0.00    +0.103 C 
ENDROOT
BRANCH   1   4
ATOM      2  C   UNL     1       4.158  -0.721   1.759  0.00  0.00    -0.053 C 
ATOM      3  C   UNL     1       5.503  -1.431   1.592  0.00  0.00    +0.069 C 
ATOM      4  N   UNL     1       6.037  -1.781   2.917  0.00  0.00    -0.297 NA
ATOM      5  C   UNL     1       5.098  -2.646   3.645  0.00  0.00    +0.066 C 
ATOM      6  C   UNL     1       3.756  -1.926   3.795  0.00  0.00    -0.067 C 
ATOM      7  N   UNL     1       3.221  -1.605   2.465  0.00  0.00    +0.383 N 
ATOM      8  H   UNL     1       2.331  -1.141   2.564  0.00  0.00    -0.085 HD
ATOM      9  H   UNL     1       3.100  -2.457   1.937  0.00  0.00    -0.085 HD
BRANCH   2  10
ATOM     10  C   UNL     1       3.591  -0.373   0.381  0.00  0.00    +0.020 C 
BRANCH  10  14
ATOM     11  C   UNL     1       0.013   1.913   0.848  0.00  0.00    +0.000 A 
ATOM     12  C   UNL     1       1.235   2.552   0.763  0.00  0.00    +0.000 A 
ATOM     13  C   UNL     1       2.393   1.813   0.613  0.00  0.00    +0.003 A 
ATOM     14  C   UNL     1       2.328   0.433   0.547  0.00  0.00    -0.049 A 
ATOM     15  C   UNL     1       1.106  -0.206   0.632  0.00  0.00    +0.003 A 
ATOM     16  C   UNL     1      -0.052   0.534   0.782  0.00  0.00    +0.000 A 
ENDBRANCH  10  14
ENDBRANCH   2  10
ENDBRANCH   1   4
BRANCH   1  17
ATOM     17  C   UNL     1       7.907  -2.683   4.179  0.00  0.00    -0.029 A 
ATOM     18  C   UNL     1       7.732  -1.753   5.186  0.00  0.00    +0.007 A 
ATOM     19  C   UNL     1       8.237  -1.998   6.449  0.00  0.00    +0.031 A 
ATOM     20  C   UNL     1       8.916  -3.175   6.705  0.00  0.00    +0.128 A 
ATOM     21  C   UNL     1       9.090  -4.106   5.698  0.00  0.00    +0.031 A 
ATOM     22  C   UNL     1       8.582  -3.862   4.436  0.00  0.00    +0.007 A 
BRANCH  20  23
ATOM     23  S   UNL     1       9.560  -3.488   8.315  0.00  0.00    +0.151 S 
ATOM     24  O   UNL     1      10.626  -4.413   8.153  0.00  0.00    -0.131 OA
ATOM     25  O   UNL     1       9.739  -2.221   8.934  0.00  0.00    -0.131 OA
BRANCH  23  26
ATOM     26  O   UNL     1       8.475  -4.207   9.102  0.00  0.00    -0.342 OA
BRANCH  26  27
ATOM     27  C   UNL     1       8.314  -5.512   8.756  0.00  0.00    +0.157 A 
ATOM     28  C   UNL     1       7.425  -5.859   7.749  0.00  0.00    +0.048 A 
ATOM     29  C   UNL     1       7.263  -7.185   7.399  0.00  0.00    +0.004 A 
ATOM     30  C   UNL     1       7.986  -8.167   8.052  0.00  0.00    +0.000 A 
ATOM     31  C   UNL     1       8.872  -7.824   9.056  0.00  0.00    +0.004 A 
ATOM     32  C   UNL     1       9.042  -6.498   9.405  0.00  0.00    +0.048 A 
ENDBRANCH  26  27
ENDBRANCH  23  26
ENDBRANCH  20  23
ENDBRANCH   1  17
BRANCH   1  33
ATOM     33  C   UNL     1       8.306  -1.484   2.045  0.00  0.00    +0.140 C 
BRANCH  33  34
ATOM     34  N   UNL     1       9.604  -2.147   1.866  0.00  0.00    -0.157 NA
ATOM     35  F   UNL     1      10.469  -1.341   1.327  0.00  0.00    -0.136 F 
ATOM     36  H   UNL     1       9.507  -2.991   1.321  0.00  0.00    +0.159 HD
ENDBRANCH  33  34
ENDBRANCH   1  33
TORSDOF 9
