REMARK  Name = ZINC01366253
REMARK  7 active torsions:
REMARK  status: ('A' for Active; 'I' for Inactive)
REMARK    1  A    between atoms: C_1  and  C_2
REMARK    2  A    between atoms: C_9  and  C_11
REMARK    3  A    between atoms: C_11  and  S_12
REMARK    4  A    between atoms: S_12  and  C_13
REMARK    5  A    between atoms: C_19  and  C_25
REMARK    6  A    between atoms: C_25  and  C_26
REMARK    7  A    between atoms: C_25  and  C_27
REMARK                            x       y       z     vdW  Elec       q    Type
REMARK                         _______ _______ _______ _____ _____    ______ ____
ROOT
ATOM      1  C   UNL     1      -4.506   8.352   1.466  0.00  0.00    +0.212 A 
ATOM      2  N   UNL     1      -3.186   8.483   1.472  0.00  0.00    -0.201 NA
ATOM      3  C   UNL     1      -2.425   7.393   1.491  0.00  0.00    +0.162 A 
ATOM      4  C   UNL     1      -3.059   6.133   1.505  0.00  0.00    +0.137 A 
ATOM      5  C   UNL     1      -1.983   5.128   1.526  0.00  0.00    +0.029 A 
ATOM      6  C   UNL     1      -1.969   3.735   1.545  0.00  0.00    +0.016 A 
ATOM      7  C   UNL     1      -0.767   3.062   1.562  0.00  0.00    -0.044 A 
ATOM      8  C   UNL     1       0.427   3.766   1.565  0.00  0.00    +0.006 A 
ATOM      9  C   UNL     1       0.428   5.144   1.541  0.00  0.00    +0.026 A 
ATOM     10  C   UNL     1      -0.775   5.842   1.523  0.00  0.00    +0.050 A 
ATOM     11  N   UNL     1      -1.067   7.196   1.502  0.00  0.00    -0.338 N 
ATOM     12  H   UNL     1      -0.404   7.905   1.497  0.00  0.00    +0.167 HD
ATOM     13  N   UNL     1      -4.383   6.071   1.498  0.00  0.00    -0.143 NA
ATOM     14  N   UNL     1      -5.081   7.154   1.479  0.00  0.00    -0.122 NA
ENDROOT
BRANCH   7  15
ATOM     15  C   UNL     1      -0.750   1.555   1.583  0.00  0.00    +0.013 C 
ATOM     16  C   UNL     1      -0.015   1.036   0.345  0.00  0.00    +0.012 C 
ATOM     17  C   UNL     1      -0.031   1.071   2.844  0.00  0.00    +0.012 C 
ENDBRANCH   7  15
BRANCH   1  18
ATOM     18  S   UNL     1      -5.517   9.795   1.439  0.00  0.00    -0.075 S 
BRANCH  18  19
ATOM     19  C   UNL     1      -7.157   9.030   1.440  0.00  0.00    +0.173 C 
BRANCH  19  27
ATOM     20  C   UNL     1      -9.907  12.158   1.790  0.00  0.00    +0.028 C 
ATOM     21  C   UNL     1     -10.558  10.800   1.521  0.00  0.00    +0.073 C 
ATOM     22  C   UNL     1     -11.493  10.440   2.680  0.00  0.00    +0.022 C 
ATOM     23  C   UNL     1     -12.033   9.023   2.474  0.00  0.00    +0.003 C 
ATOM     24  C   UNL     1     -10.870   8.028   2.465  0.00  0.00    +0.019 C 
ATOM     25  C   UNL     1      -9.928   8.362   1.298  0.00  0.00    +0.108 C 
ATOM     26  N   UNL     1      -9.518   9.768   1.414  0.00  0.00    -0.298 N 
ATOM     27  C   UNL     1      -8.213  10.105   1.418  0.00  0.00    +0.226 C 
ATOM     28  O   UNL     1      -7.889  11.273   1.404  0.00  0.00    -0.275 OA
ENDBRANCH  19  27
ENDBRANCH  18  19
ENDBRANCH   1  18
TORSDOF 4
