REMARK  Name = ZINC13639421
REMARK  4 active torsions:
REMARK  status: ('A' for Active; 'I' for Inactive)
REMARK    1  A    between atoms: C_1  and  C_2
REMARK    2  A    between atoms: C_2  and  C_3
REMARK    3  A    between atoms: N_5  and  C_6
REMARK    4  A    between atoms: C_19  and  C_22
REMARK                            x       y       z     vdW  Elec       q    Type
REMARK                         _______ _______ _______ _____ _____    ______ ____
ROOT
ATOM      1  C   UNL     1      -0.019  -2.783   0.015  0.00  0.00    +0.034 A 
ATOM      2  C   UNL     1      -1.217  -2.082  -0.026  0.00  0.00    +0.025 A 
ATOM      3  C   UNL     1      -1.212  -0.703  -0.041  0.00  0.00    +0.025 A 
ATOM      4  C   UNL     1      -0.011  -0.004  -0.017  0.00  0.00    +0.031 A 
ATOM      5  C   UNL     1       1.195  -0.714   0.008  0.00  0.00    -0.018 A 
ATOM      6  C   UNL     1       1.185  -2.092   0.033  0.00  0.00    +0.029 A 
ATOM      7  C   UNL     1       2.449   0.069  -0.017  0.00  0.00    +0.049 C 
ATOM      8  C   UNL     1       3.712  -0.449   0.570  0.00  0.00    -0.023 C 
ATOM      9  C   UNL     1       4.423   0.579   1.017  0.00  0.00    -0.030 C 
ATOM     10  C   UNL     1       3.658   1.884   0.789  0.00  0.00    +0.033 C 
ATOM     11  C   UNL     1       2.213   1.379   0.793  0.00  0.00    +0.029 C 
ATOM     12  C   UNL     1       1.218   2.185  -0.022  0.00  0.00    +0.105 C 
ATOM     13  N   UNL     1      -0.034   1.398  -0.016  0.00  0.00    -0.336 N 
ATOM     14  H   UNL     1      -0.887   1.860  -0.015  0.00  0.00    +0.147 HD
ENDROOT
BRANCH  12  15
ATOM     15  C   UNL     1       0.990   3.531   0.618  0.00  0.00    -0.027 A 
ATOM     16  C   UNL     1       0.191   3.635   1.741  0.00  0.00    +0.006 A 
ATOM     17  C   UNL     1      -0.014   4.868   2.331  0.00  0.00    +0.015 A 
ATOM     18  C   UNL     1       0.572   5.999   1.792  0.00  0.00    +0.018 A 
ATOM     19  C   UNL     1       1.367   5.895   0.665  0.00  0.00    +0.015 A 
ATOM     20  C   UNL     1       1.576   4.661   0.078  0.00  0.00    +0.006 A 
ATOM     21 BR   UNL     1       0.286   7.687   2.595  0.00  0.00    -0.050 Br
ENDBRANCH  12  15
BRANCH   1  24
ATOM     22  C   UNL     1      -1.000  -4.843   0.696  0.00  0.00    +0.217 C 
ATOM     23  O   UNL     1      -1.917  -4.227   1.196  0.00  0.00    -0.275 OA
ATOM     24  N   UNL     1      -0.025  -4.184   0.038  0.00  0.00    -0.285 N 
ATOM     25  H   UNL     1       0.672  -4.680  -0.420  0.00  0.00    +0.155 HD
BRANCH  22  27
ATOM     26  C   UNL     1      -2.164  -6.838   1.599  0.00  0.00    +0.013 C 
ATOM     27  C   UNL     1      -0.949  -6.345   0.810  0.00  0.00    +0.093 C 
ENDBRANCH  22  27
ENDBRANCH   1  24
TORSDOF 3
