REMARK  Name = ZINC36005379
REMARK  13 active torsions:
REMARK  status: ('A' for Active; 'I' for Inactive)
REMARK    1  A    between atoms: C_1  and  C_2
REMARK    2  A    between atoms: C_2  and  O_3
REMARK    3  A    between atoms: O_3  and  C_4
REMARK    4  A    between atoms: C_4  and  C_6
REMARK    5  A    between atoms: C_7  and  C_22
REMARK    6  A    between atoms: N_8  and  C_21
REMARK    7  A    between atoms: C_12  and  C_14
REMARK    8  A    between atoms: C_22  and  N_23
REMARK    9  A    between atoms: C_27  and  C_30
REMARK   10  A    between atoms: N_33  and  C_34
REMARK   11  A    between atoms: C_34  and  C_35
REMARK   12  A    between atoms: C_34  and  C_36
REMARK   13  A    between atoms: C_34  and  C_37
REMARK                            x       y       z     vdW  Elec       q    Type
REMARK                         _______ _______ _______ _____ _____    ______ ____
ROOT
ATOM      1  C   UNL     1       1.224  -2.350  -2.893  0.00  0.00    +0.080 C 
ATOM      2  C   UNL     1       1.450  -3.670  -3.067  0.00  0.00    +0.041 C 
ATOM      3  N   UNL     1       1.910  -4.155  -4.257  0.00  0.00    -0.260 N 
ATOM      4  C   UNL     1       2.169  -3.386  -5.322  0.00  0.00    +0.307 C 
ATOM      5  O   UNL     1       2.577  -3.910  -6.341  0.00  0.00    -0.252 OA
ATOM      6  N   UNL     1       1.993  -2.050  -5.302  0.00  0.00    -0.288 N 
ATOM      7  C   UNL     1       1.493  -1.427  -4.065  0.00  0.00    +0.144 C 
ATOM      8  C   UNL     1       2.133  -5.598  -4.376  0.00  0.00    +0.139 C 
ATOM      9  H   UNL     1       2.187  -1.512  -6.085  0.00  0.00    +0.151 HD
ENDROOT
BRANCH   7  10
ATOM     10  C   UNL     1       2.504  -0.401  -3.625  0.00  0.00    -0.021 A 
ATOM     11  C   UNL     1       3.849  -0.723  -3.597  0.00  0.00    +0.006 A 
ATOM     12  C   UNL     1       4.777   0.219  -3.194  0.00  0.00    +0.002 A 
ATOM     13  C   UNL     1       4.362   1.483  -2.819  0.00  0.00    +0.020 A 
ATOM     14  C   UNL     1       3.017   1.806  -2.847  0.00  0.00    +0.041 A 
ATOM     15  C   UNL     1       2.089   0.865  -3.256  0.00  0.00    +0.025 A 
ATOM     16 CL   UNL     1       2.495   3.393  -2.376  0.00  0.00    -0.084 Cl
ENDBRANCH   7  10
BRANCH   1  17
ATOM     17  C   UNL     1       0.747  -1.846  -1.660  0.00  0.00    +0.339 C 
ATOM     18  O   UNL     1      -0.416  -1.506  -1.551  0.00  0.00    -0.245 OA
BRANCH  17  19
ATOM     19  O   UNL     1       1.582  -1.742  -0.605  0.00  0.00    -0.462 OA
BRANCH  19  21
ATOM     20  C   UNL     1       2.121  -1.181   1.683  0.00  0.00    +0.048 C 
ATOM     21  C   UNL     1       1.033  -1.224   0.609  0.00  0.00    +0.229 C 
ENDBRANCH  19  21
ENDBRANCH  17  19
ENDBRANCH   1  17
BRANCH   2  22
ATOM     22  C   UNL     1       1.191  -4.622  -1.928  0.00  0.00    +0.136 C 
BRANCH  22  23
ATOM     23  N   UNL     1       0.093  -5.530  -2.289  0.00  0.00    -0.294 NA
ATOM     24  C   UNL     1      -1.171  -4.795  -2.435  0.00  0.00    +0.104 C 
ATOM     25  C   UNL     1      -2.246  -5.739  -2.985  0.00  0.00    +0.125 C 
ATOM     26  N   UNL     1      -2.312  -6.926  -2.120  0.00  0.00    -0.280 N 
ATOM     27  C   UNL     1      -1.061  -7.637  -1.816  0.00  0.00    +0.088 C 
ATOM     28  C   UNL     1      -0.033  -6.619  -1.312  0.00  0.00    +0.107 C 
ATOM     29  C   UNL     1      -1.318  -8.691  -0.738  0.00  0.00    +0.029 C 
ATOM     30  C   UNL     1      -3.489  -7.352  -1.619  0.00  0.00    +0.303 C 
ATOM     31  O   UNL     1      -3.516  -8.283  -0.837  0.00  0.00    -0.253 OA
ATOM     32  N   UNL     1      -4.636  -6.746  -1.985  0.00  0.00    -0.294 N 
ATOM     33  H   UNL     1      -4.623  -6.050  -2.661  0.00  0.00    +0.151 HD
BRANCH  32  34
ATOM     34  C   UNL     1      -5.902  -7.137  -1.361  0.00  0.00    +0.028 C 
ATOM     35  C   UNL     1      -5.823  -6.898   0.148  0.00  0.00    +0.031 C 
ATOM     36  C   UNL     1      -7.041  -6.302  -1.950  0.00  0.00    +0.031 C 
ATOM     37  C   UNL     1      -6.166  -8.620  -1.629  0.00  0.00    +0.031 C 
ENDBRANCH  32  34
ENDBRANCH  22  23
ENDBRANCH   2  22
TORSDOF 7
