REMARK  Name = ZINC20566685
REMARK  7 active torsions:
REMARK  status: ('A' for Active; 'I' for Inactive)
REMARK    1  A    between atoms: C_1  and  C_2
REMARK    2  A    between atoms: C_2  and  C_3
REMARK    3  A    between atoms: C_3  and  C_5
REMARK    4  A    between atoms: C_3  and  N_6
REMARK    5  A    between atoms: C_26  and  C_28
REMARK    6  A    between atoms: C_28  and  C_30
REMARK    7  A    between atoms: C_28  and  O_31
REMARK                            x       y       z     vdW  Elec       q    Type
REMARK                         _______ _______ _______ _____ _____    ______ ____
ROOT
ATOM      1  N   UNL     1      -0.045  -0.096   2.266  0.00  0.00    -0.239 N 
ATOM      2  C   UNL     1      -1.264  -0.573   2.546  0.00  0.00    +0.228 C 
ATOM      3  O   UNL     1      -1.843  -1.429   1.912  0.00  0.00    -0.275 OA
ATOM      4  C   UNL     1      -1.805   0.121   3.776  0.00  0.00    +0.109 C 
ATOM      5  C   UNL     1      -0.663   1.100   4.165  0.00  0.00    +0.123 C 
ATOM      6  C   UNL     1       0.391   0.844   3.112  0.00  0.00    +0.228 C 
ATOM      7  O   UNL     1       1.463   1.405   3.044  0.00  0.00    -0.275 OA
ATOM      8  C   UNL     1      -1.274   2.495   3.988  0.00  0.00    +0.136 C 
ATOM      9  C   UNL     1      -0.766   3.457   5.024  0.00  0.00    +0.003 A 
ATOM     10  C   UNL     1      -0.801   3.472   6.401  0.00  0.00    +0.008 A 
ATOM     11  C   UNL     1      -0.232   4.524   7.096  0.00  0.00    +0.000 A 
ATOM     12  C   UNL     1       0.371   5.560   6.405  0.00  0.00    +0.002 A 
ATOM     13  C   UNL     1       0.409   5.548   5.027  0.00  0.00    +0.023 A 
ATOM     14  C   UNL     1      -0.161   4.492   4.319  0.00  0.00    +0.039 A 
ATOM     15  N   UNL     1      -0.248   4.256   2.945  0.00  0.00    -0.283 N 
ATOM     16  C   UNL     1      -0.885   3.102   2.667  0.00  0.00    +0.243 C 
ATOM     17  O   UNL     1      -1.102   2.642   1.566  0.00  0.00    -0.273 OA
ATOM     18  N   UNL     1      -2.734   2.314   4.086  0.00  0.00    -0.293 NA
ATOM     19  C   UNL     1      -2.995   1.016   3.368  0.00  0.00    +0.096 C 
ATOM     20  H   UNL     1       0.110   4.853   2.269  0.00  0.00    +0.155 HD
ATOM     21  H   UNL     1      -3.028   2.261   5.050  0.00  0.00    +0.124 HD
ENDROOT
BRANCH   1  22
ATOM     22  C   UNL     1       0.749  -0.568   1.130  0.00  0.00    +0.081 C 
ATOM     23  C   UNL     1       1.062   0.607   0.202  0.00  0.00    +0.028 C 
BRANCH  22  25
ATOM     24  C   UNL     1       1.750  -2.435   2.455  0.00  0.00    +0.006 C 
ATOM     25  C   UNL     1       2.057  -1.177   1.640  0.00  0.00    +0.019 C 
ENDBRANCH  22  25
ENDBRANCH   1  22
BRANCH  19  26
ATOM     26  C   UNL     1      -4.312   0.400   3.843  0.00  0.00    +0.129 C 
ATOM     27  C   UNL     1      -5.476   1.303   3.429  0.00  0.00    +0.039 C 
BRANCH  26  28
ATOM     28  O   UNL     1      -4.476  -0.890   3.250  0.00  0.00    -0.390 OA
ATOM     29  H   UNL     1      -4.498  -0.879   2.284  0.00  0.00    +0.210 HD
ENDBRANCH  26  28
ENDBRANCH  19  26
TORSDOF 4
