REMARK  Name = ZINC64380752
REMARK  7 active torsions:
REMARK  status: ('A' for Active; 'I' for Inactive)
REMARK    1  A    between atoms: C_1  and  O_2
REMARK    2  A    between atoms: O_2  and  C_3
REMARK    3  A    between atoms: C_6  and  C_9
REMARK    4  A    between atoms: C_11  and  C_15
REMARK    5  A    between atoms: N_17  and  C_18
REMARK    6  A    between atoms: C_18  and  C_19
REMARK    7  A    between atoms: C_19  and  C_20
REMARK                            x       y       z     vdW  Elec       q    Type
REMARK                         _______ _______ _______ _____ _____    ______ ____
ROOT
ATOM      1  C   UNL     1      -6.994  -4.968   1.293  0.00  0.00    +0.236 C 
ATOM      2  O   UNL     1      -7.481  -4.380   2.235  0.00  0.00    -0.274 OA
ATOM      3  N   UNL     1      -6.802  -6.300   1.355  0.00  0.00    -0.313 N 
ATOM      4  H   UNL     1      -6.412  -6.770   0.602  0.00  0.00    +0.149 HD
ENDROOT
BRANCH   1   7
ATOM      5  C   UNL     1      -4.961  -2.619   0.037  0.00  0.00    +0.046 C 
ATOM      6  C   UNL     1      -5.113  -3.942   0.042  0.00  0.00    +0.027 C 
ATOM      7  C   UNL     1      -6.603  -4.208   0.051  0.00  0.00    +0.183 C 
ATOM      8  N   UNL     1      -7.217  -2.866   0.051  0.00  0.00    -0.227 NA
ATOM      9  N   UNL     1      -6.187  -1.970   0.048  0.00  0.00    -0.279 N 
ATOM     10  H   UNL     1      -7.812  -2.741  -0.754  0.00  0.00    +0.145 HD
ATOM     11  H   UNL     1      -6.298  -1.006   0.050  0.00  0.00    +0.166 HD
BRANCH   5  15
ATOM     12  C   UNL     1      -1.200  -0.637   0.010  0.00  0.00    +0.120 A 
ATOM     13  C   UNL     1      -2.374   0.105   0.020  0.00  0.00    +0.046 A 
ATOM     14  C   UNL     1      -3.595  -0.535   0.028  0.00  0.00    +0.013 A 
ATOM     15  C   UNL     1      -3.651  -1.929   0.027  0.00  0.00    -0.003 A 
ATOM     16  C   UNL     1      -2.470  -2.671   0.017  0.00  0.00    +0.013 A 
ATOM     17  C   UNL     1      -1.252  -2.025   0.003  0.00  0.00    +0.046 A 
BRANCH  12  19
ATOM     18  C   UNL     1      -0.017   1.425   0.010  0.00  0.00    +0.277 C 
ATOM     19  O   UNL     1       0.002  -0.004   0.002  0.00  0.00    -0.495 OA
ENDBRANCH  12  19
ENDBRANCH   5  15
ENDBRANCH   1   7
BRANCH   3  20
ATOM     20  C   UNL     1      -7.182  -7.039   2.562  0.00  0.00    +0.108 C 
BRANCH  20  21
ATOM     21  C   UNL     1      -6.860  -8.523   2.374  0.00  0.00    +0.052 C 
BRANCH  21  22
ATOM     22  C   UNL     1      -7.251  -9.283   3.615  0.00  0.00    -0.040 C 
ATOM     23  C   UNL     1      -8.414  -9.939   3.835  0.00  0.00    -0.001 A 
ATOM     24  C   UNL     1      -9.616 -10.133   3.016  0.00  0.00    +0.010 A 
ATOM     25  C   UNL     1     -10.643 -10.854   3.519  0.00  0.00    +0.001 A 
ATOM     26  C   UNL     1     -10.588 -11.420   4.801  0.00  0.00    +0.002 A 
ATOM     27  C   UNL     1      -9.518 -11.286   5.612  0.00  0.00    +0.026 A 
ATOM     28  C   UNL     1      -8.380 -10.547   5.184  0.00  0.00    +0.043 A 
ATOM     29  N   UNL     1      -7.242 -10.277   5.776  0.00  0.00    -0.380 N 
ATOM     30  C   UNL     1      -6.421  -9.472   4.865  0.00  0.00    +0.144 C 
ATOM     31  H   UNL     1      -6.984 -10.566   6.665  0.00  0.00    +0.160 HD
ENDBRANCH  21  22
ENDBRANCH  20  21
ENDBRANCH   3  20
TORSDOF 6
