REMARK  Name = ZINC39674854
REMARK  8 active torsions:
REMARK  status: ('A' for Active; 'I' for Inactive)
REMARK    1  A    between atoms: C_1  and  C_2
REMARK    2  A    between atoms: C_6  and  C_7
REMARK    3  A    between atoms: C_11  and  C_20
REMARK    4  A    between atoms: N_22  and  C_23
REMARK    5  A    between atoms: C_23  and  C_24
REMARK    6  A    between atoms: C_24  and  C_25
REMARK    7  A    between atoms: C_28  and  C_36
REMARK    8  A    between atoms: C_33  and  C_35
REMARK                            x       y       z     vdW  Elec       q    Type
REMARK                         _______ _______ _______ _____ _____    ______ ____
ROOT
ATOM      1  C   UNL     1       0.030  -0.284   2.560  0.00  0.00    +0.254 C 
ATOM      2  O   UNL     1       0.119   0.905   2.803  0.00  0.00    -0.269 OA
ATOM      3  N   UNL     1      -0.050  -1.174   3.569  0.00  0.00    -0.296 N 
ATOM      4  C   UNL     1      -0.041  -2.653   3.479  0.00  0.00    +0.121 C 
ATOM      5  C   UNL     1       0.813  -3.113   4.682  0.00  0.00    +0.100 C 
ATOM      6  C   UNL     1       0.724  -1.955   5.691  0.00  0.00    -0.004 C 
ATOM      7  C   UNL     1      -0.162  -0.894   5.021  0.00  0.00    +0.115 C 
ATOM      8  C   UNL     1       2.111  -1.382   5.961  0.00  0.00    -0.010 C 
ATOM      9  C   UNL     1       2.004  -0.271   7.009  0.00  0.00    -0.082 C 
ATOM     10  N   UNL     1       1.429  -0.816   8.245  0.00  0.00    +0.379 N 
ATOM     11  C   UNL     1       0.059  -1.281   7.997  0.00  0.00    -0.082 C 
ATOM     12  C   UNL     1       0.084  -2.434   6.990  0.00  0.00    -0.010 C 
ATOM     13  H   UNL     1       1.993  -1.589   8.564  0.00  0.00    -0.086 HD
ATOM     14  H   UNL     1       1.416  -0.097   8.953  0.00  0.00    -0.086 HD
ENDROOT
BRANCH   1  20
ATOM     15  C   UNL     1      -0.013   1.502   0.009  0.00  0.00    +0.045 C 
ATOM     16  C   UNL     1      -0.009  -0.004   0.000  0.00  0.00    -0.031 A 
ATOM     17  C   UNL     1      -0.018  -0.729  -1.168  0.00  0.00    +0.011 A 
ATOM     18  C   UNL     1      -0.012  -2.083  -1.103  0.00  0.00    +0.046 A 
ATOM     19  S   UNL     1       0.006  -2.417   0.543  0.00  0.00    -0.092 S 
ATOM     20  C   UNL     1       0.012  -0.749   1.170  0.00  0.00    +0.077 A 
ENDBRANCH   1  20
BRANCH   5  21
ATOM     21  C   UNL     1       0.244  -4.375   5.277  0.00  0.00    +0.218 C 
ATOM     22  O   UNL     1      -0.933  -4.634   5.138  0.00  0.00    -0.275 OA
ATOM     23  N   UNL     1       1.043  -5.216   5.963  0.00  0.00    -0.315 N 
ATOM     24  H   UNL     1       1.984  -5.009   6.074  0.00  0.00    +0.149 HD
BRANCH  23  25
ATOM     25  C   UNL     1       0.490  -6.443   6.542  0.00  0.00    +0.108 C 
BRANCH  25  26
ATOM     26  C   UNL     1       1.599  -7.212   7.262  0.00  0.00    +0.052 C 
BRANCH  26  27
ATOM     27  C   UNL     1       1.031  -8.475   7.857  0.00  0.00    -0.037 C 
ATOM     28  C   UNL     1      -0.255  -8.905   7.784  0.00  0.00    +0.000 A 
ATOM     29  C   UNL     1      -1.406  -8.347   7.168  0.00  0.00    +0.028 A 
ATOM     30  C   UNL     1      -2.614  -9.000   7.246  0.00  0.00    +0.052 A 
ATOM     31  C   UNL     1      -2.746 -10.268   7.955  0.00  0.00    +0.021 A 
ATOM     32  C   UNL     1      -1.687 -10.845   8.559  0.00  0.00    +0.027 A 
ATOM     33  C   UNL     1      -0.374 -10.191   8.506  0.00  0.00    +0.043 A 
ATOM     34  N   UNL     1       0.786 -10.543   9.005  0.00  0.00    -0.378 N 
ATOM     35  C   UNL     1       1.778  -9.522   8.651  0.00  0.00    +0.103 C 
ATOM     36  C   UNL     1       2.889 -10.137   7.798  0.00  0.00    +0.035 C 
ATOM     37  H   UNL     1       0.960 -11.346   9.519  0.00  0.00    +0.160 HD
BRANCH  30  38
ATOM     38  C   UNL     1      -3.765  -8.423   6.619  0.00  0.00    +0.099 C 
ATOM     39  N   UNL     1      -4.679  -7.966   6.122  0.00  0.00    -0.191 NA
ENDBRANCH  30  38
ENDBRANCH  26  27
ENDBRANCH  25  26
ENDBRANCH  23  25
ENDBRANCH   5  21
TORSDOF 6
