REMARK  Name = ZINC20290966
REMARK  5 active torsions:
REMARK  status: ('A' for Active; 'I' for Inactive)
REMARK    1  A    between atoms: C_1  and  C_2
REMARK    2  A    between atoms: C_5  and  N_8
REMARK    3  A    between atoms: C_12  and  N_13
REMARK    4  A    between atoms: N_13  and  C_14
REMARK    5  A    between atoms: C_20  and  N_22
REMARK                            x       y       z     vdW  Elec       q    Type
REMARK                         _______ _______ _______ _____ _____    ______ ____
ROOT
ATOM      1  N   UNL     1       0.048  -4.175  -0.024  0.00  0.00    -0.217 N 
ATOM      2  C   UNL     1       0.183  -4.837   1.143  0.00  0.00    +0.263 C 
ATOM      3  O   UNL     1       0.316  -4.234   2.192  0.00  0.00    -0.269 OA
ATOM      4  C   UNL     1       0.164  -6.311   1.114  0.00  0.00    +0.113 C 
ATOM      5  C   UNL     1       0.296  -7.056   2.271  0.00  0.00    +0.086 C 
ATOM      6  C   UNL     1      -0.002  -6.954  -0.201  0.00  0.00    +0.256 C 
ATOM      7  O   UNL     1      -0.028  -8.166  -0.305  0.00  0.00    -0.270 OA
ATOM      8  N   UNL     1      -0.126  -6.163  -1.287  0.00  0.00    -0.263 N 
ATOM      9  C   UNL     1      -0.105  -4.827  -1.186  0.00  0.00    +0.150 C 
ATOM     10  S   UNL     1      -0.276  -3.903  -2.617  0.00  0.00    -0.018 S 
ATOM     11  H   UNL     1      -0.236  -6.570  -2.160  0.00  0.00    +0.157 HD
ENDROOT
BRANCH   1  16
ATOM     12  C   UNL     1       0.107   1.500  -0.013  0.00  0.00    +0.044 C 
ATOM     13  C   UNL     1       0.091  -0.007  -0.017  0.00  0.00    -0.050 A 
ATOM     14  C   UNL     1      -1.091  -0.686   0.215  0.00  0.00    +0.005 A 
ATOM     15  C   UNL     1      -1.109  -2.067   0.213  0.00  0.00    +0.024 A 
ATOM     16  C   UNL     1       0.063  -2.774  -0.022  0.00  0.00    +0.043 A 
ATOM     17  C   UNL     1       1.248  -2.090  -0.255  0.00  0.00    +0.024 A 
ATOM     18  C   UNL     1       1.258  -0.709  -0.257  0.00  0.00    +0.005 A 
ENDBRANCH   1  16
BRANCH   5  19
ATOM     19  N   UNL     1       0.409  -8.398   2.198  0.00  0.00    -0.348 N 
ATOM     20  H   UNL     1       0.486  -8.832   1.334  0.00  0.00    +0.146 HD
BRANCH  19  21
ATOM     21  C   UNL     1       0.417  -9.200   3.425  0.00  0.00    +0.055 C 
ATOM     22  C   UNL     1       1.839  -9.257   3.988  0.00  0.00    +0.020 C 
ATOM     23  C   UNL     1       1.846 -10.094   5.268  0.00  0.00    +0.002 C 
ATOM     24  C   UNL     1       1.365 -11.512   4.954  0.00  0.00    -0.001 C 
ATOM     25  C   UNL     1      -0.056 -11.455   4.391  0.00  0.00    -0.014 C 
ATOM     26  C   UNL     1      -0.064 -10.617   3.110  0.00  0.00    -0.055 C 
BRANCH  26  27
ATOM     27  N   UNL     1      -1.429 -10.563   2.569  0.00  0.00    +0.381 N 
ATOM     28  H   UNL     1      -1.434 -10.010   1.725  0.00  0.00    -0.090 HD
ATOM     29  H   UNL     1      -1.746 -11.498   2.362  0.00  0.00    -0.090 HD
ATOM     30  H   UNL     1      -2.044 -10.142   3.250  0.00  0.00    -0.090 HD
ENDBRANCH  26  27
ENDBRANCH  19  21
ENDBRANCH   5  19
TORSDOF 4
