REMARK  Name = ZINC00695144
REMARK  8 active torsions:
REMARK  status: ('A' for Active; 'I' for Inactive)
REMARK    1  A    between atoms: C_1  and  C_2
REMARK    2  A    between atoms: C_3  and  C_28
REMARK    3  A    between atoms: C_4  and  N_9
REMARK    4  A    between atoms: C_6  and  C_8
REMARK    5  A    between atoms: N_13  and  S_16
REMARK    6  A    between atoms: S_16  and  C_19
REMARK    7  A    between atoms: C_22  and  N_25
REMARK    8  A    between atoms: C_28  and  C_29
REMARK                            x       y       z     vdW  Elec       q    Type
REMARK                         _______ _______ _______ _____ _____    ______ ____
ROOT
ATOM      1  N   UNL     1       2.091  -0.647   1.248  0.00  0.00    -0.314 N 
ATOM      2  C   UNL     1       2.024  -1.563   0.111  0.00  0.00    +0.108 C 
ATOM      3  C   UNL     1       2.649  -0.899  -1.097  0.00  0.00    +0.036 C 
ATOM      4  C   UNL     1       4.139  -1.270  -1.176  0.00  0.00    +0.111 C 
ATOM      5  N   UNL     1       4.763  -1.274   0.162  0.00  0.00    -0.175 NA
ATOM      6  C   UNL     1       4.484  -0.256   1.154  0.00  0.00    +0.128 C 
ATOM      7  C   UNL     1       3.276  -0.688   2.019  0.00  0.00    +0.123 C 
ENDROOT
BRANCH   1  11
ATOM      8  C   UNL     1      -1.308   1.335   4.206  0.00  0.00    +0.064 C 
ATOM      9  C   UNL     1      -0.687   0.163   3.490  0.00  0.00    +0.021 A 
ATOM     10  C   UNL     1       0.434   0.340   2.703  0.00  0.00    +0.016 A 
ATOM     11  C   UNL     1       0.970  -0.774   2.054  0.00  0.00    +0.128 A 
ATOM     12  N   UNL     1       0.392  -1.959   2.225  0.00  0.00    -0.219 NA
ATOM     13  C   UNL     1      -0.677  -2.082   2.986  0.00  0.00    +0.106 A 
ATOM     14  N   UNL     1      -1.210  -1.049   3.607  0.00  0.00    -0.347 N 
ATOM     15  C   UNL     1      -1.307  -3.441   3.150  0.00  0.00    +0.086 C 
ATOM     16  H   UNL     1      -2.103  -1.205   4.231  0.00  0.00    +0.167 HD
BRANCH  10  17
ATOM     17  C   UNL     1       1.059   1.702   2.543  0.00  0.00    +0.075 C 
BRANCH  17  18
ATOM     18  C   UNL     1       0.355   2.452   1.442  0.00  0.00    -0.040 A 
ATOM     19  C   UNL     1       0.734   2.263   0.126  0.00  0.00    +0.004 A 
ATOM     20  C   UNL     1       0.086   2.947  -0.886  0.00  0.00    +0.003 A 
ATOM     21  C   UNL     1      -0.934   3.828  -0.582  0.00  0.00    +0.038 A 
ATOM     22  C   UNL     1      -1.311   4.022   0.736  0.00  0.00    +0.124 A 
ATOM     23  C   UNL     1      -0.664   3.333   1.749  0.00  0.00    +0.042 A 
ATOM     24  F   UNL     1      -2.308   4.884   1.035  0.00  0.00    -0.205 F 
ENDBRANCH  17  18
ENDBRANCH  10  17
ENDBRANCH   1  11
BRANCH   5  25
ATOM     25  S   UNL     1       5.822  -2.489   0.543  0.00  0.00    +0.061 S 
ATOM     26  O   UNL     1       6.336  -2.981  -0.687  0.00  0.00    -0.153 OA
ATOM     27  O   UNL     1       6.663  -1.986   1.573  0.00  0.00    -0.153 OA
BRANCH  25  28
ATOM     28  C   UNL     1       4.880  -3.797   1.254  0.00  0.00    +0.106 A 
ATOM     29  C   UNL     1       4.673  -3.835   2.620  0.00  0.00    +0.031 A 
ATOM     30  C   UNL     1       3.930  -4.859   3.178  0.00  0.00    +0.034 A 
ATOM     31  C   UNL     1       3.403  -5.850   2.371  0.00  0.00    +0.126 A 
ATOM     32  C   UNL     1       3.615  -5.814   1.005  0.00  0.00    +0.034 A 
ATOM     33  C   UNL     1       4.354  -4.788   0.447  0.00  0.00    +0.031 A 
BRANCH  31  34
ATOM     34  N   UNL     1       2.612  -6.949   2.968  0.00  0.00    +0.056 N 
ATOM     35  O   UNL     1       2.148  -7.822   2.257  0.00  0.00    -0.126 OA
ATOM     36  O   UNL     1       2.425  -6.980   4.171  0.00  0.00    -0.126 OA
ENDBRANCH  31  34
ENDBRANCH  25  28
ENDBRANCH   5  25
TORSDOF 6
