REMARK  Name = ZINC09582014
REMARK  9 active torsions:
REMARK  status: ('A' for Active; 'I' for Inactive)
REMARK    1  A    between atoms: C_1  and  C_2
REMARK    2  A    between atoms: C_5  and  C_38
REMARK    3  A    between atoms: C_6  and  S_8
REMARK    4  A    between atoms: S_8  and  C_9
REMARK    5  A    between atoms: C_12  and  N_15
REMARK    6  A    between atoms: C_16  and  C_18
REMARK    7  A    between atoms: C_18  and  N_19
REMARK    8  A    between atoms: C_22  and  C_27
REMARK    9  A    between atoms: C_27  and  C_28
REMARK                            x       y       z     vdW  Elec       q    Type
REMARK                         _______ _______ _______ _____ _____    ______ ____
ROOT
ATOM      1  C   UNL     1       2.965  -4.314  -2.405  0.00  0.00    +0.214 C 
ENDROOT
BRANCH   1   2
ATOM      2  N   UNL     1       2.760  -2.875  -2.216  0.00  0.00    -0.216 N 
ATOM      3  C   UNL     1       3.715  -2.024  -1.792  0.00  0.00    +0.244 C 
ATOM      4  O   UNL     1       4.862  -2.293  -1.508  0.00  0.00    -0.273 OA
ATOM      5  C   UNL     1       3.056  -0.659  -1.747  0.00  0.00    +0.165 C 
ATOM      6  N   UNL     1       1.677  -0.926  -2.191  0.00  0.00    -0.287 N 
ATOM      7  C   UNL     1       1.602  -2.245  -2.442  0.00  0.00    +0.310 C 
ATOM      8  O   UNL     1       0.594  -2.803  -2.829  0.00  0.00    -0.252 OA
ATOM      9  H   UNL     1       0.963  -0.276  -2.285  0.00  0.00    +0.151 HD
BRANCH   5  10
ATOM     10  C   UNL     1       3.064  -0.105  -0.320  0.00  0.00    +0.069 C 
BRANCH  10  11
ATOM     11  C   UNL     1       2.516   1.298  -0.324  0.00  0.00    -0.020 A 
ATOM     12  C   UNL     1       3.230   2.434  -0.388  0.00  0.00    +0.087 A 
ATOM     13  N   UNL     1       2.390   3.514  -0.368  0.00  0.00    -0.360 N 
ATOM     14  H   UNL     1       2.674   4.441  -0.404  0.00  0.00    +0.165 HD
ATOM     15  C   UNL     1       1.083   3.090  -0.288  0.00  0.00    +0.047 A 
ATOM     16  C   UNL     1       1.104   1.683  -0.257  0.00  0.00    +0.003 A 
ATOM     17  C   UNL     1      -0.093   0.970  -0.177  0.00  0.00    +0.010 A 
ATOM     18  C   UNL     1      -1.282   1.642  -0.134  0.00  0.00    +0.001 A 
ATOM     19  C   UNL     1      -1.308   3.030  -0.159  0.00  0.00    +0.002 A 
ATOM     20  C   UNL     1      -0.138   3.753  -0.238  0.00  0.00    +0.026 A 
ENDBRANCH  10  11
ENDBRANCH   5  10
ENDBRANCH   1   2
BRANCH   1  22
ATOM     21  N   UNL     1       2.764  -6.380  -1.061  0.00  0.00    -0.284 N 
ATOM     22  C   UNL     1       2.646  -5.039  -1.124  0.00  0.00    +0.235 C 
ATOM     23  O   UNL     1       2.283  -4.416  -0.148  0.00  0.00    -0.274 OA
ATOM     24  H   UNL     1       2.997  -6.884  -1.857  0.00  0.00    +0.155 HD
BRANCH  21  28
ATOM     25  C   UNL     1       2.123  -8.365   2.551  0.00  0.00    +0.013 A 
ATOM     26  C   UNL     1       1.370  -7.241   2.232  0.00  0.00    +0.017 A 
ATOM     27  C   UNL     1       1.583  -6.585   1.037  0.00  0.00    +0.024 A 
ATOM     28  C   UNL     1       2.549  -7.047   0.152  0.00  0.00    +0.033 A 
ATOM     29  C   UNL     1       3.297  -8.173   0.468  0.00  0.00    +0.024 A 
ATOM     30  C   UNL     1       3.089  -8.827   1.666  0.00  0.00    +0.017 A 
BRANCH  25  31
ATOM     31  S   UNL     1       1.851  -9.204   4.076  0.00  0.00    -0.089 S 
BRANCH  31  37
ATOM     32  C   UNL     1       6.450 -11.056   5.752  0.00  0.00    +0.044 C 
ATOM     33  C   UNL     1       5.215 -11.246   4.908  0.00  0.00    -0.049 A 
ATOM     34  C   UNL     1       5.062 -12.398   4.158  0.00  0.00    +0.004 A 
ATOM     35  C   UNL     1       3.931 -12.576   3.382  0.00  0.00    +0.005 A 
ATOM     36  C   UNL     1       2.948 -11.607   3.359  0.00  0.00    -0.037 A 
ATOM     37  C   UNL     1       3.101 -10.446   4.108  0.00  0.00    +0.016 A 
ATOM     38  C   UNL     1       4.239 -10.270   4.886  0.00  0.00    +0.018 A 
ATOM     39  C   UNL     1       1.713 -11.805   2.518  0.00  0.00    +0.045 C 
ENDBRANCH  31  37
ENDBRANCH  25  31
ENDBRANCH  21  28
ENDBRANCH   1  22
TORSDOF 7
