REMARK  Name = ZINC39243257
REMARK  7 active torsions:
REMARK  status: ('A' for Active; 'I' for Inactive)
REMARK    1  A    between atoms: C_1  and  C_2
REMARK    2  A    between atoms: C_4  and  C_16
REMARK    3  A    between atoms: C_6  and  C_14
REMARK    4  A    between atoms: C_7  and  N_13
REMARK    5  A    between atoms: C_20  and  O_22
REMARK    6  A    between atoms: O_22  and  C_23
REMARK    7  A    between atoms: C_23  and  C_24
REMARK                            x       y       z     vdW  Elec       q    Type
REMARK                         _______ _______ _______ _____ _____    ______ ____
ROOT
ATOM      1  C   UNL     1      -0.018   1.503   0.010  0.00  0.00    +0.067 C 
ATOM      2  C   UNL     1       0.002  -0.004   0.002  0.00  0.00    +0.066 C 
ATOM      3  C   UNL     1      -1.064  -0.768   0.003  0.00  0.00    +0.030 C 
ATOM      4  C   UNL     1      -2.537  -0.492  -0.122  0.00  0.00    +0.098 C 
ATOM      5  C   UNL     1      -3.075  -1.565  -1.050  0.00  0.00    +0.097 C 
ATOM      6  C   UNL     1      -2.317  -2.612  -1.438  0.00  0.00    +0.195 C 
ATOM      7  O   UNL     1      -1.033  -2.841  -1.107  0.00  0.00    -0.448 OA
ATOM      8  C   UNL     1      -0.528  -2.199   0.066  0.00  0.00    +0.343 C 
ATOM      9  N   UNL     1       0.921  -1.985   0.002  0.00  0.00    -0.138 NA
ATOM     10  N   UNL     1       1.127  -0.765  -0.013  0.00  0.00    -0.155 NA
ENDROOT
BRANCH   4  11
ATOM     11  C   UNL     1      -3.201  -0.585   1.227  0.00  0.00    -0.031 A 
ATOM     12  C   UNL     1      -3.149  -1.767   1.943  0.00  0.00    +0.005 A 
ATOM     13  C   UNL     1      -3.757  -1.855   3.181  0.00  0.00    +0.004 A 
ATOM     14  C   UNL     1      -4.419  -0.762   3.707  0.00  0.00    +0.045 A 
ATOM     15  C   UNL     1      -4.473   0.424   2.991  0.00  0.00    +0.121 A 
ATOM     16  C   UNL     1      -3.857   0.512   1.751  0.00  0.00    +0.050 A 
BRANCH  15  17
ATOM     17  O   UNL     1      -5.124   1.501   3.505  0.00  0.00    -0.487 OA
BRANCH  17  18
ATOM     18  C   UNL     1      -5.730   1.339   4.789  0.00  0.00    +0.264 C 
BRANCH  18  19
ATOM     19  C   UNL     1      -6.399   2.627   5.194  0.00  0.00    -0.010 A 
ATOM     20  C   UNL     1      -5.691   3.583   5.899  0.00  0.00    +0.008 A 
ATOM     21  C   UNL     1      -6.305   4.764   6.271  0.00  0.00    +0.020 A 
ATOM     22  C   UNL     1      -7.628   4.991   5.937  0.00  0.00    +0.041 A 
ATOM     23  C   UNL     1      -8.336   4.034   5.231  0.00  0.00    +0.020 A 
ATOM     24  C   UNL     1      -7.720   2.856   4.856  0.00  0.00    +0.008 A 
ATOM     25 CL   UNL     1      -8.399   6.474   6.404  0.00  0.00    -0.084 Cl
ENDBRANCH  18  19
ENDBRANCH  17  18
ENDBRANCH  15  17
ENDBRANCH   4  11
BRANCH   6  26
ATOM     26  N   UNL     1      -2.917  -3.538  -2.254  0.00  0.00    -0.329 N 
ATOM     27  H   UNL     1      -3.842  -3.421  -2.523  0.00  0.00    +0.145 HD
ATOM     28  H   UNL     1      -2.417  -4.310  -2.562  0.00  0.00    +0.145 HD
ENDBRANCH   6  26
BRANCH   5  29
ATOM     29  C   UNL     1      -4.422  -1.466  -1.525  0.00  0.00    +0.101 C 
ATOM     30  N   UNL     1      -5.491  -1.387  -1.903  0.00  0.00    -0.191 NA
ENDBRANCH   5  29
TORSDOF 6
