REMARK  Name = ZINC36065835
REMARK  11 active torsions:
REMARK  status: ('A' for Active; 'I' for Inactive)
REMARK    1  A    between atoms: C_1  and  O_2
REMARK    2  A    between atoms: O_2  and  C_3
REMARK    3  A    between atoms: C_3  and  C_4
REMARK    4  A    between atoms: C_4  and  N_5
REMARK    5  A    between atoms: C_6  and  C_8
REMARK    6  A    between atoms: C_11  and  C_13
REMARK    7  A    between atoms: C_13  and  N_14
REMARK    8  A    between atoms: N_14  and  C_15
REMARK    9  A    between atoms: N_14  and  C_25
REMARK   10  A    between atoms: C_15  and  C_16
REMARK   11  A    between atoms: C_25  and  C_26
REMARK                            x       y       z     vdW  Elec       q    Type
REMARK                         _______ _______ _______ _____ _____    ______ ____
ROOT
ATOM      1  N   UNL     1      -6.417  -3.736  -3.084  0.00  0.00    +0.391 N 
ATOM      2  H   UNL     1      -5.828  -3.035  -3.508  0.00  0.00    -0.080 HD
ENDROOT
BRANCH   1   3
ATOM      3  C   UNL     1      -5.996  -3.955  -1.694  0.00  0.00    +0.020 C 
BRANCH   3   7
ATOM      4  C   UNL     1      -2.380  -4.133  -1.566  0.00  0.00    +0.163 A 
ATOM      5  C   UNL     1      -2.686  -5.454  -1.679  0.00  0.00    +0.230 A 
ATOM      6  O   UNL     1      -4.024  -5.542  -1.738  0.00  0.00    -0.449 OA
ATOM      7  C   UNL     1      -4.530  -4.303  -1.663  0.00  0.00    +0.179 A 
ATOM      8  N   UNL     1      -3.556  -3.449  -1.554  0.00  0.00    -0.210 NA
BRANCH   4  10
ATOM      9  N   UNL     1      -0.874  -2.218  -1.353  0.00  0.00    -0.308 N 
ATOM     10  C   UNL     1      -1.028  -3.553  -1.468  0.00  0.00    +0.266 C 
ATOM     11  O   UNL     1      -0.052  -4.277  -1.490  0.00  0.00    -0.268 OA
ATOM     12  H   UNL     1      -1.653  -1.640  -1.335  0.00  0.00    +0.149 HD
BRANCH   9  13
ATOM     13  C   UNL     1       0.469  -1.641  -1.256  0.00  0.00    +0.132 C 
BRANCH  13  14
ATOM     14  C   UNL     1       0.363  -0.120  -1.136  0.00  0.00    +0.178 C 
BRANCH  14  16
ATOM     15  C   UNL     1      -0.434   1.622   0.305  0.00  0.00    +0.194 C 
ATOM     16  O   UNL     1      -0.284   0.217   0.093  0.00  0.00    -0.381 OA
ENDBRANCH  14  16
ENDBRANCH  13  14
ENDBRANCH   9  13
ENDBRANCH   4  10
ENDBRANCH   3   7
ENDBRANCH   1   3
BRANCH   1  17
ATOM     17  C   UNL     1      -7.814  -3.281  -3.107  0.00  0.00    -0.042 C 
BRANCH  17  18
ATOM     18  C   UNL     1      -7.911  -1.925  -2.456  0.00  0.00    -0.060 A 
ATOM     19  C   UNL     1      -8.254  -1.824  -1.120  0.00  0.00    +0.005 A 
ATOM     20  C   UNL     1      -8.343  -0.583  -0.519  0.00  0.00    +0.050 A 
ATOM     21  C   UNL     1      -8.090   0.564  -1.254  0.00  0.00    +0.166 A 
ATOM     22  C   UNL     1      -7.744   0.462  -2.599  0.00  0.00    +0.166 A 
ATOM     23  C   UNL     1      -7.651  -0.786  -3.194  0.00  0.00    +0.051 A 
ATOM     24  O   UNL     1      -7.547   1.718  -3.096  0.00  0.00    -0.453 OA
ATOM     25  C   UNL     1      -8.172   2.607  -2.151  0.00  0.00    +0.466 C 
ATOM     26  O   UNL     1      -8.109   1.884  -0.908  0.00  0.00    -0.453 OA
ENDBRANCH  17  18
ENDBRANCH   1  17
BRANCH   1  27
ATOM     27  C   UNL     1      -6.300  -4.994  -3.835  0.00  0.00    -0.040 C 
BRANCH  27  28
ATOM     28  C   UNL     1      -6.620  -4.744  -5.286  0.00  0.00    -0.046 A 
ATOM     29  C   UNL     1      -7.850  -5.115  -5.797  0.00  0.00    +0.004 A 
ATOM     30  C   UNL     1      -8.144  -4.886  -7.128  0.00  0.00    +0.020 A 
ATOM     31  C   UNL     1      -7.207  -4.285  -7.950  0.00  0.00    +0.042 A 
ATOM     32  C   UNL     1      -5.977  -3.913  -7.440  0.00  0.00    +0.040 A 
ATOM     33  C   UNL     1      -5.685  -4.138  -6.106  0.00  0.00    +0.044 A 
ATOM     34 CL   UNL     1      -4.143  -3.665  -5.463  0.00  0.00    -0.083 Cl
ATOM     35 CL   UNL     1      -7.577  -3.998  -9.622  0.00  0.00    -0.083 Cl
ENDBRANCH  27  28
ENDBRANCH   1  27
TORSDOF 10
