REMARK  Name = ZINC08973764
REMARK  5 active torsions:
REMARK  status: ('A' for Active; 'I' for Inactive)
REMARK    1  A    between atoms: C_1  and  C_2
REMARK    2  A    between atoms: C_3  and  C_22
REMARK    3  A    between atoms: C_4  and  C_16
REMARK    4  A    between atoms: C_22  and  O_24
REMARK    5  A    between atoms: O_24  and  C_25
REMARK                            x       y       z     vdW  Elec       q    Type
REMARK                         _______ _______ _______ _____ _____    ______ ____
ROOT
ATOM      1  C   UNL     1      -0.018   1.503   0.010  0.00  0.00    +0.061 C 
ATOM      2  C   UNL     1       0.002  -0.004   0.002  0.00  0.00    +0.020 C 
ATOM      3  C   UNL     1      -1.164  -0.667   0.004  0.00  0.00    +0.080 C 
ATOM      4  C   UNL     1      -1.259  -2.168  -0.015  0.00  0.00    +0.159 C 
ATOM      5  N   UNL     1       0.054  -2.747   0.269  0.00  0.00    -0.300 N 
ATOM      6  C   UNL     1       0.393  -4.033   0.576  0.00  0.00    +0.071 A 
ATOM      7  C   UNL     1      -0.352  -5.196   0.731  0.00  0.00    +0.028 A 
ATOM      8  C   UNL     1       0.340  -6.352   1.052  0.00  0.00    +0.002 A 
ATOM      9  C   UNL     1       1.715  -6.362   1.215  0.00  0.00    +0.002 A 
ATOM     10  C   UNL     1       2.479  -5.219   1.068  0.00  0.00    +0.030 A 
ATOM     11  C   UNL     1       1.801  -4.039   0.744  0.00  0.00    +0.091 A 
ATOM     12  N   UNL     1       2.236  -2.780   0.538  0.00  0.00    -0.214 NA
ATOM     13  C   UNL     1       1.218  -2.010   0.261  0.00  0.00    +0.202 A 
ATOM     14  N   UNL     1       1.213  -0.649  -0.013  0.00  0.00    -0.288 N 
ATOM     15  H   UNL     1       2.034  -0.171  -0.205  0.00  0.00    +0.155 HD
ENDROOT
BRANCH   4  16
ATOM     16  C   UNL     1      -1.725  -2.623  -1.374  0.00  0.00    -0.020 A 
ATOM     17  C   UNL     1      -0.975  -2.326  -2.497  0.00  0.00    +0.006 A 
ATOM     18  C   UNL     1      -1.402  -2.744  -3.743  0.00  0.00    +0.000 A 
ATOM     19  C   UNL     1      -2.578  -3.460  -3.867  0.00  0.00    +0.000 A 
ATOM     20  C   UNL     1      -3.328  -3.758  -2.744  0.00  0.00    +0.000 A 
ATOM     21  C   UNL     1      -2.898  -3.344  -1.497  0.00  0.00    +0.006 A 
ENDBRANCH   4  16
BRANCH   3  22
ATOM     22  C   UNL     1      -2.362   0.082   0.026  0.00  0.00    +0.339 C 
ATOM     23  O   UNL     1      -2.319   1.298   0.042  0.00  0.00    -0.245 OA
BRANCH  22  24
ATOM     24  O   UNL     1      -3.554  -0.551   0.029  0.00  0.00    -0.465 OA
ATOM     25  C   UNL     1      -4.724   0.269   0.051  0.00  0.00    +0.280 C 
ENDBRANCH  22  24
ENDBRANCH   3  22
TORSDOF 3
