REMARK  Name = ZINC05064992
REMARK  5 active torsions:
REMARK  status: ('A' for Active; 'I' for Inactive)
REMARK    1  A    between atoms: C_1  and  O_2
REMARK    2  A    between atoms: O_2  and  C_3
REMARK    3  A    between atoms: C_3  and  C_5
REMARK    4  A    between atoms: C_8  and  C_11
REMARK    5  A    between atoms: C_26  and  N_31
REMARK                            x       y       z     vdW  Elec       q    Type
REMARK                         _______ _______ _______ _____ _____    ______ ____
ROOT
ATOM      1  C   UNL     1       1.850   3.177  -0.670  0.00  0.00    +0.105 C 
ATOM      2  C   UNL     1       1.430   1.899   0.025  0.00  0.00    +0.030 C 
ATOM      3  C   UNL     1      -0.068   1.583   0.050  0.00  0.00    +0.042 C 
ATOM      4  C   UNL     1      -0.096   0.070   0.070  0.00  0.00    -0.043 A 
ATOM      5  C   UNL     1      -1.106  -0.776   0.487  0.00  0.00    +0.004 A 
ATOM      6  C   UNL     1      -0.860  -2.141   0.425  0.00  0.00    +0.000 A 
ATOM      7  C   UNL     1       0.344  -2.635  -0.032  0.00  0.00    +0.000 A 
ATOM      8  C   UNL     1       1.360  -1.794  -0.463  0.00  0.00    +0.004 A 
ATOM      9  C   UNL     1       1.122  -0.431  -0.417  0.00  0.00    -0.036 A 
ATOM     10  C   UNL     1       1.950   0.717  -0.855  0.00  0.00    +0.057 C 
ATOM     11  C   UNL     1       3.420   0.700  -0.615  0.00  0.00    -0.017 A 
ATOM     12  C   UNL     1       4.149  -0.428  -0.348  0.00  0.00    +0.038 A 
ATOM     13  C   UNL     1       5.514  -0.331  -0.129  0.00  0.00    +0.127 A 
ATOM     14  C   UNL     1       6.135   0.904  -0.179  0.00  0.00    +0.034 A 
ATOM     15  C   UNL     1       5.415   2.030  -0.476  0.00  0.00    +0.025 A 
ATOM     16  C   UNL     1       4.048   1.950  -0.691  0.00  0.00    +0.032 A 
ATOM     17  N   UNL     1       3.290   3.089  -0.969  0.00  0.00    -0.336 N 
ATOM     18  H   UNL     1       3.730   3.852  -1.375  0.00  0.00    +0.147 HD
ENDROOT
BRANCH   1  22
ATOM     19  C   UNL     1      -0.355   3.634  -4.305  0.00  0.00    +0.059 A 
ATOM     20  C   UNL     1      -0.821   4.215  -3.125  0.00  0.00    +0.015 A 
ATOM     21  C   UNL     1      -0.105   4.064  -1.956  0.00  0.00    +0.006 A 
ATOM     22  C   UNL     1       1.073   3.338  -1.951  0.00  0.00    -0.027 A 
ATOM     23  C   UNL     1       1.544   2.764  -3.119  0.00  0.00    +0.006 A 
ATOM     24  C   UNL     1       0.835   2.903  -4.294  0.00  0.00    +0.015 A 
BRANCH  19  25
ATOM     25  C   UNL     1      -1.116   3.792  -5.561  0.00  0.00    +0.339 C 
ATOM     26  O   UNL     1      -2.150   4.429  -5.569  0.00  0.00    -0.245 OA
BRANCH  25  28
ATOM     27  C   UNL     1      -1.463   3.426  -7.895  0.00  0.00    +0.280 C 
ATOM     28  O   UNL     1      -0.663   3.230  -6.699  0.00  0.00    -0.464 OA
ENDBRANCH  25  28
ENDBRANCH  19  25
ENDBRANCH   1  22
BRANCH  13  29
ATOM     29  N   UNL     1       6.306  -1.548   0.159  0.00  0.00    +0.056 N 
ATOM     30  O   UNL     1       5.758  -2.635   0.203  0.00  0.00    -0.126 OA
ATOM     31  O   UNL     1       7.505  -1.462   0.352  0.00  0.00    -0.126 OA
ENDBRANCH  13  29
TORSDOF 4
