REMARK  Name = ZINC13065039
REMARK  11 active torsions:
REMARK  status: ('A' for Active; 'I' for Inactive)
REMARK    1  A    between atoms: C_1  and  C_2
REMARK    2  A    between atoms: C_2  and  C_3
REMARK    3  A    between atoms: C_3  and  C_5
REMARK    4  A    between atoms: C_3  and  N_72
REMARK    5  A    between atoms: N_9  and  C_10
REMARK    6  A    between atoms: C_16  and  C_17
REMARK    7  A    between atoms: C_16  and  N_72
REMARK    8  A    between atoms: C_24  and  C_25
REMARK    9  A    between atoms: C_24  and  N_72
REMARK   10  A    between atoms: C_30  and  C_38
REMARK   11  A    between atoms: C_31  and  C_37
REMARK                            x       y       z     vdW  Elec       q    Type
REMARK                         _______ _______ _______ _____ _____    ______ ____
ROOT
ATOM      1  N   UNL     1      -0.100  -0.729   2.229  0.00  0.00    +0.392 N 
ATOM      2  H   UNL     1      -0.990  -0.531   2.701  0.00  0.00    -0.080 HD
ENDROOT
BRANCH   1   3
ATOM      3  C   UNL     1       0.967   0.079   2.856  0.00  0.00    +0.003 C 
BRANCH   3   4
ATOM      4  C   UNL     1       2.320  -0.349   2.350  0.00  0.00    +0.138 A 
ATOM      5  N   UNL     1       2.728  -1.579   2.151  0.00  0.00    -0.115 NA
ATOM      6  N   UNL     1       3.939  -1.531   1.714  0.00  0.00    -0.023 NA
ATOM      7  N   UNL     1       4.317  -0.303   1.638  0.00  0.00    -0.044 NA
ATOM      8  N   UNL     1       3.347   0.456   2.022  0.00  0.00    -0.228 N 
BRANCH   8   9
ATOM      9  C   UNL     1       3.360   1.920   2.086  0.00  0.00    +0.111 C 
ATOM     10  C   UNL     1       3.816   2.486   0.740  0.00  0.00    +0.027 C 
ATOM     11  C   UNL     1       3.829   4.014   0.808  0.00  0.00    +0.002 C 
ATOM     12  C   UNL     1       4.795   4.468   1.904  0.00  0.00    +0.000 C 
ATOM     13  C   UNL     1       4.340   3.901   3.251  0.00  0.00    +0.002 C 
ATOM     14  C   UNL     1       4.326   2.373   3.183  0.00  0.00    +0.027 C 
ENDBRANCH   8   9
ENDBRANCH   3   4
BRANCH   3  16
ATOM     15  C   UNL     1      -0.418   0.443   4.904  0.00  0.00    +0.002 C 
ATOM     16  C   UNL     1       0.905  -0.114   4.373  0.00  0.00    -0.011 C 
ENDBRANCH   3  16
ENDBRANCH   1   3
BRANCH   1  17
ATOM     17  C   UNL     1      -0.227  -0.376   0.799  0.00  0.00    -0.042 C 
BRANCH  17  18
ATOM     18  C   UNL     1      -0.901   0.967   0.690  0.00  0.00    -0.064 A 
ATOM     19  C   UNL     1      -2.280   1.046   0.654  0.00  0.00    +0.004 A 
ATOM     20  C   UNL     1      -2.900   2.278   0.559  0.00  0.00    +0.038 A 
ATOM     21  C   UNL     1      -2.138   3.432   0.489  0.00  0.00    +0.123 A 
ATOM     22  C   UNL     1      -0.756   3.351   0.520  0.00  0.00    +0.038 A 
ATOM     23  C   UNL     1      -0.139   2.119   0.621  0.00  0.00    +0.004 A 
ATOM     24  F   UNL     1      -2.743   4.636   0.391  0.00  0.00    -0.205 F 
ENDBRANCH  17  18
ENDBRANCH   1  17
BRANCH   1  25
ATOM     25  C   UNL     1       0.207  -2.168   2.369  0.00  0.00    -0.036 C 
BRANCH  25  26
ATOM     26  C   UNL     1      -1.063  -2.954   2.174  0.00  0.00    +0.001 A 
ATOM     27  C   UNL     1      -1.360  -3.467   0.955  0.00  0.00    +0.017 A 
ATOM     28  C   UNL     1      -2.600  -4.230   0.799  0.00  0.00    -0.001 A 
ATOM     29  C   UNL     1      -2.956  -4.789  -0.433  0.00  0.00    +0.010 A 
ATOM     30  C   UNL     1      -4.123  -5.490  -0.546  0.00  0.00    +0.004 A 
ATOM     31  C   UNL     1      -4.957  -5.655   0.551  0.00  0.00    -0.046 A 
ATOM     32  C   UNL     1      -4.626  -5.114   1.775  0.00  0.00    -0.024 A 
ATOM     33  C   UNL     1      -3.443  -4.395   1.914  0.00  0.00    +0.052 A 
ATOM     34  N   UNL     1      -3.087  -3.844   3.126  0.00  0.00    -0.322 N 
ATOM     35  H   UNL     1      -3.669  -3.959   3.893  0.00  0.00    +0.169 HD
ATOM     36  C   UNL     1      -1.943  -3.149   3.260  0.00  0.00    +0.251 A 
ATOM     37  O   UNL     1      -1.660  -2.676   4.347  0.00  0.00    -0.268 OA
ATOM     38  C   UNL     1      -5.541  -5.302   2.958  0.00  0.00    +0.046 C 
ATOM     39  C   UNL     1      -6.239  -6.434   0.403  0.00  0.00    +0.044 C 
ENDBRANCH  25  26
ENDBRANCH   1  25
TORSDOF 8
