REMARK  Name = ZINC12995878
REMARK  5 active torsions:
REMARK  status: ('A' for Active; 'I' for Inactive)
REMARK    1  A    between atoms: C_1  and  C_2
REMARK    2  A    between atoms: C_5  and  N_9
REMARK    3  A    between atoms: C_6  and  O_8
REMARK    4  A    between atoms: C_10  and  C_12
REMARK    5  A    between atoms: C_12  and  C_13
REMARK                            x       y       z     vdW  Elec       q    Type
REMARK                         _______ _______ _______ _____ _____    ______ ____
ROOT
ATOM      1  N   UNL     1      -0.349   8.546  -4.241  0.00  0.00    -0.282 N 
ATOM      2  C   UNL     1      -0.457   7.311  -3.713  0.00  0.00    +0.222 C 
ATOM      3  O   UNL     1      -1.446   6.643  -3.929  0.00  0.00    -0.275 OA
ATOM      4  H   UNL     1       0.411   9.105  -4.015  0.00  0.00    +0.155 HD
ENDROOT
BRANCH   1   9
ATOM      5  C   UNL     1      -4.346  10.476  -7.782  0.00  0.00    +0.044 C 
ATOM      6  C   UNL     1      -3.284   9.964  -6.844  0.00  0.00    -0.047 A 
ATOM      7  C   UNL     1      -3.632   9.136  -5.793  0.00  0.00    +0.005 A 
ATOM      8  C   UNL     1      -2.662   8.664  -4.929  0.00  0.00    +0.027 A 
ATOM      9  C   UNL     1      -1.335   9.023  -5.115  0.00  0.00    +0.075 A 
ATOM     10  C   UNL     1      -0.985   9.862  -6.171  0.00  0.00    +0.138 A 
ATOM     11  C   UNL     1      -1.963  10.326  -7.036  0.00  0.00    +0.050 A 
BRANCH  10  12
ATOM     12  O   UNL     1       0.313  10.222  -6.354  0.00  0.00    -0.505 OA
ATOM     13  H   UNL     1       0.810   9.622  -6.927  0.00  0.00    +0.292 HD
ENDBRANCH  10  12
ENDBRANCH   1   9
BRANCH   2  14
ATOM     14  C   UNL     1       0.651   6.760  -2.852  0.00  0.00    +0.131 C 
BRANCH  14  15
ATOM     15  C   UNL     1       0.286   5.372  -2.391  0.00  0.00    -0.034 A 
ATOM     16  C   UNL     1      -0.407   5.200  -1.206  0.00  0.00    +0.053 A 
ATOM     17  C   UNL     1      -0.741   3.924  -0.785  0.00  0.00    +0.164 A 
ATOM     18  C   UNL     1      -0.381   2.824  -1.549  0.00  0.00    +0.180 A 
ATOM     19  C   UNL     1       0.313   2.999  -2.735  0.00  0.00    +0.086 A 
ATOM     20  C   UNL     1       0.645   4.277  -3.153  0.00  0.00    +0.028 A 
ATOM     21 CL   UNL     1       0.764   1.623  -3.693  0.00  0.00    -0.080 Cl
ATOM     22  O   UNL     1      -0.715   1.570  -1.124  0.00  0.00    -0.487 OA
ATOM     23  C   UNL     1      -0.043   1.108   0.049  0.00  0.00    +0.232 C 
ATOM     24  C   UNL     1      -0.750   1.599   1.303  0.00  0.00    +0.082 C 
ATOM     25  C   UNL     1      -0.701   3.113   1.440  0.00  0.00    +0.232 C 
ATOM     26  O   UNL     1      -1.426   3.741   0.381  0.00  0.00    -0.488 OA
ENDBRANCH  14  15
ENDBRANCH   2  14
TORSDOF 4
