REMARK  Name = ZINC23074286
REMARK  12 active torsions:
REMARK  status: ('A' for Active; 'I' for Inactive)
REMARK    1  A    between atoms: C_1  and  C_2
REMARK    2  A    between atoms: C_2  and  C_4
REMARK    3  A    between atoms: C_2  and  N_10
REMARK    4  A    between atoms: C_4  and  C_5
REMARK    5  A    between atoms: N_10  and  C_11
REMARK    6  A    between atoms: N_10  and  C_20
REMARK    7  A    between atoms: C_11  and  C_12
REMARK    8  A    between atoms: C_15  and  O_18
REMARK    9  A    between atoms: O_18  and  C_19
REMARK   10  A    between atoms: C_20  and  C_21
REMARK   11  A    between atoms: N_23  and  C_24
REMARK   12  A    between atoms: C_27  and  N_30
REMARK                            x       y       z     vdW  Elec       q    Type
REMARK                         _______ _______ _______ _____ _____    ______ ____
ROOT
ATOM      1  N   UNL     1      10.315  -1.600  -1.242  0.00  0.00    +0.390 N 
ATOM      2  H   UNL     1       9.684  -2.373  -0.777  0.00  0.00    -0.080 HD
ENDROOT
BRANCH   1   4
ATOM      3  C   UNL     1       9.446  -2.799  -3.192  0.00  0.00    -0.013 C 
ATOM      4  C   UNL     1       9.883  -1.442  -2.636  0.00  0.00    -0.066 C 
BRANCH   4   5
ATOM      5  C   UNL     1      11.044  -0.899  -3.472  0.00  0.00    +0.027 C 
BRANCH   5   6
ATOM      6  C   UNL     1      11.376   0.500  -3.019  0.00  0.00    -0.012 A 
ATOM      7  C   UNL     1      12.345   0.913  -2.166  0.00  0.00    +0.011 A 
ATOM      8  C   UNL     1      12.468   2.263  -1.895  0.00  0.00    +0.008 A 
ATOM      9  C   UNL     1      11.616   3.133  -2.489  0.00  0.00    +0.045 A 
ATOM     10  S   UNL     1      10.602   2.043  -3.474  0.00  0.00    -0.102 S 
ENDBRANCH   5   6
ENDBRANCH   4   5
ENDBRANCH   1   4
BRANCH   1  11
ATOM     11  C   UNL     1      11.710  -2.055  -1.171  0.00  0.00    -0.042 C 
BRANCH  11  12
ATOM     12  C   UNL     1      11.788  -3.503  -1.579  0.00  0.00    -0.064 A 
ATOM     13  C   UNL     1      11.368  -4.490  -0.707  0.00  0.00    +0.005 A 
ATOM     14  C   UNL     1      11.432  -5.818  -1.081  0.00  0.00    +0.046 A 
ATOM     15  C   UNL     1      11.930  -6.163  -2.329  0.00  0.00    +0.120 A 
ATOM     16  C   UNL     1      12.356  -5.171  -3.201  0.00  0.00    +0.046 A 
ATOM     17  C   UNL     1      12.284  -3.844  -2.824  0.00  0.00    +0.005 A 
BRANCH  15  18
ATOM     18  O   UNL     1      11.999  -7.469  -2.698  0.00  0.00    -0.495 OA
ATOM     19  C   UNL     1      11.543  -8.436  -1.749  0.00  0.00    +0.277 C 
ENDBRANCH  15  18
ENDBRANCH  11  12
ENDBRANCH   1  11
BRANCH   1  20
ATOM     20  C   UNL     1      10.129  -0.353  -0.488  0.00  0.00    +0.020 C 
BRANCH  20  21
ATOM     21  C   UNL     1       8.671  -0.184  -0.148  0.00  0.00    +0.201 C 
ATOM     22  O   UNL     1       7.856  -0.984  -0.557  0.00  0.00    -0.278 OA
ATOM     23  N   UNL     1       8.272   0.857   0.610  0.00  0.00    -0.287 N 
ATOM     24  H   UNL     1       8.998   1.623   0.919  0.00  0.00    +0.155 HD
BRANCH  23  25
ATOM     25  C   UNL     1       6.932   0.963   1.003  0.00  0.00    +0.033 A 
ATOM     26  C   UNL     1       6.614   1.475   2.255  0.00  0.00    +0.025 A 
ATOM     27  C   UNL     1       5.294   1.580   2.643  0.00  0.00    +0.025 A 
ATOM     28  C   UNL     1       4.282   1.174   1.782  0.00  0.00    +0.036 A 
ATOM     29  C   UNL     1       4.600   0.657   0.532  0.00  0.00    +0.025 A 
ATOM     30  C   UNL     1       5.921   0.557   0.142  0.00  0.00    +0.025 A 
BRANCH  28  31
ATOM     31  N   UNL     1       2.942   1.281   2.175  0.00  0.00    -0.271 N 
ATOM     32  C   UNL     1       2.503   1.689   3.514  0.00  0.00    +0.114 C 
ATOM     33  C   UNL     1       1.017   2.081   3.359  0.00  0.00    +0.029 C 
ATOM     34  C   UNL     1       0.599   1.250   2.123  0.00  0.00    +0.098 C 
ATOM     35  C   UNL     1       1.894   1.023   1.375  0.00  0.00    +0.220 C 
ATOM     36  O   UNL     1       1.974   0.659   0.220  0.00  0.00    -0.275 OA
ENDBRANCH  28  31
ENDBRANCH  23  25
ENDBRANCH  20  21
ENDBRANCH   1  20
TORSDOF 10
