REMARK  Name = ZINC19279280
REMARK  9 active torsions:
REMARK  status: ('A' for Active; 'I' for Inactive)
REMARK    1  A    between atoms: C_7  and  C_11
REMARK    2  A    between atoms: C_11  and  C_12
REMARK    3  A    between atoms: C_12  and  N_13
REMARK    4  A    between atoms: C_14  and  C_16
REMARK    5  A    between atoms: C_16  and  S_17
REMARK    6  A    between atoms: S_17  and  C_18
REMARK    7  A    between atoms: N_23  and  C_24
REMARK    8  A    between atoms: C_27  and  O_30
REMARK    9  A    between atoms: O_30  and  C_31
REMARK                            x       y       z     vdW  Elec       q    Type
REMARK                         _______ _______ _______ _____ _____    ______ ____
ROOT
ATOM      1  S   UNL     1      -5.838  -2.825  -4.155  0.00  0.00    -0.088 S 
ENDROOT
BRANCH   1   2
ATOM      2  C   UNL     1      -7.032  -4.114  -4.017  0.00  0.00    +0.160 A 
ATOM      3  N   UNL     1      -7.413  -4.789  -2.950  0.00  0.00    -0.133 NA
ATOM      4  N   UNL     1      -8.374  -5.767  -3.066  0.00  0.00    -0.125 NA
ATOM      5  C   UNL     1      -8.909  -6.024  -4.244  0.00  0.00    +0.187 A 
ATOM      6  S   UNL     1      -8.055  -4.849  -5.283  0.00  0.00    -0.024 S 
ATOM      7  N   UNL     1      -9.882  -6.957  -4.585  0.00  0.00    -0.292 N 
ATOM      8  H   UNL     1     -10.150  -7.113  -5.640  0.00  0.00    +0.154 HD
BRANCH   7   9
ATOM      9  C   UNL     1     -10.521  -7.699  -3.584  0.00  0.00    +0.033 A 
ATOM     10  C   UNL     1     -11.059  -8.945  -3.880  0.00  0.00    +0.027 A 
ATOM     11  C   UNL     1     -11.685  -9.678  -2.891  0.00  0.00    +0.048 A 
ATOM     12  C   UNL     1     -11.786  -9.166  -1.606  0.00  0.00    +0.130 A 
ATOM     13  C   UNL     1     -11.254  -7.919  -1.311  0.00  0.00    +0.048 A 
ATOM     14  C   UNL     1     -10.623  -7.187  -2.297  0.00  0.00    +0.027 A 
BRANCH  12  15
ATOM     15  O   UNL     1     -12.407  -9.886  -0.634  0.00  0.00    -0.406 OA
BRANCH  15  16
ATOM     16  C   UNL     1     -12.932 -11.162  -1.007  0.00  0.00    +0.575 C 
ATOM     17  F   UNL     1     -11.893 -11.976  -1.473  0.00  0.00    -0.133 F 
ATOM     18  F   UNL     1     -13.532 -11.763   0.104  0.00  0.00    -0.133 F 
ATOM     19  F   UNL     1     -13.884 -10.997  -2.019  0.00  0.00    -0.133 F 
ENDBRANCH  15  16
ENDBRANCH  12  15
ENDBRANCH   7   9
ENDBRANCH   1   2
BRANCH   1  20
ATOM     20  C   UNL     1      -5.221  -2.615  -2.462  0.00  0.00    +0.172 C 
BRANCH  20  22
ATOM     21  N   UNL     1      -3.577  -1.196  -1.279  0.00  0.00    -0.314 N 
ATOM     22  C   UNL     1      -4.178  -1.528  -2.438  0.00  0.00    +0.223 C 
ATOM     23  O   UNL     1      -3.881  -0.951  -3.463  0.00  0.00    -0.275 OA
ATOM     24  H   UNL     1      -3.847  -1.719  -0.350  0.00  0.00    +0.149 HD
BRANCH  21  25
ATOM     25  C   UNL     1      -2.563  -0.138  -1.256  0.00  0.00    +0.109 C 
BRANCH  25  26
ATOM     26  C   UNL     1      -2.043   0.039   0.172  0.00  0.00    +0.056 C 
BRANCH  26  33
ATOM     27  C   UNL     1      -2.287   4.707   0.527  0.00  0.00    +0.001 A 
ATOM     28  C   UNL     1      -1.039   5.316   0.505  0.00  0.00    +0.002 A 
ATOM     29  C   UNL     1       0.108   4.564   0.389  0.00  0.00    +0.026 A 
ATOM     30  C   UNL     1       0.020   3.179   0.291  0.00  0.00    +0.047 A 
ATOM     31  C   UNL     1      -1.246   2.566   0.314  0.00  0.00    +0.003 A 
ATOM     32  C   UNL     1      -2.396   3.348   0.438  0.00  0.00    +0.010 A 
ATOM     33  C   UNL     1      -1.001   1.127   0.196  0.00  0.00    -0.021 A 
ATOM     34  C   UNL     1       0.329   0.961   0.113  0.00  0.00    +0.087 A 
ATOM     35  N   UNL     1       0.955   2.176   0.168  0.00  0.00    -0.360 N 
ATOM     36  H   UNL     1       2.026   2.424   0.130  0.00  0.00    +0.165 HD
ENDBRANCH  26  33
ENDBRANCH  25  26
ENDBRANCH  21  25
ENDBRANCH  20  22
ENDBRANCH   1  20
TORSDOF 9
