REMARK  Name = ZINC39688509
REMARK  7 active torsions:
REMARK  status: ('A' for Active; 'I' for Inactive)
REMARK    1  A    between atoms: C_1  and  C_2
REMARK    2  A    between atoms: C_2  and  C_4
REMARK    3  A    between atoms: C_2  and  N_12
REMARK    4  A    between atoms: C_4  and  C_5
REMARK    5  A    between atoms: C_13  and  C_15
REMARK    6  A    between atoms: C_26  and  C_28
REMARK    7  A    between atoms: C_31  and  C_35
REMARK                            x       y       z     vdW  Elec       q    Type
REMARK                         _______ _______ _______ _____ _____    ______ ____
ROOT
ATOM      1  C   UNL     1       2.348  -3.050  -2.590  0.00  0.00    +0.100 C 
ATOM      2  C   UNL     1       1.303  -3.987  -1.944  0.00  0.00    +0.121 C 
ATOM      3  N   UNL     1       0.098  -3.845  -2.793  0.00  0.00    -0.296 N 
ATOM      4  C   UNL     1       0.627  -3.771  -4.176  0.00  0.00    +0.115 C 
ATOM      5  C   UNL     1       1.903  -2.913  -4.056  0.00  0.00    -0.004 C 
ATOM      6  C   UNL     1       2.987  -3.446  -4.989  0.00  0.00    -0.010 C 
ATOM      7  C   UNL     1       2.546  -3.246  -6.442  0.00  0.00    -0.082 C 
ATOM      8  N   UNL     1       2.314  -1.818  -6.693  0.00  0.00    +0.379 N 
ATOM      9  C   UNL     1       1.207  -1.337  -5.858  0.00  0.00    -0.082 C 
ATOM     10  C   UNL     1       1.591  -1.456  -4.380  0.00  0.00    -0.010 C 
ATOM     11  C   UNL     1      -1.190  -3.797  -2.398  0.00  0.00    +0.247 C 
ATOM     12  O   UNL     1      -2.069  -3.597  -3.214  0.00  0.00    -0.270 OA
ATOM     13  H   UNL     1       3.151  -1.299  -6.473  0.00  0.00    -0.086 HD
ATOM     14  H   UNL     1       2.083  -1.683  -7.666  0.00  0.00    -0.086 HD
ENDROOT
BRANCH  11  15
ATOM     15  C   UNL     1      -1.534  -3.985  -0.973  0.00  0.00    +0.040 A 
ATOM     16  C   UNL     1      -1.060  -3.089  -0.013  0.00  0.00    +0.014 A 
ATOM     17  C   UNL     1      -1.383  -3.269   1.315  0.00  0.00    +0.016 A 
ATOM     18  C   UNL     1      -2.177  -4.336   1.699  0.00  0.00    +0.090 A 
ATOM     19  C   UNL     1      -2.651  -5.230   0.753  0.00  0.00    +0.136 A 
ATOM     20  C   UNL     1      -2.338  -5.056  -0.582  0.00  0.00    +0.052 A 
ATOM     21  F   UNL     1      -3.425  -6.269   1.135  0.00  0.00    -0.205 F 
BRANCH  18  22
ATOM     22  C   UNL     1      -2.527  -4.526   3.153  0.00  0.00    +0.420 C 
ATOM     23  F   UNL     1      -2.029  -3.451   3.897  0.00  0.00    -0.166 F 
ATOM     24  F   UNL     1      -3.917  -4.587   3.294  0.00  0.00    -0.166 F 
ATOM     25  F   UNL     1      -1.958  -5.717   3.617  0.00  0.00    -0.166 F 
ENDBRANCH  18  22
ENDBRANCH  11  15
BRANCH   1  27
ATOM     26  N   UNL     1       3.442  -0.931  -1.930  0.00  0.00    -0.312 N 
ATOM     27  C   UNL     1       2.338  -1.704  -1.911  0.00  0.00    +0.218 C 
ATOM     28  O   UNL     1       1.336  -1.317  -1.348  0.00  0.00    -0.275 OA
ATOM     29  H   UNL     1       4.260  -1.264  -2.333  0.00  0.00    +0.149 HD
BRANCH  26  31
ATOM     30  C   UNL     1       2.880   1.406  -2.379  0.00  0.00    +0.028 C 
ATOM     31  C   UNL     1       3.407   0.410  -1.343  0.00  0.00    +0.074 C 
BRANCH  31  32
ATOM     32  C   UNL     1       4.819   0.817  -0.917  0.00  0.00    +0.057 C 
BRANCH  32  33
ATOM     33  C   UNL     1       5.562  -0.395  -0.419  0.00  0.00    -0.045 A 
ATOM     34  C   UNL     1       5.399  -0.817   0.887  0.00  0.00    +0.006 A 
ATOM     35  C   UNL     1       6.080  -1.929   1.345  0.00  0.00    +0.038 A 
ATOM     36  C   UNL     1       6.926  -2.621   0.494  0.00  0.00    +0.123 A 
ATOM     37  C   UNL     1       7.089  -2.197  -0.814  0.00  0.00    +0.038 A 
ATOM     38  C   UNL     1       6.402  -1.088  -1.271  0.00  0.00    +0.006 A 
ATOM     39  F   UNL     1       7.593  -3.708   0.940  0.00  0.00    -0.205 F 
ENDBRANCH  32  33
ENDBRANCH  31  32
ENDBRANCH  26  31
ENDBRANCH   1  27
TORSDOF 6
