REMARK  Name = ZINC21981413
REMARK  13 active torsions:
REMARK  status: ('A' for Active; 'I' for Inactive)
REMARK    1  A    between atoms: C_1  and  N_2
REMARK    2  A    between atoms: N_2  and  C_3
REMARK    3  A    between atoms: N_2  and  C_4
REMARK    4  A    between atoms: C_4  and  C_5
REMARK    5  A    between atoms: C_5  and  C_7
REMARK    6  A    between atoms: C_5  and  C_31
REMARK    7  A    between atoms: C_10  and  O_13
REMARK    8  A    between atoms: O_13  and  C_14
REMARK    9  A    between atoms: C_16  and  O_30
REMARK   10  A    between atoms: C_18  and  O_29
REMARK   11  A    between atoms: C_20  and  O_28
REMARK   12  A    between atoms: C_22  and  C_25
REMARK   13  A    between atoms: C_31  and  O_37
REMARK                            x       y       z     vdW  Elec       q    Type
REMARK                         _______ _______ _______ _____ _____    ______ ____
ROOT
ATOM      1  C   UNL     1      -0.882   3.090  -1.344  0.00  0.00    -0.043 A 
ATOM      2  C   UNL     1       0.237   3.862  -1.597  0.00  0.00    +0.007 A 
ATOM      3  C   UNL     1       0.120   5.234  -1.707  0.00  0.00    +0.046 A 
ATOM      4  C   UNL     1      -1.119   5.838  -1.550  0.00  0.00    +0.124 A 
ATOM      5  C   UNL     1      -2.239   5.062  -1.290  0.00  0.00    +0.046 A 
ATOM      6  C   UNL     1      -2.118   3.690  -1.188  0.00  0.00    +0.007 A 
ENDROOT
BRANCH   1   7
ATOM      7  C   UNL     1      -0.753   1.593  -1.232  0.00  0.00    +0.034 C 
BRANCH   7   8
ATOM      8  C   UNL     1      -0.383   1.009  -2.596  0.00  0.00    +0.071 C 
ATOM      9  C   UNL     1      -1.429   1.429  -3.631  0.00  0.00    +0.035 C 
ATOM     10  C   UNL     1      -1.058   0.845  -4.996  0.00  0.00    +0.003 C 
ATOM     11  C   UNL     1      -1.017  -0.682  -4.904  0.00  0.00    +0.000 C 
ATOM     12  C   UNL     1       0.029  -1.102  -3.869  0.00  0.00    +0.003 C 
ATOM     13  C   UNL     1      -0.341  -0.518  -2.504  0.00  0.00    +0.035 C 
BRANCH   8  14
ATOM     14  O   UNL     1       0.901   1.497  -2.991  0.00  0.00    -0.388 OA
ATOM     15  H   UNL     1       1.337   1.185  -3.952  0.00  0.00    +0.210 HD
ENDBRANCH   8  14
ENDBRANCH   7   8
BRANCH   7  16
ATOM     16  C   UNL     1       0.340   1.250  -0.217  0.00  0.00    -0.069 C 
BRANCH  16  18
ATOM     17  C   UNL     1      -1.239   0.954   1.595  0.00  0.00    -0.097 C 
ATOM     18  N   UNL     1      -0.071   1.706   1.118  0.00  0.00    +0.376 N 
ATOM     19  C   UNL     1       1.042   1.610   2.072  0.00  0.00    -0.097 C 
ATOM     20  H   UNL     1      -0.359   2.764   1.039  0.00  0.00    -0.083 HD
ENDBRANCH  16  18
ENDBRANCH   7  16
ENDBRANCH   1   7
BRANCH   4  21
ATOM     21  O   UNL     1      -1.235   7.189  -1.652  0.00  0.00    -0.461 OA
BRANCH  21  22
ATOM     22  C   UNL     1      -0.040   7.924  -1.921  0.00  0.00    +0.340 C 
ATOM     23  C   UNL     1      -0.385   9.402  -2.123  0.00  0.00    +0.214 C 
ATOM     24  C   UNL     1       0.906  10.194  -2.351  0.00  0.00    +0.180 C 
ATOM     25  C   UNL     1       1.845   9.973  -1.160  0.00  0.00    +0.186 C 
ATOM     26  C   UNL     1       2.103   8.473  -0.996  0.00  0.00    +0.266 C 
ATOM     27  O   UNL     1       0.859   7.793  -0.818  0.00  0.00    -0.322 OA
BRANCH  26  28
ATOM     28  C   UNL     1       2.978   8.243   0.210  0.00  0.00    +0.387 C 
ATOM     29  O   UNL     1       2.545   7.643   1.165  0.00  0.00    -0.243 OA
ATOM     30  O   UNL     1       4.238   8.705   0.222  0.00  0.00    -0.243 OA
ENDBRANCH  26  28
BRANCH  25  31
ATOM     31  O   UNL     1       3.082  10.648  -1.396  0.00  0.00    -0.386 OA
ATOM     32  H   UNL     1       3.885  10.602  -0.645  0.00  0.00    +0.210 HD
ENDBRANCH  25  31
BRANCH  24  33
ATOM     33  O   UNL     1       0.601  11.585  -2.467  0.00  0.00    -0.386 OA
ATOM     34  H   UNL     1       1.408  12.313  -2.635  0.00  0.00    +0.210 HD
ENDBRANCH  24  33
BRANCH  23  35
ATOM     35  O   UNL     1      -1.238   9.542  -3.261  0.00  0.00    -0.383 OA
ATOM     36  H   UNL     1      -1.593  10.539  -3.563  0.00  0.00    +0.210 HD
ENDBRANCH  23  35
ENDBRANCH  21  22
ENDBRANCH   4  21
TORSDOF 11
