REMARK  Name = ZINC63649754
REMARK  12 active torsions:
REMARK  status: ('A' for Active; 'I' for Inactive)
REMARK    1  A    between atoms: C_1  and  C_2
REMARK    2  A    between atoms: C_2  and  C_3
REMARK    3  A    between atoms: C_3  and  C_4
REMARK    4  A    between atoms: C_6  and  C_9
REMARK    5  A    between atoms: C_9  and  S_10
REMARK    6  A    between atoms: S_10  and  C_11
REMARK    7  A    between atoms: C_11  and  C_12
REMARK    8  A    between atoms: N_14  and  C_15
REMARK    9  A    between atoms: N_14  and  C_16
REMARK   10  A    between atoms: C_16  and  C_17
REMARK   11  A    between atoms: N_19  and  C_20
REMARK   12  A    between atoms: C_23  and  C_26
REMARK                            x       y       z     vdW  Elec       q    Type
REMARK                         _______ _______ _______ _____ _____    ______ ____
ROOT
ATOM      1  C   UNL     1      -0.823  -7.606  -5.577  0.00  0.00    +0.226 C 
ATOM      2  O   UNL     1       0.034  -7.045  -6.225  0.00  0.00    -0.275 OA
ATOM      3  N   UNL     1      -1.474  -8.666  -6.095  0.00  0.00    -0.295 N 
ATOM      4  C   UNL     1      -2.510  -9.345  -5.312  0.00  0.00    +0.132 C 
ENDROOT
BRANCH   1   5
ATOM      5  C   UNL     1      -1.160  -7.119  -4.191  0.00  0.00    +0.165 C 
BRANCH   5   6
ATOM      6  S   UNL     1      -0.120  -5.690  -3.783  0.00  0.00    -0.144 S 
BRANCH   6   7
ATOM      7  C   UNL     1      -0.642  -5.231  -2.108  0.00  0.00    +0.149 C 
BRANCH   7  10
ATOM      8  C   UNL     1       0.719  -1.978  -1.296  0.00  0.00    +0.227 A 
ATOM      9  N   UNL     1      -0.186  -2.758  -1.819  0.00  0.00    -0.195 NA
ATOM     10  C   UNL     1       0.155  -4.040  -1.642  0.00  0.00    +0.181 A 
ATOM     11  N   UNL     1       1.287  -4.090  -1.002  0.00  0.00    -0.060 NA
ATOM     12  O   UNL     1       1.680  -2.745  -0.768  0.00  0.00    -0.338 OA
BRANCH   8  13
ATOM     13  C   UNL     1       0.690  -0.471  -1.293  0.00  0.00    +0.098 C 
BRANCH  13  15
ATOM     14  C   UNL     1      -0.053   1.552  -0.030  0.00  0.00    +0.004 C 
ATOM     15  C   UNL     1      -0.024   0.023  -0.033  0.00  0.00    +0.006 C 
ENDBRANCH  13  15
ENDBRANCH   8  13
ENDBRANCH   7  10
ENDBRANCH   6   7
ENDBRANCH   5   6
ENDBRANCH   1   5
BRANCH   3  16
ATOM     16  C   UNL     1      -1.147  -9.140  -7.442  0.00  0.00    +0.203 C 
BRANCH  16  17
ATOM     17  C   UNL     1      -0.052 -10.172  -7.360  0.00  0.00    +0.235 C 
ATOM     18  O   UNL     1       0.409 -10.482  -6.282  0.00  0.00    -0.274 OA
ATOM     19  N   UNL     1       0.414 -10.752  -8.484  0.00  0.00    -0.284 N 
ATOM     20  H   UNL     1       0.000 -10.554  -9.338  0.00  0.00    +0.155 HD
BRANCH  19  21
ATOM     21  C   UNL     1       1.495 -11.638  -8.418  0.00  0.00    +0.033 A 
ATOM     22  C   UNL     1       2.427 -11.676  -9.446  0.00  0.00    +0.023 A 
ATOM     23  C   UNL     1       3.493 -12.552  -9.378  0.00  0.00    +0.005 A 
ATOM     24  C   UNL     1       3.632 -13.390  -8.287  0.00  0.00    -0.050 A 
ATOM     25  C   UNL     1       2.705 -13.355  -7.261  0.00  0.00    +0.005 A 
ATOM     26  C   UNL     1       1.641 -12.477  -7.321  0.00  0.00    +0.023 A 
ATOM     27  C   UNL     1       4.796 -14.344  -8.216  0.00  0.00    +0.044 C 
ENDBRANCH  19  21
ENDBRANCH  16  17
ENDBRANCH   3  16
TORSDOF 9
