REMARK  Name = ZINC15945984
REMARK  5 active torsions:
REMARK  status: ('A' for Active; 'I' for Inactive)
REMARK    1  A    between atoms: C_6  and  C_7
REMARK    2  A    between atoms: C_7  and  C_23
REMARK    3  A    between atoms: C_9  and  C_11
REMARK    4  A    between atoms: N_13  and  C_14
REMARK    5  A    between atoms: C_17  and  N_20
REMARK                            x       y       z     vdW  Elec       q    Type
REMARK                         _______ _______ _______ _____ _____    ______ ____
ROOT
ATOM      1  C   UNL     1      -2.531   5.670   0.254  0.00  0.00    +0.032 C 
ATOM      2  C   UNL     1      -2.949   5.175   1.640  0.00  0.00    +0.031 C 
ATOM      3  C   UNL     1      -2.559   4.170   0.554  0.00  0.00    +0.091 C 
ENDROOT
BRANCH   1   9
ATOM      4  C   UNL     1      -0.774   7.253   1.073  0.00  0.00    +0.006 A 
ATOM      5  C   UNL     1       0.466   7.854   0.961  0.00  0.00    +0.020 A 
ATOM      6  C   UNL     1       1.293   7.540  -0.103  0.00  0.00    +0.041 A 
ATOM      7  C   UNL     1       0.881   6.620  -1.051  0.00  0.00    +0.020 A 
ATOM      8  C   UNL     1      -0.356   6.015  -0.934  0.00  0.00    +0.006 A 
ATOM      9  C   UNL     1      -1.182   6.329   0.128  0.00  0.00    -0.036 A 
ATOM     10 CL   UNL     1       2.848   8.299  -0.247  0.00  0.00    -0.084 Cl
ENDBRANCH   1   9
BRANCH   1  11
ATOM     11  C   UNL     1      -3.611   6.220  -0.642  0.00  0.00    -0.036 A 
ATOM     12  C   UNL     1      -4.629   5.396  -1.084  0.00  0.00    +0.006 A 
ATOM     13  C   UNL     1      -5.622   5.902  -1.902  0.00  0.00    +0.020 A 
ATOM     14  C   UNL     1      -5.590   7.230  -2.287  0.00  0.00    +0.041 A 
ATOM     15  C   UNL     1      -4.568   8.053  -1.849  0.00  0.00    +0.020 A 
ATOM     16  C   UNL     1      -3.579   7.548  -1.027  0.00  0.00    +0.006 A 
ATOM     17 CL   UNL     1      -6.834   7.864  -3.320  0.00  0.00    -0.084 Cl
ENDBRANCH   1  11
BRANCH   3  18
ATOM     18  C   UNL     1      -1.236   3.465   0.701  0.00  0.00    +0.221 C 
ATOM     19  O   UNL     1      -0.214   4.110   0.807  0.00  0.00    -0.275 OA
ATOM     20  N   UNL     1      -1.187   2.118   0.716  0.00  0.00    -0.285 N 
ATOM     21  H   UNL     1      -1.993   1.602   0.556  0.00  0.00    +0.155 HD
BRANCH  20  22
ATOM     22  C   UNL     1       0.025   1.464   0.960  0.00  0.00    +0.034 A 
ATOM     23  C   UNL     1       1.214   2.002   0.484  0.00  0.00    +0.025 A 
ATOM     24  C   UNL     1       2.409   1.351   0.722  0.00  0.00    +0.034 A 
ATOM     25  C   UNL     1       2.422   0.165   1.434  0.00  0.00    +0.126 A 
ATOM     26  C   UNL     1       1.240  -0.373   1.909  0.00  0.00    +0.034 A 
ATOM     27  C   UNL     1       0.042   0.273   1.674  0.00  0.00    +0.025 A 
BRANCH  25  28
ATOM     28  N   UNL     1       3.704  -0.530   1.688  0.00  0.00    +0.056 N 
ATOM     29  O   UNL     1       3.717  -1.574   2.314  0.00  0.00    -0.126 OA
ATOM     30  O   UNL     1       4.746  -0.057   1.269  0.00  0.00    -0.126 OA
ENDBRANCH  25  28
ENDBRANCH  20  22
ENDBRANCH   3  18
TORSDOF 5
