REMARK  Name = ZINC15305591
REMARK  4 active torsions:
REMARK  status: ('A' for Active; 'I' for Inactive)
REMARK    1  A    between atoms: C_4  and  C_7
REMARK    2  A    between atoms: C_10  and  C_36
REMARK    3  A    between atoms: C_15  and  C_17
REMARK    4  A    between atoms: N_22  and  C_25
REMARK                            x       y       z     vdW  Elec       q    Type
REMARK                         _______ _______ _______ _____ _____    ______ ____
ROOT
ATOM      1  C   UNL     1       3.677  -0.742   0.014  0.00  0.00    +0.104 C 
ATOM      2  C   UNL     1       3.972  -1.267   1.424  0.00  0.00    +0.058 C 
ATOM      3  C   UNL     1       5.340  -1.959   1.448  0.00  0.00    +0.141 C 
ATOM      4  N   UNL     1       5.406  -2.917   0.341  0.00  0.00    -0.243 N 
ATOM      5  C   UNL     1       4.584  -2.873  -0.750  0.00  0.00    +0.119 A 
ATOM      6  C   UNL     1       4.912  -3.895  -1.565  0.00  0.00    +0.078 A 
ATOM      7  C   UNL     1       5.978  -4.598  -0.959  0.00  0.00    +0.149 A 
ATOM      8  N   UNL     1       6.267  -4.002   0.185  0.00  0.00    -0.164 NA
ATOM      9  N   UNL     1       3.602  -1.890  -0.912  0.00  0.00    -0.322 N 
ATOM     10  H   UNL     1       2.910  -1.959  -1.589  0.00  0.00    +0.148 HD
ENDROOT
BRANCH   7  11
ATOM     11  C   UNL     1       6.652  -5.792  -1.508  0.00  0.00    +0.267 C 
ATOM     12  O   UNL     1       6.222  -6.324  -2.513  0.00  0.00    -0.268 OA
ATOM     13  N   UNL     1       7.744  -6.292  -0.895  0.00  0.00    -0.300 N 
ATOM     14  C   UNL     1       8.227  -5.722   0.372  0.00  0.00    +0.089 C 
ATOM     15  C   UNL     1       9.726  -5.434   0.234  0.00  0.00    -0.059 C 
ATOM     16  N   UNL     1      10.422  -6.657  -0.185  0.00  0.00    +0.385 N 
ATOM     17  C   UNL     1       9.971  -7.055  -1.525  0.00  0.00    -0.059 C 
ATOM     18  C   UNL     1       8.482  -7.427  -1.472  0.00  0.00    +0.089 C 
ATOM     19  H   UNL     1      10.221  -7.398   0.470  0.00  0.00    -0.081 HD
BRANCH  16  20
ATOM     20  C   UNL     1      11.870  -6.410  -0.210  0.00  0.00    -0.065 C 
ATOM     21  C   UNL     1      12.343  -6.007   1.188  0.00  0.00    -0.009 C 
ATOM     22  C   UNL     1      13.851  -5.750   1.161  0.00  0.00    -0.012 C 
ATOM     23  C   UNL     1      14.578  -7.023   0.725  0.00  0.00    +0.007 C 
ATOM     24  C   UNL     1      14.105  -7.427  -0.673  0.00  0.00    -0.012 C 
ATOM     25  C   UNL     1      12.597  -7.684  -0.647  0.00  0.00    -0.009 C 
ATOM     26  C   UNL     1      14.412  -6.300  -1.661  0.00  0.00    +0.007 C 
ATOM     27  C   UNL     1      13.686  -5.026  -1.225  0.00  0.00    -0.012 C 
ATOM     28  C   UNL     1      14.159  -4.622   0.173  0.00  0.00    +0.007 C 
ATOM     29  C   UNL     1      12.178  -5.283  -1.198  0.00  0.00    -0.009 C 
ENDBRANCH  16  20
ENDBRANCH   7  11
BRANCH   1  33
ATOM     30  C   UNL     1      -0.048   1.349   0.010  0.00  0.00    +0.000 A 
ATOM     31  C   UNL     1       1.140   2.054   0.056  0.00  0.00    +0.000 A 
ATOM     32  C   UNL     1       2.346   1.377   0.057  0.00  0.00    +0.005 A 
ATOM     33  C   UNL     1       2.363  -0.005   0.013  0.00  0.00    -0.027 A 
ATOM     34  C   UNL     1       1.174  -0.709  -0.032  0.00  0.00    +0.005 A 
ATOM     35  C   UNL     1      -0.031  -0.033  -0.035  0.00  0.00    +0.000 A 
ENDBRANCH   1  33
BRANCH   3  36
ATOM     36  C   UNL     1       5.516  -2.683   2.757  0.00  0.00    -0.023 A 
ATOM     37  C   UNL     1       4.635  -3.686   3.116  0.00  0.00    +0.006 A 
ATOM     38  C   UNL     1       4.796  -4.351   4.317  0.00  0.00    +0.000 A 
ATOM     39  C   UNL     1       5.839  -4.013   5.159  0.00  0.00    +0.000 A 
ATOM     40  C   UNL     1       6.721  -3.011   4.800  0.00  0.00    +0.000 A 
ATOM     41  C   UNL     1       6.562  -2.349   3.597  0.00  0.00    +0.006 A 
ENDBRANCH   3  36
TORSDOF 4
