REMARK  Name = ZINC39836387
REMARK  9 active torsions:
REMARK  status: ('A' for Active; 'I' for Inactive)
REMARK    1  A    between atoms: C_1  and  C_2
REMARK    2  A    between atoms: C_2  and  C_3
REMARK    3  A    between atoms: C_3  and  C_5
REMARK    4  A    between atoms: C_3  and  O_30
REMARK    5  A    between atoms: N_7  and  C_8
REMARK    6  A    between atoms: C_9  and  C_19
REMARK    7  A    between atoms: C_14  and  C_18
REMARK    8  A    between atoms: N_21  and  C_22
REMARK    9  A    between atoms: O_30  and  C_31
REMARK                            x       y       z     vdW  Elec       q    Type
REMARK                         _______ _______ _______ _____ _____    ______ ____
ROOT
ATOM      1  C   UNL     1       2.123  -3.925  -0.528  0.00  0.00    +0.085 A 
ATOM      2  C   UNL     1       2.925  -4.682   0.312  0.00  0.00    +0.069 A 
ATOM      3  C   UNL     1       3.042  -6.100   0.019  0.00  0.00    -0.023 A 
ATOM      4  C   UNL     1       2.337  -6.501  -1.060  0.00  0.00    -0.004 A 
ATOM      5  S   UNL     1       1.544  -5.033  -1.649  0.00  0.00    -0.077 S 
ATOM      6  C   UNL     1       2.255  -7.889  -1.616  0.00  0.00    +0.046 C 
ATOM      7  C   UNL     1       3.390  -8.722  -1.002  0.00  0.00    -0.009 C 
ATOM      8  C   UNL     1       3.401  -8.503   0.513  0.00  0.00    +0.008 C 
ATOM      9  C   UNL     1       3.873  -7.082   0.831  0.00  0.00    +0.037 C 
ATOM     10  C   UNL     1       3.160 -10.204  -1.307  0.00  0.00    +0.008 C 
ENDROOT
BRANCH   1  13
ATOM     11  C   UNL     1       1.041  -1.991  -1.363  0.00  0.00    +0.258 C 
ATOM     12  O   UNL     1       0.542  -2.662  -2.241  0.00  0.00    -0.271 OA
ATOM     13  N   UNL     1       1.856  -2.566  -0.457  0.00  0.00    -0.276 N 
ATOM     14  H   UNL     1       2.256  -2.030   0.246  0.00  0.00    +0.155 HD
BRANCH  11  15
ATOM     15  C   UNL     1       0.751  -0.514  -1.285  0.00  0.00    +0.259 C 
BRANCH  15  17
ATOM     16  C   UNL     1      -0.203   1.299   0.145  0.00  0.00    +0.008 C 
ATOM     17  C   UNL     1      -0.017  -0.213   0.004  0.00  0.00    +0.051 C 
ENDBRANCH  15  17
BRANCH  15  18
ATOM     18  O   UNL     1      -0.036  -0.123  -2.412  0.00  0.00    -0.480 OA
BRANCH  18  19
ATOM     19  C   UNL     1       0.175   1.124  -2.909  0.00  0.00    +0.122 A 
ATOM     20  C   UNL     1       1.167   1.929  -2.367  0.00  0.00    +0.048 A 
ATOM     21  C   UNL     1       1.380   3.196  -2.874  0.00  0.00    +0.042 A 
ATOM     22  C   UNL     1       0.606   3.663  -3.922  0.00  0.00    +0.124 A 
ATOM     23  C   UNL     1      -0.384   2.861  -4.464  0.00  0.00    +0.042 A 
ATOM     24  C   UNL     1      -0.596   1.591  -3.963  0.00  0.00    +0.048 A 
ATOM     25  F   UNL     1       0.815   4.903  -4.416  0.00  0.00    -0.205 F 
ENDBRANCH  18  19
ENDBRANCH  15  18
ENDBRANCH  11  15
ENDBRANCH   1  13
BRANCH   2  26
ATOM     26  C   UNL     1       3.625  -4.076   1.449  0.00  0.00    +0.247 C 
ATOM     27  O   UNL     1       3.084  -4.021   2.538  0.00  0.00    -0.270 OA
ATOM     28  N   UNL     1       4.868  -3.580   1.289  0.00  0.00    -0.307 N 
ATOM     29  H   UNL     1       5.299  -3.624   0.421  0.00  0.00    +0.149 HD
BRANCH  28  30
ATOM     30  C   UNL     1       5.567  -2.975   2.425  0.00  0.00    +0.096 C 
ATOM     31  C   UNL     1       5.185  -1.490   2.539  0.00  0.00    +0.046 C 
ATOM     32  C   UNL     1       6.146  -0.772   3.517  0.00  0.00    +0.168 C 
ATOM     33  S   UNL     1       7.689  -1.761   3.367  0.00  0.00    -0.029 S 
ATOM     34  O   UNL     1       7.978  -2.360   4.623  0.00  0.00    -0.174 OA
ATOM     35  O   UNL     1       8.682  -0.975   2.722  0.00  0.00    -0.174 OA
ATOM     36  C   UNL     1       7.104  -3.064   2.203  0.00  0.00    +0.188 C 
ENDBRANCH  28  30
ENDBRANCH   2  26
TORSDOF 7
