REMARK  Name = ZINC37560095
REMARK  4 active torsions:
REMARK  status: ('A' for Active; 'I' for Inactive)
REMARK    1  A    between atoms: C_1  and  N_2
REMARK    2  A    between atoms: N_7  and  S_8
REMARK    3  A    between atoms: S_8  and  C_11
REMARK    4  A    between atoms: C_16  and  N_17
REMARK                            x       y       z     vdW  Elec       q    Type
REMARK                         _______ _______ _______ _____ _____    ______ ____
ROOT
ATOM      1  S   UNL     1       0.199  -3.068   3.253  0.00  0.00    +0.075 S 
ATOM      2  O   UNL     1       0.321  -4.328   3.900  0.00  0.00    -0.150 OA
ATOM      3  O   UNL     1       1.179  -2.048   3.381  0.00  0.00    -0.150 OA
ENDROOT
BRANCH   1  10
ATOM      4  C   UNL     1      -0.603   1.117  -0.250  0.00  0.00    +0.172 C 
ATOM      5  N   UNL     1      -0.411  -0.332  -0.147  0.00  0.00    -0.273 N 
ATOM      6  C   UNL     1      -0.335  -1.197  -1.180  0.00  0.00    +0.110 A 
ATOM      7  C   UNL     1      -0.155  -2.437  -0.670  0.00  0.00    +0.066 A 
ATOM      8  C   UNL     1      -0.120  -2.326   0.729  0.00  0.00    +0.160 A 
ATOM      9  N   UNL     1      -0.269  -1.060   1.041  0.00  0.00    -0.155 NA
ATOM     10  N   UNL     1       0.050  -3.382   1.633  0.00  0.00    -0.198 N 
ATOM     11  H   UNL     1       0.080  -4.296   1.312  0.00  0.00    +0.175 HD
ENDBRANCH   1  10
BRANCH   1  12
ATOM     12  C   UNL     1      -1.327  -2.371   3.791  0.00  0.00    +0.129 A 
ATOM     13  C   UNL     1      -1.366  -1.073   4.261  0.00  0.00    +0.032 A 
ATOM     14  C   UNL     1      -2.562  -0.524   4.683  0.00  0.00    +0.017 A 
ATOM     15  C   UNL     1      -3.725  -1.273   4.637  0.00  0.00    +0.020 A 
ATOM     16  C   UNL     1      -3.693  -2.573   4.169  0.00  0.00    +0.040 A 
ATOM     17  C   UNL     1      -2.493  -3.124   3.739  0.00  0.00    +0.053 A 
ATOM     18 BR   UNL     1      -5.359  -0.518   5.217  0.00  0.00    -0.050 Br
BRANCH  17  19
ATOM     19  N   UNL     1      -2.457  -4.436   3.259  0.00  0.00    -0.356 N 
ATOM     20  H   UNL     1      -1.640  -4.790   2.876  0.00  0.00    +0.142 HD
ATOM     21  H   UNL     1      -3.250  -4.993   3.311  0.00  0.00    +0.142 HD
ENDBRANCH  17  19
ENDBRANCH   1  12
TORSDOF 3
