REMARK  Name = ZINC63384202
REMARK  13 active torsions:
REMARK  status: ('A' for Active; 'I' for Inactive)
REMARK    1  A    between atoms: C_1  and  C_2
REMARK    2  A    between atoms: C_2  and  C_3
REMARK    3  A    between atoms: C_3  and  C_4
REMARK    4  A    between atoms: C_4  and  C_5
REMARK    5  A    between atoms: C_5  and  C_6
REMARK    6  A    between atoms: C_6  and  N_7
REMARK    7  A    between atoms: C_8  and  C_10
REMARK    8  A    between atoms: C_10  and  C_12
REMARK    9  A    between atoms: C_10  and  N_16
REMARK   10  A    between atoms: C_12  and  C_13
REMARK   11  A    between atoms: C_13  and  S_14
REMARK   12  A    between atoms: S_14  and  C_15
REMARK   13  A    between atoms: C_17  and  C_19
REMARK                            x       y       z     vdW  Elec       q    Type
REMARK                         _______ _______ _______ _____ _____    ______ ____
ROOT
ATOM      1  C   UNL     1       4.005  -9.960  -5.898  0.00  0.00    +0.167 C 
ATOM      2  C   UNL     1       4.162 -10.484  -4.457  0.00  0.00    +0.065 C 
ATOM      3  C   UNL     1       5.612 -10.311  -4.077  0.00  0.00    -0.034 C 
ATOM      4  C   UNL     1       6.170  -9.718  -3.026  0.00  0.00    -0.001 A 
ATOM      5  C   UNL     1       5.584  -9.107  -1.822  0.00  0.00    +0.010 A 
ATOM      6  C   UNL     1       6.461  -8.563  -0.938  0.00  0.00    +0.001 A 
ATOM      7  C   UNL     1       7.847  -8.566  -1.128  0.00  0.00    +0.002 A 
ATOM      8  C   UNL     1       8.472  -9.113  -2.201  0.00  0.00    +0.026 A 
ATOM      9  C   UNL     1       7.654  -9.722  -3.197  0.00  0.00    +0.043 A 
ATOM     10  N   UNL     1       7.983 -10.329  -4.298  0.00  0.00    -0.375 N 
ATOM     11  C   UNL     1       6.762 -10.829  -4.933  0.00  0.00    +0.131 C 
ATOM     12  C   UNL     1       6.566 -10.229  -6.330  0.00  0.00    +0.134 C 
ATOM     13  N   UNL     1       5.143 -10.434  -6.697  0.00  0.00    -0.276 N 
ATOM     14  C   UNL     1       5.083 -11.124  -7.850  0.00  0.00    +0.248 C 
ATOM     15  O   UNL     1       4.061 -11.387  -8.452  0.00  0.00    -0.270 OA
ATOM     16  C   UNL     1       6.429 -11.513  -8.275  0.00  0.00    +0.042 A 
ATOM     17  C   UNL     1       7.372 -10.970  -7.346  0.00  0.00    -0.013 A 
ATOM     18  C   UNL     1       8.730 -11.165  -7.476  0.00  0.00    +0.006 A 
ATOM     19  C   UNL     1       9.159 -11.918  -8.564  0.00  0.00    +0.000 A 
ATOM     20  C   UNL     1       8.270 -12.448  -9.478  0.00  0.00    +0.001 A 
ATOM     21  C   UNL     1       6.858 -12.270  -9.369  0.00  0.00    +0.013 A 
ATOM     22  H   UNL     1       8.884 -10.432  -4.642  0.00  0.00    +0.160 HD
ENDROOT
BRANCH   1  24
ATOM     23  N   UNL     1       3.026  -7.796  -5.207  0.00  0.00    -0.302 N 
ATOM     24  C   UNL     1       3.985  -8.453  -5.890  0.00  0.00    +0.235 C 
ATOM     25  O   UNL     1       4.831  -7.832  -6.497  0.00  0.00    -0.274 OA
ATOM     26  H   UNL     1       2.349  -8.293  -4.722  0.00  0.00    +0.150 HD
BRANCH  23  27
ATOM     27  C   UNL     1       3.006  -6.331  -5.199  0.00  0.00    +0.160 C 
BRANCH  27  29
ATOM     28  N   UNL     1       2.162  -4.523  -3.738  0.00  0.00    -0.314 N 
ATOM     29  C   UNL     1       2.301  -5.845  -3.959  0.00  0.00    +0.233 C 
ATOM     30  O   UNL     1       1.858  -6.644  -3.161  0.00  0.00    -0.274 OA
ATOM     31  H   UNL     1       2.515  -3.884  -4.376  0.00  0.00    +0.149 HD
BRANCH  28  32
ATOM     32  C   UNL     1       1.476  -4.051  -2.532  0.00  0.00    +0.104 C 
BRANCH  32  33
ATOM     33  C   UNL     1       1.455  -2.521  -2.524  0.00  0.00    +0.019 C 
BRANCH  33  34
ATOM     34  C   UNL     1       0.739  -2.027  -1.265  0.00  0.00    +0.002 C 
BRANCH  34  35
ATOM     35  C   UNL     1       0.718  -0.497  -1.257  0.00  0.00    -0.000 C 
BRANCH  35  37
ATOM     36  C   UNL     1      -0.019   1.526   0.010  0.00  0.00    +0.004 C 
ATOM     37  C   UNL     1       0.002  -0.004   0.002  0.00  0.00    -0.003 C 
ENDBRANCH  35  37
ENDBRANCH  34  35
ENDBRANCH  33  34
ENDBRANCH  32  33
ENDBRANCH  28  32
ENDBRANCH  27  29
BRANCH  27  38
ATOM     38  C   UNL     1       2.266  -5.824  -6.439  0.00  0.00    +0.042 C 
BRANCH  38  39
ATOM     39  C   UNL     1       3.050  -6.212  -7.695  0.00  0.00    +0.071 C 
BRANCH  39  40
ATOM     40  S   UNL     1       2.172  -5.611  -9.164  0.00  0.00    -0.164 S 
ATOM     41  C   UNL     1       3.217  -6.144 -10.548  0.00  0.00    +0.084 C 
ENDBRANCH  39  40
ENDBRANCH  38  39
ENDBRANCH  27  38
ENDBRANCH  23  27
ENDBRANCH   1  24
TORSDOF 11
