REMARK  Name = ZINC20763768
REMARK  9 active torsions:
REMARK  status: ('A' for Active; 'I' for Inactive)
REMARK    1  A    between atoms: C_1  and  C_2
REMARK    2  A    between atoms: C_2  and  O_3
REMARK    3  A    between atoms: O_3  and  C_4
REMARK    4  A    between atoms: C_8  and  C_11
REMARK    5  A    between atoms: C_9  and  O_10
REMARK    6  A    between atoms: C_14  and  C_27
REMARK    7  A    between atoms: C_16  and  C_19
REMARK    8  A    between atoms: C_24  and  O_25
REMARK    9  A    between atoms: O_25  and  C_26
REMARK                            x       y       z     vdW  Elec       q    Type
REMARK                         _______ _______ _______ _____ _____    ______ ____
ROOT
ATOM      1  C   UNL     1      -4.226   3.397   3.357  0.00  0.00    -0.028 C 
ATOM      2  C   UNL     1      -4.848   2.036   3.030  0.00  0.00    +0.044 C 
ATOM      3  C   UNL     1      -3.765   1.076   2.620  0.00  0.00    +0.040 C 
ATOM      4  N   UNL     1      -2.523   1.288   2.841  0.00  0.00    -0.298 NA
ATOM      5  C   UNL     1      -2.001   2.479   3.501  0.00  0.00    +0.084 C 
ATOM      6  N   UNL     1      -3.065   3.173   4.236  0.00  0.00    +0.401 N 
ATOM      7  H   UNL     1      -2.684   4.141   4.593  0.00  0.00    -0.081 HD
ATOM      8  H   UNL     1      -3.369   2.559   5.096  0.00  0.00    -0.081 HD
ENDROOT
BRANCH   3   9
ATOM      9  C   UNL     1      -4.154  -0.171   1.932  0.00  0.00    -0.003 A 
ATOM     10  C   UNL     1      -5.500  -0.441   1.678  0.00  0.00    +0.010 A 
ATOM     11  C   UNL     1      -5.856  -1.605   1.030  0.00  0.00    +0.002 A 
ATOM     12  C   UNL     1      -4.884  -2.510   0.641  0.00  0.00    +0.015 A 
ATOM     13  C   UNL     1      -3.548  -2.251   0.893  0.00  0.00    +0.018 A 
ATOM     14  C   UNL     1      -3.178  -1.087   1.536  0.00  0.00    +0.025 A 
ATOM     15 BR   UNL     1      -2.228  -3.494   0.357  0.00  0.00    -0.050 Br
ENDBRANCH   3   9
BRANCH   1  20
ATOM     16  C   UNL     1      -7.147   5.721   3.990  0.00  0.00    +0.162 A 
ATOM     17  C   UNL     1      -7.098   5.848   5.369  0.00  0.00    +0.049 A 
ATOM     18  C   UNL     1      -6.124   5.184   6.090  0.00  0.00    +0.004 A 
ATOM     19  C   UNL     1      -5.199   4.388   5.440  0.00  0.00    +0.006 A 
ATOM     20  C   UNL     1      -5.239   4.261   4.064  0.00  0.00    -0.016 A 
ATOM     21  C   UNL     1      -6.213   4.924   3.334  0.00  0.00    +0.160 A 
BRANCH  21  22
ATOM     22  O   UNL     1      -6.257   4.795   1.981  0.00  0.00    -0.503 OA
ATOM     23  H   UNL     1      -5.518   4.165   1.464  0.00  0.00    +0.292 HD
ENDBRANCH  21  22
BRANCH  16  24
ATOM     24  O   UNL     1      -8.105   6.372   3.279  0.00  0.00    -0.489 OA
BRANCH  24  26
ATOM     25  C   UNL     1     -10.026   7.822   3.055  0.00  0.00    +0.048 C 
ATOM     26  C   UNL     1      -9.030   7.172   4.018  0.00  0.00    +0.226 C 
ENDBRANCH  24  26
ENDBRANCH  16  24
ENDBRANCH   1  20
BRANCH   5  27
ATOM     27  C   UNL     1      -1.425   3.409   2.465  0.00  0.00    +0.001 A 
ATOM     28  C   UNL     1      -1.531   4.776   2.627  0.00  0.00    +0.007 A 
ATOM     29  C   UNL     1      -1.003   5.630   1.677  0.00  0.00    +0.000 A 
ATOM     30  C   UNL     1      -0.367   5.117   0.561  0.00  0.00    +0.004 A 
ATOM     31  C   UNL     1      -0.253   3.751   0.396  0.00  0.00    +0.046 A 
ATOM     32  C   UNL     1      -0.787   2.892   1.346  0.00  0.00    +0.123 A 
BRANCH  32  33
ATOM     33  O   UNL     1      -0.682   1.547   1.184  0.00  0.00    -0.495 OA
ATOM     34  C   UNL     1      -0.013   1.086   0.008  0.00  0.00    +0.277 C 
ENDBRANCH  32  33
ENDBRANCH   5  27
TORSDOF 7
