REMARK  Name = ZINC15858999
REMARK  6 active torsions:
REMARK  status: ('A' for Active; 'I' for Inactive)
REMARK    1  A    between atoms: C_1  and  C_2
REMARK    2  A    between atoms: C_5  and  C_8
REMARK    3  A    between atoms: C_20  and  C_22
REMARK    4  A    between atoms: C_25  and  O_28
REMARK    5  A    between atoms: N_30  and  C_37
REMARK    6  A    between atoms: N_33  and  C_36
REMARK                            x       y       z     vdW  Elec       q    Type
REMARK                         _______ _______ _______ _____ _____    ______ ____
ROOT
ATOM      1  C   UNL     1      -1.593   7.187   2.968  0.00  0.00    +0.069 A 
ATOM      2  C   UNL     1      -0.277   7.308   3.344  0.00  0.00    +0.089 A 
ATOM      3  C   UNL     1       0.534   6.735   2.239  0.00  0.00    +0.084 A 
ATOM      4  C   UNL     1      -0.321   6.326   1.316  0.00  0.00    +0.094 A 
ATOM      5  N   UNL     1      -1.614   6.610   1.740  0.00  0.00    -0.303 N 
ATOM      6  C   UNL     1      -2.704   6.306   0.911  0.00  0.00    +0.090 A 
ATOM      7  C   UNL     1      -4.003   6.342   1.377  0.00  0.00    +0.049 A 
ATOM      8  C   UNL     1      -5.046   6.011   0.528  0.00  0.00    +0.043 A 
ATOM      9  C   UNL     1      -4.782   5.645  -0.781  0.00  0.00    +0.024 A 
ATOM     10  C   UNL     1      -3.483   5.617  -1.252  0.00  0.00    +0.049 A 
ATOM     11  C   UNL     1      -2.432   5.957  -0.414  0.00  0.00    +0.146 A 
ATOM     12  O   UNL     1      -1.160   5.966  -0.891  0.00  0.00    -0.476 OA
ATOM     13  C   UNL     1      -0.075   5.650  -0.014  0.00  0.00    +0.253 C 
ATOM     14 CL   UNL     1      -6.683   6.054   1.104  0.00  0.00    -0.083 Cl
ATOM     15  N   UNL     1       1.931   6.731   2.360  0.00  0.00    -0.294 N 
ATOM     16  C   UNL     1       2.457   7.253   3.490  0.00  0.00    +0.332 A 
ATOM     17  O   UNL     1       3.669   7.250   3.593  0.00  0.00    -0.246 OA
ATOM     18  N   UNL     1       1.758   7.774   4.503  0.00  0.00    -0.263 N 
ATOM     19  C   UNL     1       0.403   7.847   4.526  0.00  0.00    +0.266 A 
ATOM     20  O   UNL     1      -0.207   8.326   5.464  0.00  0.00    -0.267 OA
ATOM     21  C   UNL     1       2.498   8.296   5.655  0.00  0.00    +0.157 C 
ATOM     22  C   UNL     1       2.786   6.182   1.304  0.00  0.00    +0.154 C 
ENDROOT
BRANCH   1  27
ATOM     23  C   UNL     1      -6.173   8.823   6.040  0.00  0.00    +0.044 C 
ATOM     24  C   UNL     1      -4.973   8.394   5.235  0.00  0.00    -0.050 A 
ATOM     25  C   UNL     1      -4.072   7.490   5.770  0.00  0.00    +0.004 A 
ATOM     26  C   UNL     1      -2.972   7.094   5.039  0.00  0.00    +0.010 A 
ATOM     27  C   UNL     1      -2.768   7.607   3.756  0.00  0.00    -0.000 A 
ATOM     28  C   UNL     1      -3.678   8.524   3.225  0.00  0.00    +0.010 A 
ATOM     29  C   UNL     1      -4.778   8.906   3.965  0.00  0.00    +0.004 A 
ENDBRANCH   1  27
BRANCH  13  30
ATOM     30  C   UNL     1      -0.000   4.158   0.182  0.00  0.00    -0.001 A 
ATOM     31  C   UNL     1       1.215   3.508   0.076  0.00  0.00    +0.011 A 
ATOM     32  C   UNL     1       1.287   2.140   0.255  0.00  0.00    +0.046 A 
ATOM     33  C   UNL     1       0.137   1.418   0.541  0.00  0.00    +0.117 A 
ATOM     34  C   UNL     1      -1.083   2.072   0.642  0.00  0.00    +0.046 A 
ATOM     35  C   UNL     1      -1.148   3.441   0.468  0.00  0.00    +0.011 A 
BRANCH  33  36
ATOM     36  O   UNL     1       0.204   0.072   0.717  0.00  0.00    -0.507 OA
ATOM     37  H   UNL     1       0.364  -0.197   1.632  0.00  0.00    +0.292 HD
ENDBRANCH  33  36
ENDBRANCH  13  30
TORSDOF 3
