REMARK  Name = ZINC39887555
REMARK  5 active torsions:
REMARK  status: ('A' for Active; 'I' for Inactive)
REMARK    1  A    between atoms: C_1  and  O_2
REMARK    2  A    between atoms: O_2  and  C_3
REMARK    3  A    between atoms: C_8  and  N_9
REMARK    4  A    between atoms: C_10  and  C_20
REMARK    5  A    between atoms: C_15  and  C_18
REMARK                            x       y       z     vdW  Elec       q    Type
REMARK                         _______ _______ _______ _____ _____    ______ ____
ROOT
ATOM      1  N   UNL     1       0.100  -2.795  -0.096  0.00  0.00    -0.267 N 
ATOM      2  C   UNL     1      -1.330  -3.118  -0.139  0.00  0.00    +0.198 C 
ATOM      3  N   UNL     1      -1.524  -4.542   0.141  0.00  0.00    -0.288 N 
ATOM      4  C   UNL     1      -0.672  -5.204   0.950  0.00  0.00    +0.258 C 
ATOM      5  O   UNL     1      -0.865  -6.377   1.212  0.00  0.00    -0.269 OA
ATOM      6  C   UNL     1       0.485  -4.504   1.510  0.00  0.00    +0.142 C 
ATOM      7  C   UNL     1       0.856  -3.276   0.943  0.00  0.00    +0.103 C 
ATOM      8  S   UNL     1       2.247  -2.380   1.548  0.00  0.00    -0.033 SA
ATOM      9  H   UNL     1      -2.272  -5.013  -0.258  0.00  0.00    +0.151 HD
ENDROOT
BRANCH   2  10
ATOM     10  C   UNL     1      -2.060  -2.300   0.895  0.00  0.00    -0.008 A 
ATOM     11  C   UNL     1      -1.663  -1.002   1.156  0.00  0.00    +0.007 A 
ATOM     12  C   UNL     1      -2.332  -0.251   2.104  0.00  0.00    +0.001 A 
ATOM     13  C   UNL     1      -3.399  -0.799   2.793  0.00  0.00    +0.015 A 
ATOM     14  C   UNL     1      -3.796  -2.098   2.532  0.00  0.00    +0.018 A 
ATOM     15  C   UNL     1      -3.129  -2.847   1.579  0.00  0.00    +0.022 A 
ATOM     16 BR   UNL     1      -5.254  -2.848   3.474  0.00  0.00    -0.050 Br
ENDBRANCH   2  10
BRANCH   1  22
ATOM     17  C   UNL     1       1.003  -2.583  -2.332  0.00  0.00    +0.141 A 
ATOM     18  C   UNL     1       1.576  -1.803  -3.324  0.00  0.00    +0.047 A 
ATOM     19  C   UNL     1       1.834  -0.466  -3.090  0.00  0.00    +0.004 A 
ATOM     20  C   UNL     1       1.523   0.099  -1.866  0.00  0.00    +0.002 A 
ATOM     21  C   UNL     1       0.952  -0.671  -0.871  0.00  0.00    +0.027 A 
ATOM     22  C   UNL     1       0.684  -2.013  -1.101  0.00  0.00    +0.078 A 
BRANCH  17  24
ATOM     23  C   UNL     1       1.102  -4.414  -3.846  0.00  0.00    +0.277 C 
ATOM     24  O   UNL     1       0.748  -3.898  -2.561  0.00  0.00    -0.493 OA
ENDBRANCH  17  24
ENDBRANCH   1  22
BRANCH   6  25
ATOM     25  C   UNL     1       1.221  -5.060   2.606  0.00  0.00    +0.107 C 
ATOM     26  N   UNL     1       1.805  -5.502   3.475  0.00  0.00    -0.191 NA
ENDBRANCH   6  25
TORSDOF 4
