REMARK  Name = ZINC66439166
REMARK  6 active torsions:
REMARK  status: ('A' for Active; 'I' for Inactive)
REMARK    1  A    between atoms: C_1  and  C_2
REMARK    2  A    between atoms: C_5  and  N_9
REMARK    3  A    between atoms: C_10  and  C_12
REMARK    4  A    between atoms: C_12  and  C_13
REMARK    5  A    between atoms: C_13  and  N_14
REMARK    6  A    between atoms: C_15  and  C_17
REMARK                            x       y       z     vdW  Elec       q    Type
REMARK                         _______ _______ _______ _____ _____    ______ ____
ROOT
ATOM      1  N   UNL     1      -0.330  -8.309  -2.633  0.00  0.00    -0.314 N 
ATOM      2  C   UNL     1      -0.429  -8.977  -3.799  0.00  0.00    +0.221 C 
ATOM      3  O   UNL     1      -0.442  -8.368  -4.848  0.00  0.00    -0.275 OA
ATOM      4  H   UNL     1      -0.319  -8.796  -1.794  0.00  0.00    +0.149 HD
ENDROOT
BRANCH   2   5
ATOM      5  C   UNL     1      -0.523 -10.481  -3.800  0.00  0.00    +0.115 C 
ATOM      6  C   UNL     1      -1.764 -10.914  -3.019  0.00  0.00    +0.113 C 
ATOM      7  C   UNL     1      -3.005 -10.582  -3.803  0.00  0.00    +0.218 C 
ATOM      8  O   UNL     1      -4.008 -10.232  -3.217  0.00  0.00    -0.275 OA
ATOM      9  N   UNL     1      -3.015 -10.667  -5.146  0.00  0.00    -0.285 N 
ATOM     10  C   UNL     1      -1.863 -11.052  -5.840  0.00  0.00    +0.037 A 
ATOM     11  C   UNL     1      -0.623 -10.977  -5.220  0.00  0.00    -0.014 A 
ATOM     12  C   UNL     1       0.514 -11.357  -5.904  0.00  0.00    +0.006 A 
ATOM     13  C   UNL     1       0.418 -11.811  -7.207  0.00  0.00    +0.000 A 
ATOM     14  C   UNL     1      -0.815 -11.886  -7.827  0.00  0.00    +0.002 A 
ATOM     15  C   UNL     1      -1.956 -11.508  -7.148  0.00  0.00    +0.023 A 
ATOM     16  H   UNL     1      -3.826 -10.460  -5.636  0.00  0.00    +0.155 HD
ENDBRANCH   2   5
BRANCH   1  17
ATOM     17  C   UNL     1      -0.238  -6.847  -2.632  0.00  0.00    +0.113 C 
BRANCH  17  18
ATOM     18  C   UNL     1      -0.136  -6.343  -1.191  0.00  0.00    +0.115 C 
BRANCH  18  20
ATOM     19  N   UNL     1       0.057  -4.171  -0.023  0.00  0.00    -0.284 N 
ATOM     20  C   UNL     1      -0.042  -4.839  -1.190  0.00  0.00    +0.219 C 
ATOM     21  O   UNL     1      -0.055  -4.230  -2.238  0.00  0.00    -0.275 OA
ATOM     22  H   UNL     1       0.149  -4.660   0.809  0.00  0.00    +0.155 HD
BRANCH  19  27
ATOM     23  C   UNL     1      -0.064   1.502   0.016  0.00  0.00    +0.044 C 
ATOM     24  C   UNL     1      -0.031  -0.005   0.006  0.00  0.00    -0.049 A 
ATOM     25  C   UNL     1      -0.622  -0.701  -1.033  0.00  0.00    +0.005 A 
ATOM     26  C   UNL     1      -0.594  -2.082  -1.045  0.00  0.00    +0.025 A 
ATOM     27  C   UNL     1       0.028  -2.772  -0.014  0.00  0.00    +0.052 A 
ATOM     28  C   UNL     1       0.621  -2.070   1.029  0.00  0.00    +0.062 A 
ATOM     29  C   UNL     1       0.595  -0.688   1.032  0.00  0.00    +0.025 A 
ATOM     30 CL   UNL     1       1.401  -2.928   2.321  0.00  0.00    -0.082 Cl
ENDBRANCH  19  27
ENDBRANCH  18  20
ENDBRANCH  17  18
ENDBRANCH   1  17
TORSDOF 5
