REMARK  Name = ZINC20065473
REMARK  7 active torsions:
REMARK  status: ('A' for Active; 'I' for Inactive)
REMARK    1  A    between atoms: C_5  and  C_7
REMARK    2  A    between atoms: C_10  and  S_13
REMARK    3  A    between atoms: S_13  and  C_14
REMARK    4  A    between atoms: C_14  and  C_15
REMARK    5  A    between atoms: N_20  and  C_21
REMARK    6  A    between atoms: C_21  and  C_22
REMARK    7  A    between atoms: C_22  and  C_23
REMARK                            x       y       z     vdW  Elec       q    Type
REMARK                         _______ _______ _______ _____ _____    ______ ____
ROOT
ATOM      1  C   UNL     1       1.591  -6.960  -0.046  0.00  0.00    +0.173 C 
ENDROOT
BRANCH   1   2
ATOM      2  C   UNL     1       2.214  -8.332  -0.059  0.00  0.00    +0.231 C 
ATOM      3  O   UNL     1       3.420  -8.449  -0.072  0.00  0.00    -0.274 OA
ATOM      4  N   UNL     1       1.430  -9.428  -0.056  0.00  0.00    -0.240 N 
ATOM      5  C   UNL     1       1.987 -10.655  -0.068  0.00  0.00    +0.306 C 
ATOM      6  O   UNL     1       3.197 -10.773  -0.081  0.00  0.00    -0.252 OA
ATOM      7  N   UNL     1       1.203 -11.751  -0.065  0.00  0.00    -0.299 N 
ATOM      8  H   UNL     1       0.335  -9.321  -0.044  0.00  0.00    +0.159 HD
ATOM      9  H   UNL     1       0.108 -11.645  -0.053  0.00  0.00    +0.150 HD
BRANCH   7  10
ATOM     10  C   UNL     1       1.809 -13.085  -0.077  0.00  0.00    +0.111 C 
BRANCH  10  11
ATOM     11  C   UNL     1       0.706 -14.146  -0.070  0.00  0.00    +0.061 C 
BRANCH  11  12
ATOM     12  C   UNL     1       1.330 -15.518  -0.083  0.00  0.00    -0.009 A 
ATOM     13  C   UNL     1       1.699 -16.298   0.962  0.00  0.00    +0.011 A 
ATOM     14  C   UNL     1       2.254 -17.538   0.710  0.00  0.00    +0.008 A 
ATOM     15  C   UNL     1       2.424 -17.934  -0.575  0.00  0.00    +0.045 A 
ATOM     16  S   UNL     1       1.781 -16.535  -1.480  0.00  0.00    -0.102 S 
ENDBRANCH  11  12
ENDBRANCH  10  11
ENDBRANCH   7  10
ENDBRANCH   1   2
BRANCH   1  17
ATOM     17  S   UNL     1       2.895  -5.705  -0.054  0.00  0.00    -0.077 S 
BRANCH  17  21
ATOM     18  C   UNL     1       1.251  -2.160  -0.021  0.00  0.00    +0.183 A 
ATOM     19  N   UNL     1       2.373  -2.957  -0.036  0.00  0.00    -0.201 NA
ATOM     20  H   UNL     1      -0.143  -4.998  -0.022  0.00  0.00    +0.191 HD
ATOM     21  C   UNL     1       1.912  -4.242  -0.037  0.00  0.00    +0.185 A 
ATOM     22  N   UNL     1       0.599  -4.185  -0.023  0.00  0.00    -0.253 N 
ATOM     23  N   UNL     1       0.210  -2.960  -0.008  0.00  0.00    -0.152 NA
BRANCH  18  28
ATOM     24  C   UNL     1       2.383   1.421  -0.025  0.00  0.00    +0.001 A 
ATOM     25  C   UNL     1       1.170   2.087  -0.016  0.00  0.00    +0.001 A 
ATOM     26  C   UNL     1      -0.017   1.377  -0.010  0.00  0.00    +0.016 A 
ATOM     27  C   UNL     1       0.002  -0.004  -0.011  0.00  0.00    +0.029 A 
ATOM     28  C   UNL     1       1.223  -0.682  -0.020  0.00  0.00    +0.035 A 
ATOM     29  C   UNL     1       2.416   0.042  -0.026  0.00  0.00    +0.013 A 
ATOM     30 BR   UNL     1      -1.621  -0.974  -0.003  0.00  0.00    -0.050 Br
ENDBRANCH  18  28
ENDBRANCH  17  21
ENDBRANCH   1  17
TORSDOF 7
