REMARK  Name = ZINC14358330
REMARK  5 active torsions:
REMARK  status: ('A' for Active; 'I' for Inactive)
REMARK    1  A    between atoms: C_1  and  C_2
REMARK    2  A    between atoms: C_2  and  C_23
REMARK    3  A    between atoms: N_5  and  C_9
REMARK    4  A    between atoms: C_9  and  C_10
REMARK    5  A    between atoms: N_12  and  C_13
REMARK                            x       y       z     vdW  Elec       q    Type
REMARK                         _______ _______ _______ _____ _____    ______ ____
ROOT
ATOM      1  C   UNL     1      -4.179  -1.038  -1.414  0.00  0.00    +0.047 C 
ATOM      2  C   UNL     1      -3.692  -0.803   0.018  0.00  0.00    +0.135 C 
ATOM      3  C   UNL     1      -4.744  -0.074   0.830  0.00  0.00    +0.251 C 
ATOM      4  O   UNL     1      -5.197   1.030   0.619  0.00  0.00    -0.272 OA
ATOM      5  N   UNL     1      -5.070  -0.909   1.836  0.00  0.00    -0.215 N 
ATOM      6  C   UNL     1      -4.378  -2.052   1.773  0.00  0.00    +0.310 C 
ATOM      7  O   UNL     1      -4.499  -2.960   2.572  0.00  0.00    -0.252 OA
ATOM      8  N   UNL     1      -3.533  -2.084   0.727  0.00  0.00    -0.281 N 
ATOM      9  H   UNL     1      -2.935  -2.809   0.487  0.00  0.00    +0.152 HD
ENDROOT
BRANCH   2  10
ATOM     10  C   UNL     1      -2.397  -0.033   0.016  0.00  0.00    -0.012 A 
ATOM     11  C   UNL     1      -2.415   1.349   0.025  0.00  0.00    +0.010 A 
ATOM     12  C   UNL     1      -1.229   2.059   0.019  0.00  0.00    +0.050 A 
ATOM     13  C   UNL     1      -0.017   1.385   0.010  0.00  0.00    +0.162 A 
ATOM     14  C   UNL     1       0.002  -0.004   0.002  0.00  0.00    +0.162 A 
ATOM     15  C   UNL     1      -1.192  -0.710   0.004  0.00  0.00    +0.055 A 
ATOM     16  O   UNL     1       1.181  -0.685  -0.007  0.00  0.00    -0.485 OA
ATOM     17  C   UNL     1       2.347   0.053  -0.387  0.00  0.00    +0.270 C 
ATOM     18  C   UNL     1       2.334   1.392   0.364  0.00  0.00    +0.270 C 
ATOM     19  O   UNL     1       1.143   2.098   0.002  0.00  0.00    -0.485 OA
ENDBRANCH   2  10
BRANCH   5  20
ATOM     20  C   UNL     1      -6.061  -0.603   2.872  0.00  0.00    +0.213 C 
BRANCH  20  21
ATOM     21  C   UNL     1      -5.380   0.076   4.032  0.00  0.00    +0.231 C 
ATOM     22  O   UNL     1      -4.185   0.283   3.998  0.00  0.00    -0.274 OA
ATOM     23  N   UNL     1      -6.099   0.452   5.109  0.00  0.00    -0.308 N 
ATOM     24  H   UNL     1      -7.054   0.287   5.136  0.00  0.00    +0.149 HD
BRANCH  23  25
ATOM     25  C   UNL     1      -5.437   1.112   6.237  0.00  0.00    +0.035 C 
ATOM     26  C   UNL     1      -4.366   0.183   6.814  0.00  0.00    +0.029 C 
ATOM     27  C   UNL     1      -3.675   0.872   7.992  0.00  0.00    -0.008 C 
ATOM     28  C   UNL     1      -4.710   1.192   9.074  0.00  0.00    +0.007 C 
ATOM     29  C   UNL     1      -5.780   2.121   8.497  0.00  0.00    -0.008 C 
ATOM     30  C   UNL     1      -6.471   1.432   7.318  0.00  0.00    +0.029 C 
ATOM     31  C   UNL     1      -5.126   3.418   8.017  0.00  0.00    +0.007 C 
ATOM     32  C   UNL     1      -4.092   3.098   6.936  0.00  0.00    -0.008 C 
ATOM     33  C   UNL     1      -3.021   2.169   7.513  0.00  0.00    +0.007 C 
ATOM     34  C   UNL     1      -4.782   2.409   5.757  0.00  0.00    +0.029 C 
ENDBRANCH  23  25
ENDBRANCH  20  21
ENDBRANCH   5  20
TORSDOF 4
