REMARK  Name = ZINC29155284
REMARK  11 active torsions:
REMARK  status: ('A' for Active; 'I' for Inactive)
REMARK    1  A    between atoms: C_1  and  C_2
REMARK    2  A    between atoms: C_2  and  C_28
REMARK    3  A    between atoms: N_5  and  N_9
REMARK    4  A    between atoms: C_10  and  C_12
REMARK    5  A    between atoms: C_12  and  N_13
REMARK    6  A    between atoms: N_13  and  C_14
REMARK    7  A    between atoms: N_13  and  C_15
REMARK    8  A    between atoms: C_15  and  C_16
REMARK    9  A    between atoms: C_21  and  N_22
REMARK   10  A    between atoms: C_28  and  C_29
REMARK   11  A    between atoms: C_29  and  C_30
REMARK                            x       y       z     vdW  Elec       q    Type
REMARK                         _______ _______ _______ _____ _____    ______ ____
ROOT
ATOM      1  N   UNL     1       0.065   1.909   4.814  0.00  0.00    -0.225 N 
ATOM      2  C   UNL     1      -0.508   2.007   3.597  0.00  0.00    +0.213 C 
ATOM      3  O   UNL     1      -1.515   2.666   3.453  0.00  0.00    -0.276 OA
ATOM      4  H   UNL     1       0.978   1.310   4.945  0.00  0.00    +0.173 HD
ENDROOT
BRANCH   1   9
ATOM      5  C   UNL     1      -1.018   2.805   9.233  0.00  0.00    +0.041 C 
ATOM      6  C   UNL     1      -1.617   3.049   7.847  0.00  0.00    +0.112 C 
ATOM      7  C   UNL     1      -1.202   1.953   6.886  0.00  0.00    +0.263 C 
ATOM      8  O   UNL     1      -1.448   0.769   6.975  0.00  0.00    -0.271 OA
ATOM      9  N   UNL     1      -0.504   2.569   5.911  0.00  0.00    -0.137 N 
ATOM     10  C   UNL     1      -0.417   3.887   6.123  0.00  0.00    +0.326 C 
ATOM     11  O   UNL     1       0.167   4.653   5.382  0.00  0.00    -0.251 OA
ATOM     12  N   UNL     1      -1.052   4.269   7.246  0.00  0.00    -0.284 N 
ATOM     13  H   UNL     1      -1.200   5.243   7.735  0.00  0.00    +0.151 HD
BRANCH   6  14
ATOM     14  C   UNL     1      -3.142   3.143   7.931  0.00  0.00    +0.040 C 
BRANCH  14  15
ATOM     15  C   UNL     1      -3.532   4.334   8.808  0.00  0.00    +0.038 C 
BRANCH  15  16
ATOM     16  C   UNL     1      -5.034   4.427   8.891  0.00  0.00    -0.047 A 
ATOM     17  C   UNL     1      -5.732   5.182   7.967  0.00  0.00    +0.003 A 
ATOM     18  C   UNL     1      -7.110   5.263   8.039  0.00  0.00    +0.000 A 
ATOM     19  C   UNL     1      -7.789   4.597   9.043  0.00  0.00    +0.000 A 
ATOM     20  C   UNL     1      -7.091   3.847   9.970  0.00  0.00    +0.000 A 
ATOM     21  C   UNL     1      -5.713   3.761   9.894  0.00  0.00    +0.003 A 
ENDBRANCH  15  16
ENDBRANCH  14  15
ENDBRANCH   6  14
ENDBRANCH   1   9
BRANCH   2  22
ATOM     22  C   UNL     1       0.104   1.297   2.417  0.00  0.00    +0.020 C 
BRANCH  22  23
ATOM     23  N   UNL     1      -0.700   1.560   1.217  0.00  0.00    +0.386 N 
ATOM     24  C   UNL     1      -2.034   0.955   1.335  0.00  0.00    -0.095 C 
ATOM     25  H   UNL     1      -0.829   2.648   1.127  0.00  0.00    -0.081 HD
BRANCH  23  26
ATOM     26  C   UNL     1      -0.013   1.086   0.008  0.00  0.00    -0.041 C 
BRANCH  26  27
ATOM     27  C   UNL     1      -0.742   1.585  -1.213  0.00  0.00    -0.043 A 
ATOM     28  C   UNL     1      -1.604   0.748  -1.894  0.00  0.00    +0.003 A 
ATOM     29  C   UNL     1      -2.273   1.205  -3.014  0.00  0.00    +0.000 A 
ATOM     30  C   UNL     1      -2.082   2.502  -3.456  0.00  0.00    +0.002 A 
ATOM     31  C   UNL     1      -1.222   3.344  -2.780  0.00  0.00    +0.023 A 
ATOM     32  C   UNL     1      -0.551   2.889  -1.651  0.00  0.00    +0.031 A 
BRANCH  32  33
ATOM     33  N   UNL     1       0.316   3.740  -0.963  0.00  0.00    -0.330 N 
ATOM     34  C   UNL     1      -0.412   4.873  -0.378  0.00  0.00    +0.105 C 
ATOM     35  C   UNL     1       0.540   5.702   0.487  0.00  0.00    +0.019 C 
ATOM     36  C   UNL     1       1.699   6.206  -0.377  0.00  0.00    +0.003 C 
ATOM     37  C   UNL     1       2.411   5.008  -1.012  0.00  0.00    +0.019 C 
ATOM     38  C   UNL     1       1.405   4.200  -1.834  0.00  0.00    +0.105 C 
ENDBRANCH  32  33
ENDBRANCH  26  27
ENDBRANCH  23  26
ENDBRANCH  22  23
ENDBRANCH   2  22
TORSDOF 9
