REMARK  Name = ZINC15955543
REMARK  15 active torsions:
REMARK  status: ('A' for Active; 'I' for Inactive)
REMARK    1  A    between atoms: C_1  and  C_2
REMARK    2  A    between atoms: C_2  and  C_3
REMARK    3  A    between atoms: C_3  and  C_4
REMARK    4  A    between atoms: C_4  and  N_74
REMARK    5  A    between atoms: C_5  and  C_6
REMARK    6  A    between atoms: C_5  and  N_74
REMARK    7  A    between atoms: C_6  and  C_7
REMARK    8  A    between atoms: C_7  and  C_8
REMARK    9  A    between atoms: C_9  and  C_10
REMARK   10  A    between atoms: C_9  and  N_74
REMARK   11  A    between atoms: C_10  and  C_11
REMARK   12  A    between atoms: C_11  and  N_76
REMARK   13  A    between atoms: C_12  and  C_13
REMARK   14  A    between atoms: C_12  and  N_76
REMARK   15  A    between atoms: C_25  and  C_32
REMARK                            x       y       z     vdW  Elec       q    Type
REMARK                         _______ _______ _______ _____ _____    ______ ____
ROOT
ATOM      1  C   UNL     1       1.012   2.665   8.255  0.00  0.00    -0.068 C 
ENDROOT
BRANCH   1   2
ATOM      2  C   UNL     1       1.928   2.203   9.390  0.00  0.00    +0.087 C 
ATOM      3  C   UNL     1       1.694   3.065  10.666  0.00  0.00    +0.042 C 
ATOM      4  C   UNL     1       3.046   3.167  11.375  0.00  0.00    +0.016 C 
ATOM      5  C   UNL     1       2.883   3.538  12.828  0.00  0.00    +0.021 C 
ATOM      6  C   UNL     1       4.234   3.641  13.498  0.00  0.00    -0.073 C 
ATOM      7  C   UNL     1       5.339   3.605  12.795  0.00  0.00    +0.008 C 
ATOM      8  C   UNL     1       4.274   3.786  15.004  0.00  0.00    +0.030 C 
ATOM      9  C   UNL     1       3.413   2.682  15.627  0.00  0.00    +0.005 C 
ATOM     10  C   UNL     1       2.007   2.709  15.025  0.00  0.00    +0.007 C 
ATOM     11  C   UNL     1       2.083   2.428  13.525  0.00  0.00    -0.022 C 
ATOM     12  C   UNL     1       0.681   2.411  12.918  0.00  0.00    +0.052 C 
ATOM     13  C   UNL     1       0.732   2.139  11.434  0.00  0.00    +0.181 C 
ATOM     14  O   UNL     1       1.229   0.804  11.130  0.00  0.00    -0.461 OA
ATOM     15  C   UNL     1       1.571   0.792   9.820  0.00  0.00    +0.309 C 
ATOM     16  O   UNL     1       1.589  -0.183   9.106  0.00  0.00    -0.251 OA
ATOM     17  C   UNL     1       2.762   1.077  13.289  0.00  0.00    +0.012 C 
ENDBRANCH   1   2
BRANCH   1  18
ATOM     18  N   UNL     1       1.311   1.881   7.042  0.00  0.00    +0.380 N 
ATOM     19  H   UNL     1       2.293   2.026   6.778  0.00  0.00    -0.086 HD
ATOM     20  H   UNL     1       1.153   0.884   7.235  0.00  0.00    -0.086 HD
BRANCH  18  21
ATOM     21  C   UNL     1       0.440   2.305   5.930  0.00  0.00    -0.084 C 
BRANCH  21  22
ATOM     22  C   UNL     1       0.773   1.476   4.688  0.00  0.00    -0.038 C 
BRANCH  22  23
ATOM     23  C   UNL     1      -0.126   1.911   3.529  0.00  0.00    -0.081 C 
BRANCH  23  24
ATOM     24  N   UNL     1       0.112   1.010   2.381  0.00  0.00    +0.380 N 
ATOM     25  H   UNL     1       0.183   0.045   2.724  0.00  0.00    -0.082 HD
BRANCH  24  26
ATOM     26  C   UNL     1       1.375   1.374   1.706  0.00  0.00    -0.079 C 
BRANCH  26  27
ATOM     27  C   UNL     1       1.710   0.298   0.671  0.00  0.00    -0.019 C 
BRANCH  27  29
ATOM     28  C   UNL     1       3.362  -0.426  -1.057  0.00  0.00    +0.004 C 
ATOM     29  C   UNL     1       3.027   0.650  -0.022  0.00  0.00    -0.005 C 
ENDBRANCH  27  29
ENDBRANCH  26  27
ENDBRANCH  24  26
BRANCH  24  30
ATOM     30  C   UNL     1      -1.014   1.098   1.428  0.00  0.00    -0.079 C 
BRANCH  30  31
ATOM     31  C   UNL     1      -2.222   0.372   2.025  0.00  0.00    -0.019 C 
BRANCH  31  32
ATOM     32  C   UNL     1      -3.398   0.452   1.050  0.00  0.00    -0.005 C 
ATOM     33  C   UNL     1      -4.606  -0.273   1.648  0.00  0.00    +0.004 C 
ENDBRANCH  31  32
ENDBRANCH  30  31
ENDBRANCH  24  30
ENDBRANCH  23  24
ENDBRANCH  22  23
ENDBRANCH  21  22
ENDBRANCH  18  21
ENDBRANCH   1  18
TORSDOF 12
