REMARK  Name = ZINC00902684
REMARK  9 active torsions:
REMARK  status: ('A' for Active; 'I' for Inactive)
REMARK    1  A    between atoms: N_9  and  C_10
REMARK    2  A    between atoms: C_10  and  C_11
REMARK    3  A    between atoms: N_13  and  C_14
REMARK    4  A    between atoms: N_13  and  C_21
REMARK    5  A    between atoms: C_21  and  C_23
REMARK    6  A    between atoms: C_21  and  C_31
REMARK    7  A    between atoms: C_26  and  O_30
REMARK    8  A    between atoms: C_27  and  O_29
REMARK    9  A    between atoms: N_33  and  C_34
REMARK                            x       y       z     vdW  Elec       q    Type
REMARK                         _______ _______ _______ _____ _____    ______ ____
ROOT
ATOM      1  C   UNL     1      -6.348   3.050  -2.652  0.00  0.00    +0.197 C 
ENDROOT
BRANCH   1   2
ATOM      2  C   UNL     1      -7.657   3.791  -2.557  0.00  0.00    -0.014 A 
ATOM      3  C   UNL     1      -8.220   4.042  -1.319  0.00  0.00    +0.010 A 
ATOM      4  C   UNL     1      -9.417   4.726  -1.226  0.00  0.00    +0.049 A 
ATOM      5  C   UNL     1     -10.062   5.154  -2.376  0.00  0.00    +0.158 A 
ATOM      6  C   UNL     1      -9.498   4.897  -3.622  0.00  0.00    +0.159 A 
ATOM      7  C   UNL     1      -8.295   4.215  -3.708  0.00  0.00    +0.055 A 
BRANCH   6   8
ATOM      8  O   UNL     1     -10.127   5.314  -4.753  0.00  0.00    -0.503 OA
ATOM      9  H   UNL     1     -10.746   4.668  -5.121  0.00  0.00    +0.292 HD
ENDBRANCH   6   8
BRANCH   5  10
ATOM     10  O   UNL     1     -11.242   5.822  -2.287  0.00  0.00    -0.503 OA
ATOM     11  H   UNL     1     -12.021   5.249  -2.301  0.00  0.00    +0.292 HD
ENDBRANCH   5  10
ENDBRANCH   1   2
BRANCH   1  12
ATOM     12  C   UNL     1      -6.525   1.650  -2.123  0.00  0.00    +0.239 C 
ATOM     13  O   UNL     1      -5.867   1.272  -1.176  0.00  0.00    -0.273 OA
ATOM     14  N   UNL     1      -7.413   0.818  -2.701  0.00  0.00    -0.311 N 
ATOM     15  H   UNL     1      -7.939   1.120  -3.458  0.00  0.00    +0.149 HD
BRANCH  14  16
ATOM     16  C   UNL     1      -7.585  -0.543  -2.187  0.00  0.00    +0.073 C 
ATOM     17  C   UNL     1      -6.536  -1.462  -2.816  0.00  0.00    +0.022 C 
ATOM     18  C   UNL     1      -6.715  -2.884  -2.279  0.00  0.00    +0.002 C 
ATOM     19  C   UNL     1      -8.115  -3.390  -2.632  0.00  0.00    +0.000 C 
ATOM     20  C   UNL     1      -9.164  -2.471  -2.003  0.00  0.00    +0.002 C 
ATOM     21  C   UNL     1      -8.985  -1.050  -2.540  0.00  0.00    +0.022 C 
ENDBRANCH  14  16
ENDBRANCH   1  12
BRANCH   1  24
ATOM     22  C   UNL     1      -4.051   3.335  -1.893  0.00  0.00    +0.242 C 
ATOM     23  O   UNL     1      -3.713   2.469  -2.672  0.00  0.00    -0.273 OA
ATOM     24  N   UNL     1      -5.333   3.747  -1.859  0.00  0.00    -0.254 N 
BRANCH  24  25
ATOM     25  C   UNL     1      -5.695   4.842  -1.065  0.00  0.00    +0.040 A 
ATOM     26  C   UNL     1      -5.726   4.719   0.318  0.00  0.00    +0.024 A 
ATOM     27  C   UNL     1      -6.082   5.800   1.099  0.00  0.00    +0.005 A 
ATOM     28  C   UNL     1      -6.410   7.006   0.506  0.00  0.00    +0.038 A 
ATOM     29  C   UNL     1      -6.381   7.133  -0.872  0.00  0.00    +0.125 A 
ATOM     30  C   UNL     1      -6.019   6.054  -1.659  0.00  0.00    +0.062 A 
ATOM     31  F   UNL     1      -6.701   8.312  -1.449  0.00  0.00    -0.205 F 
ENDBRANCH  24  25
BRANCH  22  32
ATOM     32  C   UNL     1      -3.036   3.950  -0.964  0.00  0.00    +0.242 C 
BRANCH  32  41
ATOM     33  C   UNL     1       0.216   0.058   0.455  0.00  0.00    +0.002 A 
ATOM     34  C   UNL     1      -1.051   0.312   0.965  0.00  0.00    +0.002 A 
ATOM     35  C   UNL     1      -1.791   1.361   0.497  0.00  0.00    +0.029 A 
ATOM     36  C   UNL     1      -1.269   2.189  -0.492  0.00  0.00    +0.090 A 
ATOM     37  C   UNL     1       0.012   1.937  -1.012  0.00  0.00    +0.113 A 
ATOM     38  C   UNL     1       0.748   0.851  -0.519  0.00  0.00    +0.032 A 
ATOM     39  N   UNL     1       0.266   2.874  -1.947  0.00  0.00    -0.129 NA
ATOM     40  N   UNL     1      -0.732   3.679  -2.054  0.00  0.00    -0.064 NA
ATOM     41  N   UNL     1      -1.739   3.297  -1.156  0.00  0.00    -0.235 N 
ENDBRANCH  32  41
ENDBRANCH  22  32
ENDBRANCH   1  24
TORSDOF 9
