REMARK  Name = ZINC45874332
REMARK  5 active torsions:
REMARK  status: ('A' for Active; 'I' for Inactive)
REMARK    1  A    between atoms: C_1  and  C_2
REMARK    2  A    between atoms: C_7  and  C_10
REMARK    3  A    between atoms: C_14  and  C_17
REMARK    4  A    between atoms: C_17  and  N_18
REMARK    5  A    between atoms: C_25  and  C_27
REMARK                            x       y       z     vdW  Elec       q    Type
REMARK                         _______ _______ _______ _____ _____    ______ ____
ROOT
ATOM      1  C   UNL     1       0.016   1.546   0.045  0.00  0.00    +0.039 C 
ATOM      2  C   UNL     1       0.015   0.016   0.022  0.00  0.00    +0.133 C 
ATOM      3  C   UNL     1       0.716  -0.478  -1.248  0.00  0.00    +0.137 C 
ATOM      4  N   UNL     1       2.143  -0.135  -1.154  0.00  0.00    -0.312 N 
ATOM      5  C   UNL     1       2.865  -0.509   0.072  0.00  0.00    +0.137 C 
ATOM      6  C   UNL     1       2.060  -0.013   1.279  0.00  0.00    +0.133 C 
ATOM      7  O   UNL     1       0.711  -0.479   1.169  0.00  0.00    -0.371 OA
ATOM      8  C   UNL     1       2.684  -0.553   2.567  0.00  0.00    +0.039 C 
ATOM      9  C   UNL     1       2.791   0.524  -2.193  0.00  0.00    +0.099 A 
ATOM     10  C   UNL     1       2.117   0.757  -3.387  0.00  0.00    +0.042 A 
ATOM     11  C   UNL     1       2.773   1.413  -4.413  0.00  0.00    +0.010 A 
ATOM     12  C   UNL     1       4.087   1.816  -4.208  0.00  0.00    -0.014 A 
ATOM     13  C   UNL     1       4.694   1.552  -2.997  0.00  0.00    +0.089 A 
ATOM     14  N   UNL     1       4.042   0.928  -2.034  0.00  0.00    -0.349 N 
ATOM     15  H   UNL     1       4.491   0.759  -1.192  0.00  0.00    +0.167 HD
ENDROOT
BRANCH  12  16
ATOM     16  C   UNL     1       4.841   2.534  -5.298  0.00  0.00    +0.142 C 
BRANCH  16  17
ATOM     17  N   UNL     1       4.638   3.978  -5.162  0.00  0.00    -0.295 N 
ATOM     18  C   UNL     1       5.221   4.826  -6.033  0.00  0.00    +0.303 C 
ATOM     19  O   UNL     1       5.916   4.391  -6.931  0.00  0.00    -0.253 OA
ATOM     20  N   UNL     1       5.034   6.154  -5.908  0.00  0.00    -0.278 N 
ATOM     21  C   UNL     1       4.225   6.814  -4.867  0.00  0.00    +0.110 C 
ATOM     22  C   UNL     1       4.806   8.247  -4.762  0.00  0.00    +0.021 C 
ATOM     23  C   UNL     1       5.143   8.556  -6.245  0.00  0.00    +0.029 C 
ATOM     24  C   UNL     1       5.608   7.186  -6.784  0.00  0.00    +0.114 C 
ATOM     25  H   UNL     1       4.083   4.325  -4.446  0.00  0.00    +0.151 HD
BRANCH  24  26
ATOM     26  C   UNL     1       5.110   6.997  -8.194  0.00  0.00    +0.010 A 
ATOM     27  C   UNL     1       5.780   7.145  -9.363  0.00  0.00    +0.013 A 
ATOM     28  C   UNL     1       5.112   6.915 -10.551  0.00  0.00    +0.008 A 
ATOM     29  C   UNL     1       3.808   6.549 -10.513  0.00  0.00    +0.045 A 
ATOM     30  S   UNL     1       3.486   6.514  -8.757  0.00  0.00    -0.100 S 
ENDBRANCH  24  26
ENDBRANCH  16  17
ENDBRANCH  12  16
TORSDOF 3
