REMARK  Name = ZINC47331973
REMARK  4 active torsions:
REMARK  status: ('A' for Active; 'I' for Inactive)
REMARK    1  A    between atoms: C_1  and  C_2
REMARK    2  A    between atoms: C_5  and  N_8
REMARK    3  A    between atoms: N_8  and  S_9
REMARK    4  A    between atoms: S_9  and  C_12
REMARK                            x       y       z     vdW  Elec       q    Type
REMARK                         _______ _______ _______ _____ _____    ______ ____
ROOT
ATOM      1  C   UNL     1       0.239  -3.236   4.379  0.00  0.00    +0.141 A 
ATOM      2  C   UNL     1       0.600  -2.720   5.610  0.00  0.00    +0.037 A 
ATOM      3  C   UNL     1       1.895  -2.861   6.067  0.00  0.00    -0.024 A 
ATOM      4  C   UNL     1       2.838  -3.522   5.290  0.00  0.00    +0.039 A 
ATOM      5  C   UNL     1       2.476  -4.039   4.054  0.00  0.00    +0.064 A 
ATOM      6  C   UNL     1       1.175  -3.900   3.603  0.00  0.00    +0.151 A 
ATOM      7  F   UNL     1       0.819  -4.408   2.403  0.00  0.00    -0.203 F 
ATOM      8  N   UNL     1       4.149  -3.664   5.755  0.00  0.00    -0.285 N 
ATOM      9  C   UNL     1       4.429  -3.514   7.062  0.00  0.00    +0.218 C 
ATOM     10  O   UNL     1       5.574  -3.626   7.447  0.00  0.00    -0.275 OA
ATOM     11  C   UNL     1       3.338  -3.207   8.053  0.00  0.00    +0.101 C 
ATOM     12  C   UNL     1       2.289  -2.300   7.408  0.00  0.00    +0.046 C 
ATOM     13  H   UNL     1       4.861  -3.873   5.131  0.00  0.00    +0.155 HD
ENDROOT
BRANCH   1  14
ATOM     14  S   UNL     1      -1.415  -3.056   3.799  0.00  0.00    +0.061 S 
ATOM     15  O   UNL     1      -2.114  -2.318   4.792  0.00  0.00    -0.153 OA
ATOM     16  O   UNL     1      -1.836  -4.342   3.367  0.00  0.00    -0.153 OA
BRANCH  14  17
ATOM     17  N   UNL     1      -1.358  -2.098   2.449  0.00  0.00    -0.187 NA
ATOM     18  H   UNL     1      -1.779  -1.224   2.457  0.00  0.00    +0.148 HD
BRANCH  17  23
ATOM     19  C   UNL     1      -0.019   1.526   0.010  0.00  0.00    +0.007 C 
ATOM     20  C   UNL     1       0.002  -0.004   0.002  0.00  0.00    -0.014 C 
ATOM     21  C   UNL     1      -1.433  -0.534   0.013  0.00  0.00    +0.005 C 
ATOM     22  C   UNL     1      -1.413  -2.063   0.004  0.00  0.00    +0.020 C 
ATOM     23  C   UNL     1      -0.673  -2.570   1.244  0.00  0.00    +0.077 C 
ATOM     24  C   UNL     1       0.763  -2.041   1.233  0.00  0.00    +0.020 C 
ATOM     25  C   UNL     1       0.742  -0.511   1.242  0.00  0.00    +0.005 C 
ENDBRANCH  17  23
ENDBRANCH  14  17
ENDBRANCH   1  14
TORSDOF 3
