REMARK  Name = ZINC36027335
REMARK  9 active torsions:
REMARK  status: ('A' for Active; 'I' for Inactive)
REMARK    1  A    between atoms: C_1  and  C_2
REMARK    2  A    between atoms: C_2  and  C_3
REMARK    3  A    between atoms: C_3  and  N_4
REMARK    4  A    between atoms: C_7  and  C_29
REMARK    5  A    between atoms: N_13  and  S_16
REMARK    6  A    between atoms: S_16  and  C_19
REMARK    7  A    between atoms: C_22  and  N_25
REMARK    8  A    between atoms: C_26  and  C_28
REMARK    9  A    between atoms: C_29  and  C_30
REMARK                            x       y       z     vdW  Elec       q    Type
REMARK                         _______ _______ _______ _____ _____    ______ ____
ROOT
ATOM      1  N   UNL     1      -1.214  -2.006   0.043  0.00  0.00    -0.314 N 
ATOM      2  C   UNL     1      -1.102  -2.693  -1.113  0.00  0.00    +0.201 C 
ATOM      3  O   UNL     1      -1.017  -2.207  -2.221  0.00  0.00    -0.277 OA
ATOM      4  C   UNL     1      -1.101  -4.172  -0.793  0.00  0.00    +0.023 C 
ATOM      5  N   UNL     1      -0.810  -4.245   0.659  0.00  0.00    +0.401 N 
ATOM      6  C   UNL     1      -1.292  -2.945   1.165  0.00  0.00    +0.006 C 
ATOM      7  C   UNL     1      -0.402  -2.473   2.313  0.00  0.00    +0.023 C 
ATOM      8  C   UNL     1      -0.891  -1.107   2.807  0.00  0.00    +0.109 C 
ATOM      9  N   UNL     1      -2.318  -1.209   3.141  0.00  0.00    -0.177 NA
ATOM     10  C   UNL     1      -3.247  -1.724   2.126  0.00  0.00    +0.109 C 
ATOM     11  C   UNL     1      -2.739  -3.084   1.638  0.00  0.00    +0.023 C 
ATOM     12  H   UNL     1      -1.316  -5.006   1.086  0.00  0.00    -0.082 HD
ATOM     13  H   UNL     1       0.182  -4.340   0.820  0.00  0.00    -0.082 HD
ENDROOT
BRANCH   9  14
ATOM     14  S   UNL     1      -2.869  -0.751   4.634  0.00  0.00    +0.061 S 
ATOM     15  O   UNL     1      -4.085  -1.454   4.851  0.00  0.00    -0.153 OA
ATOM     16  O   UNL     1      -1.764  -0.847   5.522  0.00  0.00    -0.153 OA
BRANCH  14  17
ATOM     17  C   UNL     1      -3.288   0.958   4.533  0.00  0.00    +0.106 A 
ATOM     18  C   UNL     1      -2.333   1.919   4.811  0.00  0.00    +0.030 A 
ATOM     19  C   UNL     1      -2.658   3.260   4.732  0.00  0.00    +0.025 A 
ATOM     20  C   UNL     1      -3.945   3.641   4.374  0.00  0.00    +0.033 A 
ATOM     21  C   UNL     1      -4.900   2.673   4.096  0.00  0.00    +0.025 A 
ATOM     22  C   UNL     1      -4.568   1.335   4.171  0.00  0.00    +0.030 A 
BRANCH  20  23
ATOM     23  N   UNL     1      -4.277   4.998   4.295  0.00  0.00    -0.286 N 
ATOM     24  C   UNL     1      -3.372   5.888   3.842  0.00  0.00    +0.214 C 
ATOM     25  O   UNL     1      -2.247   5.524   3.569  0.00  0.00    -0.276 OA
ATOM     26  C   UNL     1      -3.757   7.335   3.673  0.00  0.00    +0.109 C 
ATOM     27  H   UNL     1      -5.159   5.298   4.565  0.00  0.00    +0.155 HD
ENDBRANCH  20  23
ENDBRANCH  14  17
ENDBRANCH   9  14
BRANCH   1  28
ATOM     28  C   UNL     1      -1.247  -0.545   0.159  0.00  0.00    +0.106 C 
BRANCH  28  30
ATOM     29  C   UNL     1       0.144   1.496   0.533  0.00  0.00    +0.005 C 
ATOM     30  C   UNL     1       0.182  -0.011   0.272  0.00  0.00    +0.015 C 
ENDBRANCH  28  30
ENDBRANCH   1  28
BRANCH   4  31
ATOM     31  C   UNL     1      -0.011  -4.889  -1.594  0.00  0.00    +0.028 C 
BRANCH  31  32
ATOM     32  C   UNL     1      -0.084  -6.370  -1.327  0.00  0.00    -0.048 A 
ATOM     33  C   UNL     1       0.636  -6.921  -0.283  0.00  0.00    +0.003 A 
ATOM     34  C   UNL     1       0.569  -8.280  -0.038  0.00  0.00    +0.000 A 
ATOM     35  C   UNL     1      -0.218  -9.088  -0.837  0.00  0.00    +0.000 A 
ATOM     36  C   UNL     1      -0.940  -8.537  -1.879  0.00  0.00    +0.000 A 
ATOM     37  C   UNL     1      -0.876  -7.178  -2.122  0.00  0.00    +0.003 A 
ENDBRANCH  31  32
ENDBRANCH   4  31
TORSDOF 7
