REMARK  Name = ZINC39364549
REMARK  8 active torsions:
REMARK  status: ('A' for Active; 'I' for Inactive)
REMARK    1  A    between atoms: C_4  and  C_7
REMARK    2  A    between atoms: C_10  and  C_13
REMARK    3  A    between atoms: C_13  and  N_14
REMARK    4  A    between atoms: C_15  and  C_17
REMARK    5  A    between atoms: C_17  and  C_18
REMARK    6  A    between atoms: C_18  and  C_19
REMARK    7  A    between atoms: C_19  and  C_25
REMARK    8  A    between atoms: C_25  and  C_26
REMARK                            x       y       z     vdW  Elec       q    Type
REMARK                         _______ _______ _______ _____ _____    ______ ____
ROOT
ATOM      1  C   UNL     1       7.898  -6.852  -3.502  0.00  0.00    +0.035 C 
ENDROOT
BRANCH   1   2
ATOM      2  C   UNL     1       9.189  -7.673  -3.481  0.00  0.00    +0.039 C 
ATOM      3  C   UNL     1      10.391  -6.769  -3.127  0.00  0.00    +0.035 C 
ATOM      4  C   UNL     1      11.267  -7.726  -2.285  0.00  0.00    +0.098 C 
ATOM      5  C   UNL     1      10.288  -8.739  -1.734  0.00  0.00    +0.214 C 
ATOM      6  O   UNL     1      10.512  -9.490  -0.810  0.00  0.00    -0.276 OA
ATOM      7  N   UNL     1       9.132  -8.683  -2.418  0.00  0.00    -0.309 N 
ATOM      8  H   UNL     1       8.359  -9.239  -2.233  0.00  0.00    +0.149 HD
BRANCH   2   9
ATOM      9  C   UNL     1       9.411  -8.343  -4.838  0.00  0.00    +0.061 C 
BRANCH   9  10
ATOM     10  C   UNL     1       8.322  -9.356  -5.082  0.00  0.00    -0.038 A 
ATOM     11  C   UNL     1       8.466 -10.636  -4.641  0.00  0.00    +0.004 A 
ATOM     12  C   UNL     1       7.470 -11.585  -4.857  0.00  0.00    +0.001 A 
ATOM     13  C   UNL     1       6.324 -11.261  -5.517  0.00  0.00    +0.008 A 
ATOM     14  C   UNL     1       6.139  -9.950  -5.987  0.00  0.00    -0.018 A 
ATOM     15  C   UNL     1       7.150  -8.982  -5.762  0.00  0.00    -0.015 A 
ATOM     16  C   UNL     1       6.963  -7.670  -6.227  0.00  0.00    +0.009 A 
ATOM     17  C   UNL     1       5.815  -7.344  -6.881  0.00  0.00    +0.001 A 
ATOM     18  C   UNL     1       4.818  -8.294  -7.097  0.00  0.00    +0.001 A 
ATOM     19  C   UNL     1       4.970  -9.578  -6.673  0.00  0.00    +0.008 A 
ENDBRANCH   9  10
ENDBRANCH   2   9
ENDBRANCH   1   2
BRANCH   1  20
ATOM     20  C   UNL     1       7.665  -6.233  -2.122  0.00  0.00    +0.098 C 
BRANCH  20  22
ATOM     21  N   UNL     1       5.911  -4.910  -0.986  0.00  0.00    -0.310 N 
ATOM     22  C   UNL     1       6.331  -5.532  -2.105  0.00  0.00    +0.213 C 
ATOM     23  O   UNL     1       5.635  -5.528  -3.099  0.00  0.00    -0.276 OA
ATOM     24  H   UNL     1       6.467  -4.913  -0.191  0.00  0.00    +0.149 HD
BRANCH  21  25
ATOM     25  C   UNL     1       4.614  -4.228  -0.969  0.00  0.00    +0.161 C 
BRANCH  25  28
ATOM     26  C   UNL     1       4.066  -2.223   2.126  0.00  0.00    +0.153 C 
ATOM     27  C   UNL     1       4.296  -2.308   0.627  0.00  0.00    +0.030 C 
ATOM     28  C   UNL     1       4.385  -3.619   0.390  0.00  0.00    +0.076 C 
ATOM     29  N   UNL     1       4.240  -4.325   1.533  0.00  0.00    -0.181 NA
ATOM     30  N   UNL     1       4.062  -3.635   2.545  0.00  0.00    -0.297 N 
ATOM     31  H   UNL     1       3.941  -3.963   3.450  0.00  0.00    +0.183 HD
BRANCH  26  35
ATOM     32  C   UNL     1       0.306  -0.382   2.974  0.00  0.00    +0.000 A 
ATOM     33  C   UNL     1       1.476   0.341   3.110  0.00  0.00    +0.000 A 
ATOM     34  C   UNL     1       2.693  -0.255   2.835  0.00  0.00    +0.006 A 
ATOM     35  C   UNL     1       2.740  -1.574   2.426  0.00  0.00    -0.020 A 
ATOM     36  C   UNL     1       1.570  -2.298   2.291  0.00  0.00    +0.006 A 
ATOM     37  C   UNL     1       0.353  -1.701   2.563  0.00  0.00    +0.000 A 
ENDBRANCH  26  35
ENDBRANCH  25  28
ENDBRANCH  21  25
ENDBRANCH  20  22
ENDBRANCH   1  20
TORSDOF 8
