REMARK  Name = ZINC17576845
REMARK  7 active torsions:
REMARK  status: ('A' for Active; 'I' for Inactive)
REMARK    1  A    between atoms: C_10  and  C_11
REMARK    2  A    between atoms: C_11  and  C_12
REMARK    3  A    between atoms: N_14  and  N_15
REMARK    4  A    between atoms: C_16  and  C_18
REMARK    5  A    between atoms: C_23  and  N_24
REMARK    6  A    between atoms: N_24  and  S_25
REMARK    7  A    between atoms: S_25  and  C_28
REMARK                            x       y       z     vdW  Elec       q    Type
REMARK                         _______ _______ _______ _____ _____    ______ ____
ROOT
ATOM      1  N   UNL     1      -2.594   7.780  -2.604  0.00  0.00    -0.230 N 
ATOM      2  C   UNL     1      -2.488   9.080  -2.942  0.00  0.00    +0.262 C 
ATOM      3  O   UNL     1      -2.417   9.930  -2.075  0.00  0.00    -0.269 OA
ATOM      4  H   UNL     1      -2.650   7.102  -3.296  0.00  0.00    +0.173 HD
ENDROOT
BRANCH   2   5
ATOM      5  C   UNL     1      -2.457   9.473  -4.363  0.00  0.00    +0.060 A 
ATOM      6  C   UNL     1      -2.538   8.500  -5.363  0.00  0.00    +0.015 A 
ATOM      7  C   UNL     1      -2.509   8.873  -6.689  0.00  0.00    +0.001 A 
ATOM      8  C   UNL     1      -2.400  10.210  -7.038  0.00  0.00    +0.002 A 
ATOM      9  C   UNL     1      -2.319  11.182  -6.062  0.00  0.00    +0.025 A 
ATOM     10  C   UNL     1      -2.353  10.826  -4.720  0.00  0.00    +0.060 A 
BRANCH  10  11
ATOM     11  N   UNL     1      -2.278  11.803  -3.736  0.00  0.00    -0.215 N 
ATOM     12  H   UNL     1      -1.803  11.624  -2.909  0.00  0.00    +0.174 HD
BRANCH  11  13
ATOM     13  S   UNL     1      -2.998  13.275  -3.974  0.00  0.00    +0.079 S 
ATOM     14  O   UNL     1      -2.866  13.994  -2.756  0.00  0.00    -0.149 OA
ATOM     15  O   UNL     1      -2.504  13.773  -5.210  0.00  0.00    -0.149 OA
BRANCH  13  16
ATOM     16  C   UNL     1      -4.720  12.982  -4.202  0.00  0.00    +0.146 A 
ATOM     17  C   UNL     1      -5.708  12.933  -3.274  0.00  0.00    +0.036 A 
ATOM     18  C   UNL     1      -7.003  12.686  -3.687  0.00  0.00    +0.010 A 
ATOM     19  C   UNL     1      -7.249  12.499  -5.007  0.00  0.00    +0.047 A 
ATOM     20  S   UNL     1      -5.620  12.679  -5.714  0.00  0.00    -0.077 S 
ENDBRANCH  13  16
ENDBRANCH  11  13
ENDBRANCH  10  11
ENDBRANCH   2   5
BRANCH   1  23
ATOM     21  C   UNL     1      -2.728   6.106  -0.917  0.00  0.00    +0.233 C 
ATOM     22  O   UNL     1      -2.799   5.259  -1.781  0.00  0.00    -0.274 OA
ATOM     23  N   UNL     1      -2.623   7.407  -1.254  0.00  0.00    -0.234 N 
ATOM     24  H   UNL     1      -2.566   8.085  -0.563  0.00  0.00    +0.173 HD
BRANCH  21  25
ATOM     25  C   UNL     1      -2.760   5.705   0.536  0.00  0.00    +0.133 C 
BRANCH  25  35
ATOM     26  C   UNL     1       0.502   1.761   0.472  0.00  0.00    +0.001 A 
ATOM     27  C   UNL     1       0.635   3.145   0.374  0.00  0.00    +0.001 A 
ATOM     28  C   UNL     1      -0.454   3.959   0.426  0.00  0.00    +0.009 A 
ATOM     29  C   UNL     1      -1.734   3.399   0.583  0.00  0.00    -0.014 A 
ATOM     30  C   UNL     1      -1.869   1.991   0.677  0.00  0.00    -0.018 A 
ATOM     31  C   UNL     1      -0.721   1.183   0.625  0.00  0.00    +0.008 A 
ATOM     32  C   UNL     1      -3.149   1.431   0.828  0.00  0.00    +0.008 A 
ATOM     33  C   UNL     1      -4.239   2.245   0.875  0.00  0.00    +0.001 A 
ATOM     34  C   UNL     1      -4.107   3.628   0.777  0.00  0.00    +0.005 A 
ATOM     35  C   UNL     1      -2.882   4.207   0.640  0.00  0.00    -0.031 A 
ENDBRANCH  25  35
ENDBRANCH  21  25
ENDBRANCH   1  23
TORSDOF 7
