REMARK  Name = ZINC04180853
REMARK  4 active torsions:
REMARK  status: ('A' for Active; 'I' for Inactive)
REMARK    1  A    between atoms: C_1  and  C_2
REMARK    2  A    between atoms: C_2  and  C_29
REMARK    3  A    between atoms: C_6  and  C_20
REMARK    4  A    between atoms: C_11  and  C_13
REMARK                            x       y       z     vdW  Elec       q    Type
REMARK                         _______ _______ _______ _____ _____    ______ ____
ROOT
ATOM      1  C   UNL     1      -0.019   1.526   0.010  0.00  0.00    +0.011 C 
ATOM      2  C   UNL     1       0.002  -0.004   0.002  0.00  0.00    -0.023 C 
ATOM      3  C   UNL     1      -1.431  -0.539   0.041  0.00  0.00    +0.058 C 
ATOM      4  C   UNL     1      -1.409  -2.049   0.077  0.00  0.00    +0.020 C 
ATOM      5  C   UNL     1      -0.393  -2.714   0.667  0.00  0.00    +0.041 C 
ATOM      6  C   UNL     1      -0.342  -4.226   0.717  0.00  0.00    +0.175 C 
ATOM      7  N   UNL     1      -1.642  -4.780   0.361  0.00  0.00    -0.220 N 
ATOM      8  C   UNL     1      -2.630  -4.054  -0.221  0.00  0.00    +0.219 A 
ATOM      9  N   UNL     1      -3.652  -4.839  -0.415  0.00  0.00    -0.193 NA
ATOM     10  C   UNL     1      -3.361  -6.073   0.032  0.00  0.00    +0.183 A 
ATOM     11  N   UNL     1      -2.136  -6.075   0.517  0.00  0.00    -0.147 NA
ATOM     12  N   UNL     1      -2.464  -2.708  -0.507  0.00  0.00    -0.287 N 
ATOM     13  C   UNL     1       0.675  -2.019   1.263  0.00  0.00    +0.164 C 
ATOM     14  O   UNL     1       1.564  -2.646   1.806  0.00  0.00    -0.292 OA
ATOM     15  C   UNL     1       0.742  -0.517   1.242  0.00  0.00    +0.086 C 
ATOM     16  C   UNL     1       0.706  -0.503  -1.262  0.00  0.00    +0.011 C 
ATOM     17  H   UNL     1      -3.074  -2.245  -1.102  0.00  0.00    +0.155 HD
ENDROOT
BRANCH  10  18
ATOM     18  C   UNL     1      -4.273  -7.243  -0.012  0.00  0.00    +0.021 A 
ATOM     19  C   UNL     1      -3.857  -8.473   0.492  0.00  0.00    +0.011 A 
ATOM     20  C   UNL     1      -4.709  -9.558   0.448  0.00  0.00    +0.001 A 
ATOM     21  C   UNL     1      -5.974  -9.425  -0.094  0.00  0.00    +0.000 A 
ATOM     22  C   UNL     1      -6.393  -8.206  -0.595  0.00  0.00    +0.001 A 
ATOM     23  C   UNL     1      -5.551  -7.113  -0.551  0.00  0.00    +0.011 A 
ENDBRANCH  10  18
BRANCH   6  24
ATOM     24  C   UNL     1       0.696  -4.724  -0.256  0.00  0.00    -0.018 A 
ATOM     25  C   UNL     1       0.577  -4.432  -1.602  0.00  0.00    +0.006 A 
ATOM     26  C   UNL     1       1.529  -4.889  -2.494  0.00  0.00    +0.000 A 
ATOM     27  C   UNL     1       2.599  -5.637  -2.041  0.00  0.00    +0.000 A 
ATOM     28  C   UNL     1       2.718  -5.928  -0.695  0.00  0.00    +0.000 A 
ATOM     29  C   UNL     1       1.769  -5.467   0.199  0.00  0.00    +0.006 A 
ENDBRANCH   6  24
TORSDOF 2
