REMARK  Name = ZINC10524643
REMARK  12 active torsions:
REMARK  status: ('A' for Active; 'I' for Inactive)
REMARK    1  A    between atoms: C_1  and  C_2
REMARK    2  A    between atoms: C_2  and  C_4
REMARK    3  A    between atoms: C_2  and  O_20
REMARK    4  A    between atoms: N_6  and  C_7
REMARK    5  A    between atoms: C_10  and  S_13
REMARK    6  A    between atoms: S_13  and  N_16
REMARK    7  A    between atoms: N_16  and  C_17
REMARK    8  A    between atoms: C_17  and  C_18
REMARK    9  A    between atoms: C_17  and  C_19
REMARK   10  A    between atoms: O_20  and  C_21
REMARK   11  A    between atoms: C_21  and  C_23
REMARK   12  A    between atoms: C_24  and  C_25
REMARK                            x       y       z     vdW  Elec       q    Type
REMARK                         _______ _______ _______ _____ _____    ______ ____
ROOT
ATOM      1  C   UNL     1       0.708  -0.488  -1.238  0.00  0.00    +0.258 C 
ATOM      2  O   UNL     1       1.758  -1.088  -1.142  0.00  0.00    -0.271 OA
ATOM      3  N   UNL     1       0.176  -0.250  -2.453  0.00  0.00    -0.282 N 
ATOM      4  H   UNL     1      -0.695   0.170  -2.527  0.00  0.00    +0.155 HD
ENDROOT
BRANCH   3   5
ATOM      5  C   UNL     1       0.881  -0.608  -3.608  0.00  0.00    +0.034 A 
ATOM      6  C   UNL     1       0.802   0.185  -4.745  0.00  0.00    +0.025 A 
ATOM      7  C   UNL     1       1.499  -0.171  -5.883  0.00  0.00    +0.030 A 
ATOM      8  C   UNL     1       2.275  -1.316  -5.891  0.00  0.00    +0.105 A 
ATOM      9  C   UNL     1       2.355  -2.108  -4.760  0.00  0.00    +0.030 A 
ATOM     10  C   UNL     1       1.665  -1.754  -3.617  0.00  0.00    +0.025 A 
BRANCH   8  11
ATOM     11  S   UNL     1       3.162  -1.767  -7.345  0.00  0.00    +0.059 S 
ATOM     12  O   UNL     1       3.378  -3.170  -7.270  0.00  0.00    -0.153 OA
ATOM     13  O   UNL     1       2.489  -1.157  -8.437  0.00  0.00    -0.153 OA
BRANCH  11  14
ATOM     14  N   UNL     1       4.653  -1.053  -7.250  0.00  0.00    -0.187 NA
ATOM     15  H   UNL     1       4.906  -0.371  -7.891  0.00  0.00    +0.148 HD
BRANCH  14  16
ATOM     16  C   UNL     1       5.590  -1.451  -6.196  0.00  0.00    +0.070 C 
ATOM     17  C   UNL     1       6.541  -2.521  -6.737  0.00  0.00    +0.025 C 
ATOM     18  C   UNL     1       6.397  -0.233  -5.744  0.00  0.00    +0.025 C 
ENDBRANCH  14  16
ENDBRANCH  11  14
ENDBRANCH   8  11
ENDBRANCH   3   5
BRANCH   1  20
ATOM     19  C   UNL     1      -0.033   1.520   0.013  0.00  0.00    +0.062 C 
ATOM     20  C   UNL     1      -0.002  -0.010   0.002  0.00  0.00    +0.259 C 
BRANCH  20  21
ATOM     21  O   UNL     1       0.692  -0.480   1.160  0.00  0.00    -0.449 OA
BRANCH  21  22
ATOM     22  C   UNL     1      -0.046  -0.708   2.266  0.00  0.00    +0.333 C 
ATOM     23  O   UNL     1      -1.246  -0.511   2.247  0.00  0.00    -0.246 OA
BRANCH  22  24
ATOM     24  C   UNL     1       0.597  -1.190   3.487  0.00  0.00    +0.092 C 
ATOM     25  C   UNL     1      -0.142  -1.418   4.593  0.00  0.00    +0.015 C 
BRANCH  25  26
ATOM     26  C   UNL     1       0.505  -1.903   5.823  0.00  0.00    -0.025 A 
ATOM     27  C   UNL     1       1.886  -2.124   5.850  0.00  0.00    +0.009 A 
ATOM     28  C   UNL     1       2.485  -2.579   7.005  0.00  0.00    +0.016 A 
ATOM     29  C   UNL     1       1.723  -2.817   8.137  0.00  0.00    +0.018 A 
ATOM     30  C   UNL     1       0.355  -2.600   8.118  0.00  0.00    +0.016 A 
ATOM     31  C   UNL     1      -0.257  -2.140   6.971  0.00  0.00    +0.009 A 
ATOM     32 BR   UNL     1       2.554  -3.441   9.717  0.00  0.00    -0.050 Br
ENDBRANCH  25  26
ENDBRANCH  22  24
ENDBRANCH  21  22
ENDBRANCH  20  21
ENDBRANCH   1  20
TORSDOF 9
