REMARK  Name = ZINC20161007
REMARK  2 active torsions:
REMARK  status: ('A' for Active; 'I' for Inactive)
REMARK    1  A    between atoms: C_2  and  C_3
REMARK    2  A    between atoms: C_3  and  N_4
REMARK                            x       y       z     vdW  Elec       q    Type
REMARK                         _______ _______ _______ _____ _____    ______ ____
ROOT
ATOM      1  N   UNL     1      -3.156  -4.203   0.721  0.00  0.00    -0.265 N 
ATOM      2  C   UNL     1      -3.182  -4.237  -0.656  0.00  0.00    +0.059 A 
ATOM      3  C   UNL     1      -4.236  -4.641  -1.605  0.00  0.00    +0.039 A 
ATOM      4  C   UNL     1      -5.477  -5.090  -1.148  0.00  0.00    +0.013 A 
ATOM      5  C   UNL     1      -6.442  -5.463  -2.058  0.00  0.00    +0.001 A 
ATOM      6  C   UNL     1      -6.184  -5.394  -3.419  0.00  0.00    +0.004 A 
ATOM      7  C   UNL     1      -4.963  -4.951  -3.882  0.00  0.00    +0.047 A 
ATOM      8  C   UNL     1      -3.976  -4.570  -2.982  0.00  0.00    +0.141 A 
ATOM      9  O   UNL     1      -2.776  -4.134  -3.422  0.00  0.00    -0.422 OA
ATOM     10  C   UNL     1      -1.807  -3.764  -2.567  0.00  0.00    +0.344 A 
ATOM     11  O   UNL     1      -0.739  -3.380  -3.011  0.00  0.00    -0.245 OA
ATOM     12  C   UNL     1      -1.991  -3.811  -1.181  0.00  0.00    +0.084 A 
ATOM     13  C   UNL     1      -1.116  -3.474  -0.005  0.00  0.00    +0.152 C 
ATOM     14  C   UNL     1      -1.975  -3.765   1.200  0.00  0.00    +0.241 C 
ATOM     15  O   UNL     1      -1.665  -3.632   2.364  0.00  0.00    -0.273 OA
ATOM     16  C   UNL     1       0.139  -4.299   0.005  0.00  0.00    -0.011 A 
ATOM     17  C   UNL     1       0.378  -5.654   0.029  0.00  0.00    +0.006 A 
ATOM     18  C   UNL     1       1.679  -6.130   0.035  0.00  0.00    +0.000 A 
ATOM     19  C   UNL     1       2.742  -5.244   0.018  0.00  0.00    +0.001 A 
ATOM     20  C   UNL     1       2.516  -3.885  -0.005  0.00  0.00    +0.012 A 
ATOM     21  C   UNL     1       1.206  -3.396  -0.012  0.00  0.00    +0.024 A 
ATOM     22  C   UNL     1       0.675  -2.018  -0.035  0.00  0.00    +0.162 A 
ATOM     23  C   UNL     1      -0.680  -2.036  -0.032  0.00  0.00    +0.113 A 
ATOM     24  N   UNL     1      -1.107  -0.763  -0.048  0.00  0.00    -0.198 NA
ATOM     25  C   UNL     1      -0.064   0.032  -0.069  0.00  0.00    +0.286 A 
ATOM     26  O   UNL     1       1.051  -0.714  -0.057  0.00  0.00    -0.424 OA
ATOM     27  N   UNL     1      -0.106   1.411  -0.093  0.00  0.00    -0.313 N 
ATOM     28  H   UNL     1       0.829   1.990  -0.109  0.00  0.00    +0.147 HD
ATOM     29  H   UNL     1      -1.075   1.931  -0.096  0.00  0.00    +0.147 HD
ENDROOT
BRANCH   1  30
ATOM     30  C   UNL     1      -4.284  -4.598   1.569  0.00  0.00    +0.140 C 
BRANCH  30  32
ATOM     31  C   UNL     1      -4.273  -6.609   2.953  0.00  0.00    +0.005 C 
ATOM     32  C   UNL     1      -4.278  -6.094   1.748  0.00  0.00    -0.015 C 
ENDBRANCH  30  32
ENDBRANCH   1  30
TORSDOF 2
