REMARK  Name = ZINC44942748
REMARK  8 active torsions:
REMARK  status: ('A' for Active; 'I' for Inactive)
REMARK    1  A    between atoms: C_1  and  C_2
REMARK    2  A    between atoms: C_2  and  C_4
REMARK    3  A    between atoms: C_2  and  N_18
REMARK    4  A    between atoms: C_4  and  C_5
REMARK    5  A    between atoms: C_4  and  C_11
REMARK    6  A    between atoms: C_4  and  O_17
REMARK    7  A    between atoms: C_19  and  C_21
REMARK    8  A    between atoms: C_27  and  C_29
REMARK                            x       y       z     vdW  Elec       q    Type
REMARK                         _______ _______ _______ _____ _____    ______ ____
ROOT
ATOM      1  N   UNL     1      -1.400  -0.537   0.034  0.00  0.00    -0.309 N 
ATOM      2  C   UNL     1      -2.067  -0.668  -1.129  0.00  0.00    +0.217 C 
ATOM      3  O   UNL     1      -1.534  -0.356  -2.173  0.00  0.00    -0.275 OA
ATOM      4  H   UNL     1      -1.826  -0.787   0.869  0.00  0.00    +0.149 HD
ENDROOT
BRANCH   2   5
ATOM      5  C   UNL     1      -3.477  -1.202  -1.133  0.00  0.00    +0.087 C 
ATOM      6  C   UNL     1      -4.371  -0.287  -0.295  0.00  0.00    +0.013 C 
ATOM      7  C   UNL     1      -5.802  -0.829  -0.299  0.00  0.00    +0.001 C 
ATOM      8  C   UNL     1      -6.325  -0.876  -1.736  0.00  0.00    +0.001 C 
ATOM      9  C   UNL     1      -5.431  -1.792  -2.575  0.00  0.00    +0.013 C 
ATOM     10  C   UNL     1      -4.000  -1.249  -2.570  0.00  0.00    +0.087 C 
BRANCH  10  11
ATOM     11  C   UNL     1      -3.119  -2.151  -3.396  0.00  0.00    +0.219 C 
ATOM     12  O   UNL     1      -2.470  -3.023  -2.859  0.00  0.00    -0.275 OA
ATOM     13  N   UNL     1      -3.052  -1.988  -4.732  0.00  0.00    -0.298 N 
ATOM     14  C   UNL     1      -3.748  -0.870  -5.385  0.00  0.00    +0.126 C 
ATOM     15  C   UNL     1      -2.730  -0.071  -6.208  0.00  0.00    +0.125 C 
ATOM     16  N   UNL     1      -1.958  -1.007  -7.038  0.00  0.00    -0.314 N 
ATOM     17  C   UNL     1      -1.262  -2.125  -6.385  0.00  0.00    +0.125 C 
ATOM     18  C   UNL     1      -2.276  -2.921  -5.562  0.00  0.00    +0.126 C 
ATOM     19  C   UNL     1      -1.889  -0.839  -8.416  0.00  0.00    +0.099 A 
ATOM     20  C   UNL     1      -2.440   0.297  -9.000  0.00  0.00    +0.042 A 
ATOM     21  C   UNL     1      -2.364   0.452 -10.372  0.00  0.00    +0.005 A 
ATOM     22  C   UNL     1      -1.738  -0.539 -11.117  0.00  0.00    +0.018 A 
ATOM     23  C   UNL     1      -1.214  -1.641 -10.472  0.00  0.00    +0.084 A 
ATOM     24  N   UNL     1      -1.296  -1.759  -9.160  0.00  0.00    -0.350 N 
ATOM     25  H   UNL     1      -0.916  -2.542  -8.731  0.00  0.00    +0.166 HD
ENDBRANCH  10  11
ENDBRANCH   2   5
BRANCH   1  27
ATOM     26  C   UNL     1      -0.064   1.511   0.055  0.00  0.00    +0.031 C 
ATOM     27  C   UNL     1      -0.030  -0.018   0.038  0.00  0.00    +0.110 C 
BRANCH  27  28
ATOM     28  C   UNL     1       0.704  -0.525   1.281  0.00  0.00    +0.134 C 
BRANCH  28  29
ATOM     29  C   UNL     1       0.738  -2.032   1.265  0.00  0.00    -0.010 A 
ATOM     30  C   UNL     1       0.757  -2.710   0.060  0.00  0.00    +0.007 A 
ATOM     31  C   UNL     1       0.788  -4.092   0.045  0.00  0.00    +0.000 A 
ATOM     32  C   UNL     1       0.800  -4.796   1.234  0.00  0.00    +0.000 A 
ATOM     33  C   UNL     1       0.781  -4.118   2.439  0.00  0.00    +0.000 A 
ATOM     34  C   UNL     1       0.755  -2.736   2.454  0.00  0.00    +0.007 A 
ENDBRANCH  28  29
BRANCH  28  35
ATOM     35  C   UNL     1       2.113   0.008   1.285  0.00  0.00    -0.010 A 
ATOM     36  C   UNL     1       2.756   0.272   0.090  0.00  0.00    +0.007 A 
ATOM     37  C   UNL     1       4.049   0.762   0.094  0.00  0.00    +0.000 A 
ATOM     38  C   UNL     1       4.699   0.988   1.293  0.00  0.00    +0.000 A 
ATOM     39  C   UNL     1       4.055   0.726   2.488  0.00  0.00    +0.000 A 
ATOM     40  C   UNL     1       2.761   0.240   2.484  0.00  0.00    +0.007 A 
ENDBRANCH  28  35
BRANCH  28  41
ATOM     41  O   UNL     1       0.021  -0.077   2.454  0.00  0.00    -0.377 OA
ATOM     42  H   UNL     1      -0.893  -0.384   2.518  0.00  0.00    +0.211 HD
ENDBRANCH  28  41
ENDBRANCH  27  28
ENDBRANCH   1  27
TORSDOF 7
