REMARK  Name = ZINC09495772
REMARK  9 active torsions:
REMARK  status: ('A' for Active; 'I' for Inactive)
REMARK    1  A    between atoms: C_1  and  C_2
REMARK    2  A    between atoms: C_2  and  C_4
REMARK    3  A    between atoms: C_2  and  N_14
REMARK    4  A    between atoms: C_15  and  C_17
REMARK    5  A    between atoms: C_17  and  N_18
REMARK    6  A    between atoms: C_21  and  C_25
REMARK    7  A    between atoms: C_21  and  C_26
REMARK    8  A    between atoms: C_31  and  O_36
REMARK    9  A    between atoms: O_36  and  C_37
REMARK                            x       y       z     vdW  Elec       q    Type
REMARK                         _______ _______ _______ _____ _____    ______ ____
ROOT
ATOM      1  N   UNL     1      -4.695  -2.297   2.860  0.00  0.00    -0.215 N 
ATOM      2  C   UNL     1      -5.260  -1.824   3.988  0.00  0.00    +0.251 C 
ATOM      3  O   UNL     1      -4.784  -1.025   4.767  0.00  0.00    -0.272 OA
ATOM      4  C   UNL     1      -6.616  -2.495   4.080  0.00  0.00    +0.135 C 
ATOM      5  N   UNL     1      -6.658  -3.355   2.885  0.00  0.00    -0.281 N 
ATOM      6  C   UNL     1      -5.494  -3.171   2.237  0.00  0.00    +0.310 C 
ATOM      7  O   UNL     1      -5.200  -3.735   1.201  0.00  0.00    -0.252 OA
ATOM      8  C   UNL     1      -7.742  -1.460   4.039  0.00  0.00    +0.047 C 
ATOM      9  H   UNL     1      -7.384  -3.941   2.618  0.00  0.00    +0.152 HD
ENDROOT
BRANCH   4  10
ATOM     10  C   UNL     1      -6.707  -3.326   5.335  0.00  0.00    -0.015 A 
ATOM     11  C   UNL     1      -6.058  -2.897   6.491  0.00  0.00    +0.007 A 
ATOM     12  C   UNL     1      -6.125  -3.620   7.641  0.00  0.00    +0.009 A 
ATOM     13  C   UNL     1      -6.850  -4.824   7.665  0.00  0.00    -0.014 A 
ATOM     14  C   UNL     1      -6.936  -5.601   8.832  0.00  0.00    +0.054 A 
ATOM     15  C   UNL     1      -7.649  -6.765   8.818  0.00  0.00    +0.121 A 
ATOM     16  C   UNL     1      -8.295  -7.197   7.654  0.00  0.00    +0.046 A 
ATOM     17  C   UNL     1      -8.230  -6.468   6.508  0.00  0.00    +0.012 A 
ATOM     18  C   UNL     1      -7.506  -5.264   6.487  0.00  0.00    -0.017 A 
ATOM     19  C   UNL     1      -7.418  -4.487   5.320  0.00  0.00    +0.014 A 
BRANCH  15  20
ATOM     20  O   UNL     1      -7.732  -7.515   9.948  0.00  0.00    -0.495 OA
ATOM     21  C   UNL     1      -8.491  -8.723   9.871  0.00  0.00    +0.277 C 
ENDBRANCH  15  20
ENDBRANCH   4  10
BRANCH   1  22
ATOM     22  C   UNL     1      -3.367  -1.907   2.379  0.00  0.00    +0.213 C 
BRANCH  22  24
ATOM     23  N   UNL     1      -2.393  -0.175   0.906  0.00  0.00    -0.307 N 
ATOM     24  C   UNL     1      -3.493  -0.712   1.470  0.00  0.00    +0.231 C 
ATOM     25  O   UNL     1      -4.585  -0.232   1.247  0.00  0.00    -0.274 OA
ATOM     26  H   UNL     1      -1.520  -0.559   1.084  0.00  0.00    +0.149 HD
BRANCH  23  28
ATOM     27  C   UNL     1      -2.836   0.517  -1.398  0.00  0.00    +0.033 C 
ATOM     28  C   UNL     1      -2.516   0.987   0.022  0.00  0.00    +0.100 C 
BRANCH  28  29
ATOM     29  C   UNL     1      -1.218   1.753   0.017  0.00  0.00    -0.027 A 
ATOM     30  C   UNL     1      -0.013   1.076   0.008  0.00  0.00    +0.006 A 
ATOM     31  C   UNL     1       1.171   1.784   0.001  0.00  0.00    +0.004 A 
ATOM     32  C   UNL     1       1.163   3.173   0.008  0.00  0.00    -0.044 A 
ATOM     33  C   UNL     1      -0.037   3.848   0.018  0.00  0.00    -0.044 A 
ATOM     34  C   UNL     1      -1.228   3.132   0.027  0.00  0.00    +0.009 A 
ATOM     35  C   UNL     1      -0.122   5.351   0.015  0.00  0.00    +0.035 C 
ATOM     36  C   UNL     1       1.210   5.965   0.442  0.00  0.00    +0.005 C 
ATOM     37  C   UNL     1       2.323   5.341  -0.407  0.00  0.00    +0.005 C 
ATOM     38  C   UNL     1       2.491   3.883   0.014  0.00  0.00    +0.035 C 
ENDBRANCH  28  29
ENDBRANCH  23  28
ENDBRANCH  22  24
ENDBRANCH   1  22
TORSDOF 6
