REMARK  Name = ZINC43287111
REMARK  8 active torsions:
REMARK  status: ('A' for Active; 'I' for Inactive)
REMARK    1  A    between atoms: C_1  and  C_2
REMARK    2  A    between atoms: C_2  and  C_4
REMARK    3  A    between atoms: C_2  and  N_21
REMARK    4  A    between atoms: C_4  and  C_6
REMARK    5  A    between atoms: C_4  and  N_12
REMARK    6  A    between atoms: N_12  and  C_13
REMARK    7  A    between atoms: N_12  and  C_14
REMARK    8  A    between atoms: C_14  and  C_15
REMARK                            x       y       z     vdW  Elec       q    Type
REMARK                         _______ _______ _______ _____ _____    ______ ____
ROOT
ATOM      1  C   UNL     1       0.673  -0.409  -1.276  0.00  0.00    +0.079 C 
ENDROOT
BRANCH   1   2
ATOM      2  C   UNL     1       0.549  -1.908  -1.183  0.00  0.00    +0.006 A 
ATOM      3  C   UNL     1      -0.304  -2.736  -1.833  0.00  0.00    +0.028 A 
ATOM      4  C   UNL     1      -0.237  -4.096  -1.588  0.00  0.00    +0.025 A 
ATOM      5  C   UNL     1       0.681  -4.559  -0.705  0.00  0.00    +0.060 A 
ATOM      6  S   UNL     1       1.494  -3.055  -0.193  0.00  0.00    -0.099 S 
ATOM      7 BR   UNL     1      -1.408  -5.289  -2.472  0.00  0.00    -0.050 Br
ENDBRANCH   1   2
BRANCH   1   9
ATOM      8  C   UNL     1       0.498   1.729   0.005  0.00  0.00    -0.012 C 
ATOM      9  C   UNL     1       0.240   0.221   0.049  0.00  0.00    -0.056 C 
BRANCH   9  10
ATOM     10  N   UNL     1      -1.192  -0.024   0.264  0.00  0.00    +0.381 N 
ATOM     11  H   UNL     1      -1.720   0.386  -0.492  0.00  0.00    -0.090 HD
ATOM     12  H   UNL     1      -1.362  -1.018   0.293  0.00  0.00    -0.090 HD
ATOM     13  H   UNL     1      -1.477   0.392   1.138  0.00  0.00    -0.090 HD
ENDBRANCH   9  10
ENDBRANCH   1   9
BRANCH   1  14
ATOM     14  N   UNL     1       2.069  -0.050  -1.557  0.00  0.00    -0.295 NA
ATOM     15  C   UNL     1       2.478  -0.525  -2.885  0.00  0.00    +0.105 C 
BRANCH  14  16
ATOM     16  C   UNL     1       2.966  -0.566  -0.514  0.00  0.00    +0.127 C 
BRANCH  16  17
ATOM     17  C   UNL     1       4.294   0.142  -0.598  0.00  0.00    +0.005 A 
ATOM     18  C   UNL     1       4.697   1.276   0.025  0.00  0.00    +0.027 A 
ATOM     19  C   UNL     1       5.977   1.748  -0.204  0.00  0.00    +0.025 A 
ATOM     20  C   UNL     1       6.790   1.061  -1.045  0.00  0.00    +0.060 A 
ATOM     21  S   UNL     1       5.746  -0.301  -1.537  0.00  0.00    -0.099 S 
ATOM     22 BR   UNL     1       6.583   3.326   0.641  0.00  0.00    -0.050 Br
ENDBRANCH  16  17
ENDBRANCH  14  16
ENDBRANCH   1  14
TORSDOF 6
