REMARK  Name = ZINC13348263
REMARK  11 active torsions:
REMARK  status: ('A' for Active; 'I' for Inactive)
REMARK    1  A    between atoms: C_1  and  C_2
REMARK    2  A    between atoms: C_2  and  C_38
REMARK    3  A    between atoms: C_6  and  O_37
REMARK    4  A    between atoms: C_8  and  C_14
REMARK    5  A    between atoms: C_14  and  C_16
REMARK    6  A    between atoms: C_14  and  N_65
REMARK    7  A    between atoms: C_16  and  O_17
REMARK    8  A    between atoms: O_17  and  C_18
REMARK    9  A    between atoms: C_18  and  C_19
REMARK   10  A    between atoms: C_18  and  C_25
REMARK   11  A    between atoms: C_18  and  C_31
REMARK                            x       y       z     vdW  Elec       q    Type
REMARK                         _______ _______ _______ _____ _____    ______ ____
ROOT
ATOM      1  O   UNL     1      -3.051   1.569  -0.086  0.00  0.00    -0.361 OA
ENDROOT
BRANCH   1   2
ATOM      2  C   UNL     1      -2.578   2.913   0.009  0.00  0.00    +0.148 C 
BRANCH   2   3
ATOM      3  C   UNL     1      -1.258   3.045  -0.754  0.00  0.00    -0.017 C 
BRANCH   3   9
ATOM      4  C   UNL     1       0.400   7.723  -4.565  0.00  0.00    +0.074 C 
ATOM      5  C   UNL     1       0.468   7.734  -3.037  0.00  0.00    +0.168 C 
ATOM      6  O   UNL     1       1.341   6.663  -2.574  0.00  0.00    -0.338 OA
ATOM      7  C   UNL     1       0.430   5.597  -2.345  0.00  0.00    +0.208 C 
ATOM      8  C   UNL     1       0.695   4.571  -1.251  0.00  0.00    +0.175 C 
ATOM      9  C   UNL     1      -0.688   4.449  -0.548  0.00  0.00    +0.140 C 
ATOM     10  O   UNL     1      -1.562   5.439  -1.169  0.00  0.00    -0.344 OA
ATOM     11  C   UNL     1      -0.695   6.427  -1.621  0.00  0.00    +0.285 C 
ATOM     12  O   UNL     1      -0.858   7.501  -2.483  0.00  0.00    -0.318 OA
ATOM     13  C   UNL     1       1.001   9.084  -2.551  0.00  0.00    +0.074 C 
BRANCH   8  14
ATOM     14  O   UNL     1       1.087   3.318  -1.816  0.00  0.00    -0.387 OA
ATOM     15  H   UNL     1       1.943   3.340  -2.266  0.00  0.00    +0.210 HD
ENDBRANCH   8  14
ENDBRANCH   3   9
BRANCH   3  18
ATOM     16  H   UNL     1      -2.176   3.469  -2.547  0.00  0.00    -0.089 HD
ATOM     17  H   UNL     1      -0.634   2.868  -2.707  0.00  0.00    -0.089 HD
ATOM     18  N   UNL     1      -1.505   2.794  -2.185  0.00  0.00    +0.383 N 
ATOM     19  H   UNL     1      -1.886   1.847  -2.300  0.00  0.00    -0.089 HD
ENDBRANCH   3  18
ENDBRANCH   2   3
ENDBRANCH   1   2
BRANCH   1  20
ATOM     20  C   UNL     1      -4.233   1.313   0.677  0.00  0.00    +0.144 C 
BRANCH  20  21
ATOM     21  C   UNL     1      -3.925   1.464   2.144  0.00  0.00    -0.007 A 
ATOM     22  C   UNL     1      -4.954   1.636   3.052  0.00  0.00    +0.007 A 
ATOM     23  C   UNL     1      -4.672   1.770   4.398  0.00  0.00    +0.000 A 
ATOM     24  C   UNL     1      -3.361   1.741   4.837  0.00  0.00    +0.000 A 
ATOM     25  C   UNL     1      -2.333   1.574   3.929  0.00  0.00    +0.000 A 
ATOM     26  C   UNL     1      -2.615   1.435   2.582  0.00  0.00    +0.007 A 
ENDBRANCH  20  21
BRANCH  20  27
ATOM     27  C   UNL     1      -5.306   2.295   0.285  0.00  0.00    -0.007 A 
ATOM     28  C   UNL     1      -6.222   1.963  -0.696  0.00  0.00    +0.007 A 
ATOM     29  C   UNL     1      -7.210   2.863  -1.052  0.00  0.00    +0.000 A 
ATOM     30  C   UNL     1      -7.275   4.098  -0.435  0.00  0.00    +0.000 A 
ATOM     31  C   UNL     1      -6.356   4.431   0.542  0.00  0.00    +0.000 A 
ATOM     32  C   UNL     1      -5.372   3.530   0.902  0.00  0.00    +0.007 A 
ENDBRANCH  20  27
BRANCH  20  33
ATOM     33  C   UNL     1      -4.712  -0.090   0.405  0.00  0.00    -0.007 A 
ATOM     34  C   UNL     1      -5.859  -0.559   1.017  0.00  0.00    +0.007 A 
ATOM     35  C   UNL     1      -6.301  -1.844   0.765  0.00  0.00    +0.000 A 
ATOM     36  C   UNL     1      -5.591  -2.663  -0.092  0.00  0.00    +0.000 A 
ATOM     37  C   UNL     1      -4.441  -2.196  -0.700  0.00  0.00    +0.000 A 
ATOM     38  C   UNL     1      -4.001  -0.909  -0.451  0.00  0.00    +0.007 A 
ENDBRANCH  20  33
ENDBRANCH   1  20
TORSDOF 9
