REMARK  Name = ZINC09782523
REMARK  13 active torsions:
REMARK  status: ('A' for Active; 'I' for Inactive)
REMARK    1  A    between atoms: C_1  and  C_2
REMARK    2  A    between atoms: C_2  and  C_3
REMARK    3  A    between atoms: C_3  and  C_4
REMARK    4  A    between atoms: C_4  and  O_5
REMARK    5  A    between atoms: O_5  and  C_6
REMARK    6  A    between atoms: C_11  and  C_12
REMARK    7  A    between atoms: C_20  and  C_22
REMARK    8  A    between atoms: C_22  and  C_23
REMARK    9  A    between atoms: C_23  and  O_25
REMARK   10  A    between atoms: O_25  and  C_26
REMARK   11  A    between atoms: C_26  and  C_28
REMARK   12  A    between atoms: C_26  and  C_29
REMARK   13  A    between atoms: C_29  and  C_30
REMARK                            x       y       z     vdW  Elec       q    Type
REMARK                         _______ _______ _______ _____ _____    ______ ____
ROOT
ATOM      1  C   UNL     1      -1.037   3.212  -0.038  0.00  0.00    +0.251 C 
ATOM      2  O   UNL     1      -0.398   3.839  -0.861  0.00  0.00    -0.270 OA
ATOM      3  N   UNL     1      -0.454   2.208   0.646  0.00  0.00    -0.284 N 
ATOM      4  C   UNL     1      -1.233   1.339   1.544  0.00  0.00    +0.127 C 
ATOM      5  C   UNL     1      -1.144  -0.096   1.013  0.00  0.00    +0.123 C 
ATOM      6  N   UNL     1       0.234  -0.439   0.690  0.00  0.00    -0.312 N 
ATOM      7  C   UNL     1       1.194   0.449   0.425  0.00  0.00    +0.234 C 
ATOM      8  O   UNL     1       2.284   0.038   0.087  0.00  0.00    -0.274 OA
ATOM      9  C   UNL     1       0.986   1.935   0.526  0.00  0.00    +0.173 C 
ATOM     10  H   UNL     1       0.470  -1.380   0.662  0.00  0.00    +0.149 HD
ENDROOT
BRANCH   1  16
ATOM     11  C   UNL     1      -3.342   3.690  -0.862  0.00  0.00    +0.133 A 
ATOM     12  C   UNL     1      -4.670   4.008  -0.616  0.00  0.00    +0.046 A 
ATOM     13  C   UNL     1      -5.110   4.186   0.680  0.00  0.00    +0.004 A 
ATOM     14  C   UNL     1      -4.233   4.049   1.743  0.00  0.00    +0.001 A 
ATOM     15  C   UNL     1      -2.912   3.728   1.518  0.00  0.00    +0.017 A 
ATOM     16  C   UNL     1      -2.452   3.550   0.211  0.00  0.00    +0.078 A 
BRANCH  11  17
ATOM     17  O   UNL     1      -2.908   3.514  -2.135  0.00  0.00    -0.491 OA
BRANCH  17  18
ATOM     18  C   UNL     1      -3.861   3.724  -3.180  0.00  0.00    +0.229 C 
BRANCH  18  19
ATOM     19  C   UNL     1      -3.171   3.567  -4.537  0.00  0.00    +0.041 C 
BRANCH  19  21
ATOM     20  C   UNL     1      -3.471   3.751  -7.011  0.00  0.00    +0.004 C 
ATOM     21  C   UNL     1      -4.161   3.907  -5.654  0.00  0.00    -0.000 C 
ENDBRANCH  19  21
ENDBRANCH  18  19
ENDBRANCH  17  18
ENDBRANCH  11  17
ENDBRANCH   1  16
BRANCH   9  22
ATOM     22  C   UNL     1       1.533   2.615  -0.731  0.00  0.00    +0.152 C 
BRANCH  22  23
ATOM     23  C   UNL     1       1.758   4.079  -0.452  0.00  0.00    +0.310 C 
ATOM     24  O   UNL     1       1.603   4.512   0.665  0.00  0.00    -0.251 OA
BRANCH  23  25
ATOM     25  O   UNL     1       2.130   4.902  -1.445  0.00  0.00    -0.462 OA
BRANCH  25  26
ATOM     26  C   UNL     1       2.342   6.297  -1.101  0.00  0.00    +0.173 C 
ATOM     27  C   UNL     1       3.777   6.487  -0.606  0.00  0.00    +0.052 C 
BRANCH  26  28
ATOM     28  C   UNL     1       2.109   7.168  -2.337  0.00  0.00    +0.041 C 
ATOM     29  C   UNL     1       0.636   7.091  -2.745  0.00  0.00    +0.007 C 
ENDBRANCH  26  28
ENDBRANCH  25  26
ENDBRANCH  23  25
ENDBRANCH  22  23
ENDBRANCH   9  22
TORSDOF 10
