REMARK  Name = ZINC05137372
REMARK  9 active torsions:
REMARK  status: ('A' for Active; 'I' for Inactive)
REMARK    1  A    between atoms: C_1  and  C_2
REMARK    2  A    between atoms: C_2  and  N_3
REMARK    3  A    between atoms: N_3  and  C_4
REMARK    4  A    between atoms: N_3  and  C_6
REMARK    5  A    between atoms: C_4  and  C_5
REMARK    6  A    between atoms: C_9  and  C_12
REMARK    7  A    between atoms: C_20  and  O_27
REMARK    8  A    between atoms: C_23  and  C_24
REMARK    9  A    between atoms: C_23  and  N_59
REMARK                            x       y       z     vdW  Elec       q    Type
REMARK                         _______ _______ _______ _____ _____    ______ ____
ROOT
ATOM      1  C   UNL     1       2.452   3.935  -0.000  0.00  0.00    -0.031 C 
ATOM      2  C   UNL     1       2.776   4.405   1.421  0.00  0.00    +0.011 C 
ATOM      3  C   UNL     1       1.645   5.305   1.923  0.00  0.00    +0.005 C 
ATOM      4  C   UNL     1       1.972   5.803   3.332  0.00  0.00    +0.000 C 
ATOM      5  C   UNL     1       3.276   6.603   3.298  0.00  0.00    +0.003 C 
ATOM      6  C   UNL     1       4.410   5.704   2.803  0.00  0.00    +0.035 C 
ATOM      7  C   UNL     1       4.087   5.195   1.398  0.00  0.00    +0.066 C 
ATOM      8  C   UNL     1       3.945   6.379   0.439  0.00  0.00    +0.016 C 
ATOM      9  C   UNL     1       3.581   5.857  -0.954  0.00  0.00    -0.075 C 
ATOM     10  N   UNL     1       2.301   5.120  -0.872  0.00  0.00    +0.390 N 
ATOM     11  H   UNL     1       1.586   5.738  -0.472  0.00  0.00    -0.080 HD
ENDROOT
BRANCH   1  15
ATOM     12  C   UNL     1      -1.224   1.755   0.017  0.00  0.00    +0.030 A 
ATOM     13  C   UNL     1      -0.013   1.076   0.008  0.00  0.00    +0.023 A 
ATOM     14  C   UNL     1       1.173   1.783   0.000  0.00  0.00    +0.004 A 
ATOM     15  C   UNL     1       1.156   3.166   0.008  0.00  0.00    -0.060 A 
ATOM     16  C   UNL     1      -0.049   3.845   0.024  0.00  0.00    +0.004 A 
ATOM     17  C   UNL     1      -1.239   3.144   0.031  0.00  0.00    +0.023 A 
BRANCH  12  18
ATOM     18  N   UNL     1      -2.426   1.042   0.019  0.00  0.00    -0.330 N 
BRANCH  18  20
ATOM     19  C   UNL     1      -4.154   2.018  -1.410  0.00  0.00    +0.024 C 
ATOM     20  C   UNL     1      -3.703   1.760   0.029  0.00  0.00    +0.102 C 
ENDBRANCH  18  20
BRANCH  18  21
ATOM     21  C   UNL     1      -2.409  -0.422   0.011  0.00  0.00    +0.102 C 
ATOM     22  C   UNL     1      -2.396  -0.940   1.451  0.00  0.00    +0.024 C 
ENDBRANCH  18  21
ENDBRANCH  12  18
ENDBRANCH   1  15
BRANCH   7  23
ATOM     23  O   UNL     1       5.141   4.343   0.948  0.00  0.00    -0.388 OA
ATOM     24  H   UNL     1       6.004   4.777   0.899  0.00  0.00    +0.210 HD
ENDBRANCH   7  23
BRANCH  10  25
ATOM     25  C   UNL     1       1.874   4.701  -2.223  0.00  0.00    +0.019 C 
BRANCH  25  26
ATOM     26  C   UNL     1       1.519   5.929  -3.021  0.00  0.00    +0.194 C 
ATOM     27  O   UNL     1       1.630   7.030  -2.523  0.00  0.00    -0.278 OA
ATOM     28  N   UNL     1       1.078   5.805  -4.288  0.00  0.00    -0.331 N 
ATOM     29  H   UNL     1       0.989   4.925  -4.687  0.00  0.00    +0.145 HD
ATOM     30  H   UNL     1       0.850   6.595  -4.802  0.00  0.00    +0.145 HD
ENDBRANCH  25  26
ENDBRANCH  10  25
TORSDOF 7
