REMARK  Name = ZINC08920342
REMARK  8 active torsions:
REMARK  status: ('A' for Active; 'I' for Inactive)
REMARK    1  A    between atoms: C_1  and  C_2
REMARK    2  A    between atoms: C_2  and  C_3
REMARK    3  A    between atoms: C_3  and  C_4
REMARK    4  A    between atoms: C_3  and  C_5
REMARK    5  A    between atoms: C_3  and  C_6
REMARK    6  A    between atoms: C_15  and  O_32
REMARK    7  A    between atoms: C_17  and  C_20
REMARK    8  A    between atoms: C_23  and  C_25
REMARK                            x       y       z     vdW  Elec       q    Type
REMARK                         _______ _______ _______ _____ _____    ______ ____
ROOT
ATOM      1  C   UNL     1      -1.413  -2.063   0.004  0.00  0.00    -0.000 C 
ATOM      2  C   UNL     1      -2.848  -2.596   0.015  0.00  0.00    +0.009 C 
ATOM      3  C   UNL     1      -2.845  -4.104  -0.242  0.00  0.00    +0.037 C 
ATOM      4  C   UNL     1      -1.888  -4.768   0.742  0.00  0.00    -0.023 A 
ATOM      5  C   UNL     1      -0.943  -4.044   1.385  0.00  0.00    -0.004 A 
ATOM      6  S   UNL     1      -0.087  -5.216   2.405  0.00  0.00    -0.078 S 
ATOM      7  C   UNL     1      -0.963  -6.624   1.986  0.00  0.00    +0.080 A 
ATOM      8  C   UNL     1      -1.913  -6.186   1.054  0.00  0.00    +0.068 A 
ATOM      9  C   UNL     1      -2.829  -7.209   0.485  0.00  0.00    +0.220 C 
ATOM     10  N   UNL     1      -2.858  -8.381   1.059  0.00  0.00    -0.220 NA
ATOM     11  C   UNL     1      -2.107  -8.739   2.255  0.00  0.00    +0.260 C 
ATOM     12  N   UNL     1      -0.876  -7.936   2.385  0.00  0.00    -0.311 N 
ATOM     13  C   UNL     1      -0.686  -2.575   1.257  0.00  0.00    +0.046 C 
ATOM     14  H   UNL     1      -0.053  -8.313   2.732  0.00  0.00    +0.149 HD
ENDROOT
BRANCH  11  15
ATOM     15  C   UNL     1      -2.973  -8.510   3.467  0.00  0.00    +0.148 A 
ATOM     16  C   UNL     1      -4.319  -8.569   3.493  0.00  0.00    +0.049 A 
ATOM     17  C   UNL     1      -4.719  -8.294   4.816  0.00  0.00    +0.050 A 
ATOM     18  C   UNL     1      -3.583  -8.080   5.532  0.00  0.00    +0.135 A 
ATOM     19  O   UNL     1      -2.532  -8.220   4.702  0.00  0.00    -0.456 OA
BRANCH  18  20
ATOM     20  C   UNL     1      -3.514  -7.756   6.972  0.00  0.00    +0.018 A 
ATOM     21  C   UNL     1      -2.276  -7.560   7.588  0.00  0.00    +0.011 A 
ATOM     22  C   UNL     1      -2.218  -7.257   8.932  0.00  0.00    +0.002 A 
ATOM     23  C   UNL     1      -3.382  -7.147   9.671  0.00  0.00    +0.015 A 
ATOM     24  C   UNL     1      -4.613  -7.340   9.067  0.00  0.00    +0.019 A 
ATOM     25  C   UNL     1      -4.685  -7.639   7.721  0.00  0.00    +0.026 A 
ATOM     26 BR   UNL     1      -6.199  -7.187  10.086  0.00  0.00    -0.050 Br
ENDBRANCH  18  20
ENDBRANCH  11  15
BRANCH   1  27
ATOM     27  C   UNL     1      -1.433  -0.534   0.013  0.00  0.00    -0.032 C 
ATOM     28  C   UNL     1      -2.149  -0.040   1.272  0.00  0.00    +0.011 C 
ATOM     29  C   UNL     1      -2.173  -0.027  -1.227  0.00  0.00    +0.011 C 
BRANCH  27  31
ATOM     30  C   UNL     1      -0.019   1.526   0.010  0.00  0.00    +0.004 C 
ATOM     31  C   UNL     1       0.002  -0.004   0.002  0.00  0.00    +0.003 C 
ENDBRANCH  27  31
ENDBRANCH   1  27
BRANCH   9  32
ATOM     32  O   UNL     1      -3.604  -6.935  -0.589  0.00  0.00    -0.492 OA
ATOM     33  H   UNL     1      -4.160  -7.674  -0.872  0.00  0.00    +0.294 HD
ENDBRANCH   9  32
TORSDOF 5
