REMARK  Name = ZINC45898777
REMARK  12 active torsions:
REMARK  status: ('A' for Active; 'I' for Inactive)
REMARK    1  A    between atoms: C_1  and  C_2
REMARK    2  A    between atoms: C_2  and  C_3
REMARK    3  A    between atoms: C_8  and  N_9
REMARK    4  A    between atoms: C_10  and  C_12
REMARK    5  A    between atoms: C_12  and  N_13
REMARK    6  A    between atoms: N_22  and  C_25
REMARK    7  A    between atoms: C_25  and  C_26
REMARK    8  A    between atoms: C_26  and  C_27
REMARK    9  A    between atoms: C_27  and  C_28
REMARK   10  A    between atoms: C_28  and  C_29
REMARK   11  A    between atoms: N_31  and  C_32
REMARK   12  A    between atoms: C_35  and  C_38
REMARK                            x       y       z     vdW  Elec       q    Type
REMARK                         _______ _______ _______ _____ _____    ______ ____
ROOT
ATOM      1  N   UNL     1       6.356  -0.529   0.923  0.00  0.00    -0.284 N 
ATOM      2  C   UNL     1       6.858  -1.798   1.174  0.00  0.00    +0.059 A 
ATOM      3  C   UNL     1       6.043  -2.826   1.623  0.00  0.00    +0.027 A 
ATOM      4  C   UNL     1       6.583  -4.074   1.862  0.00  0.00    +0.002 A 
ATOM      5  C   UNL     1       7.934  -4.311   1.658  0.00  0.00    +0.001 A 
ATOM      6  C   UNL     1       8.760  -3.300   1.212  0.00  0.00    +0.015 A 
ATOM      7  C   UNL     1       8.227  -2.037   0.967  0.00  0.00    +0.063 A 
ATOM      8  C   UNL     1       9.065  -0.922   0.490  0.00  0.00    +0.264 A 
ATOM      9  O   UNL     1      10.255  -1.075   0.294  0.00  0.00    -0.267 OA
ATOM     10  N   UNL     1       8.476   0.275   0.275  0.00  0.00    -0.260 N 
ATOM     11  C   UNL     1       7.162   0.452   0.484  0.00  0.00    +0.333 A 
ATOM     12  O   UNL     1       6.682   1.548   0.270  0.00  0.00    -0.246 OA
ENDROOT
BRANCH   1  13
ATOM     13  C   UNL     1       4.931  -0.259   1.132  0.00  0.00    +0.222 C 
BRANCH  13  15
ATOM     14  N   UNL     1       2.838  -0.366  -0.182  0.00  0.00    -0.284 N 
ATOM     15  C   UNL     1       4.173  -0.545  -0.139  0.00  0.00    +0.237 C 
ATOM     16  O   UNL     1       4.765  -0.937  -1.122  0.00  0.00    -0.274 OA
ATOM     17  H   UNL     1       2.374   0.011   0.582  0.00  0.00    +0.155 HD
BRANCH  14  23
ATOM     18  C   UNL     1       0.837  -1.239  -1.214  0.00  0.00    -0.026 A 
ATOM     19  C   UNL     1       0.130  -1.586  -2.349  0.00  0.00    +0.005 A 
ATOM     20  C   UNL     1       0.701  -1.426  -3.598  0.00  0.00    +0.000 A 
ATOM     21  C   UNL     1       1.982  -0.918  -3.715  0.00  0.00    +0.002 A 
ATOM     22  C   UNL     1       2.695  -0.569  -2.585  0.00  0.00    +0.023 A 
ATOM     23  C   UNL     1       2.121  -0.724  -1.329  0.00  0.00    +0.037 A 
BRANCH  18  25
ATOM     24  C   UNL     1      -0.434  -0.098   0.583  0.00  0.00    +0.009 C 
ATOM     25  C   UNL     1       0.213  -1.413   0.146  0.00  0.00    +0.033 C 
ENDBRANCH  18  25
ENDBRANCH  14  23
ENDBRANCH  13  15
ENDBRANCH   1  13
BRANCH  10  26
ATOM     26  C   UNL     1       9.287   1.400  -0.198  0.00  0.00    +0.130 C 
BRANCH  26  27
ATOM     27  C   UNL     1       9.296   1.413  -1.728  0.00  0.00    +0.022 C 
BRANCH  27  28
ATOM     28  C   UNL     1      10.142   2.587  -2.223  0.00  0.00    +0.011 C 
BRANCH  28  29
ATOM     29  C   UNL     1      10.152   2.600  -3.753  0.00  0.00    +0.096 C 
BRANCH  29  30
ATOM     30  C   UNL     1      10.985   3.757  -4.240  0.00  0.00    +0.217 C 
ATOM     31  O   UNL     1      11.519   4.499  -3.442  0.00  0.00    -0.275 OA
ATOM     32  N   UNL     1      11.137   3.969  -5.563  0.00  0.00    -0.285 N 
ATOM     33  H   UNL     1      10.644   3.429  -6.200  0.00  0.00    +0.155 HD
BRANCH  32  34
ATOM     34  C   UNL     1      12.008   4.966  -6.016  0.00  0.00    +0.033 A 
ATOM     35  C   UNL     1      11.796   5.566  -7.251  0.00  0.00    +0.023 A 
ATOM     36  C   UNL     1      12.656   6.550  -7.696  0.00  0.00    +0.005 A 
ATOM     37  C   UNL     1      13.729   6.938  -6.914  0.00  0.00    -0.050 A 
ATOM     38  C   UNL     1      13.943   6.343  -5.684  0.00  0.00    +0.005 A 
ATOM     39  C   UNL     1      13.082   5.362  -5.231  0.00  0.00    +0.023 A 
ATOM     40  C   UNL     1      14.666   8.012  -7.402  0.00  0.00    +0.044 C 
ENDBRANCH  32  34
ENDBRANCH  29  30
ENDBRANCH  28  29
ENDBRANCH  27  28
ENDBRANCH  26  27
ENDBRANCH  10  26
TORSDOF 10
