REMARK  Name = ZINC09311866
REMARK  16 active torsions:
REMARK  status: ('A' for Active; 'I' for Inactive)
REMARK    1  A    between atoms: C_1  and  C_2
REMARK    2  A    between atoms: C_2  and  O_3
REMARK    3  A    between atoms: O_3  and  C_4
REMARK    4  A    between atoms: C_6  and  C_14
REMARK    5  A    between atoms: C_9  and  O_10
REMARK    6  A    between atoms: O_10  and  C_11
REMARK    7  A    between atoms: C_11  and  C_12
REMARK    8  A    between atoms: C_17  and  C_18
REMARK    9  A    between atoms: C_17  and  O_29
REMARK   10  A    between atoms: C_25  and  C_28
REMARK   11  A    between atoms: N_34  and  C_35
REMARK   12  A    between atoms: C_35  and  C_36
REMARK   13  A    between atoms: C_36  and  C_37
REMARK   14  A    between atoms: C_37  and  N_74
REMARK   15  A    between atoms: C_38  and  N_74
REMARK   16  A    between atoms: C_39  and  N_74
REMARK                            x       y       z     vdW  Elec       q    Type
REMARK                         _______ _______ _______ _____ _____    ______ ____
ROOT
ATOM      1  C   UNL     1      -0.136  -6.590   0.219  0.00  0.00    +0.145 C 
ATOM      2  C   UNL     1      -0.257  -5.085   0.158  0.00  0.00    +0.071 C 
ATOM      3  C   UNL     1       0.699  -4.193  -0.288  0.00  0.00    +0.133 C 
ATOM      4  C   UNL     1      -1.538  -4.776   0.639  0.00  0.00    +0.249 C 
ATOM      5  O   UNL     1      -2.013  -3.660   0.740  0.00  0.00    -0.282 OA
ATOM      6  C   UNL     1      -2.215  -6.050   1.005  0.00  0.00    +0.288 C 
ATOM      7  O   UNL     1      -3.340  -6.135   1.455  0.00  0.00    -0.266 OA
ATOM      8  N   UNL     1      -1.401  -7.091   0.764  0.00  0.00    -0.284 N 
ENDROOT
BRANCH   3   9
ATOM      9  C   UNL     1       0.422  -2.749  -0.273  0.00  0.00    +0.017 A 
ATOM     10  C   UNL     1       0.031  -2.117   0.914  0.00  0.00    +0.015 A 
ATOM     11  C   UNL     1      -0.231  -0.769   0.925  0.00  0.00    +0.046 A 
ATOM     12  C   UNL     1      -0.112  -0.015  -0.245  0.00  0.00    +0.124 A 
ATOM     13  C   UNL     1       0.285  -0.646  -1.421  0.00  0.00    -0.002 A 
ATOM     14  C   UNL     1       0.546  -1.993  -1.446  0.00  0.00    +0.019 A 
ATOM     15  C   UNL     1       0.348   0.421  -2.497  0.00  0.00    +0.083 C 
ATOM     16  C   UNL     1       0.329   1.721  -1.659  0.00  0.00    +0.175 C 
ATOM     17  O   UNL     1      -0.332   1.312  -0.450  0.00  0.00    -0.488 OA
ATOM     18  C   UNL     1      -0.472   2.813  -2.370  0.00  0.00    +0.052 C 
ENDBRANCH   3   9
BRANCH   1  21
ATOM     19  C   UNL     1       1.571  -8.034  -2.826  0.00  0.00    +0.162 A 
ATOM     20  C   UNL     1       1.362  -7.522  -1.556  0.00  0.00    +0.055 A 
ATOM     21  C   UNL     1       0.090  -7.146  -1.163  0.00  0.00    -0.019 A 
ATOM     22  C   UNL     1      -0.975  -7.285  -2.034  0.00  0.00    +0.009 A 
ATOM     23  C   UNL     1      -0.771  -7.790  -3.304  0.00  0.00    +0.050 A 
ATOM     24  C   UNL     1       0.501  -8.168  -3.704  0.00  0.00    +0.162 A 
BRANCH  19  25
ATOM     25  O   UNL     1       2.821  -8.403  -3.214  0.00  0.00    -0.489 OA
BRANCH  25  27
ATOM     26  C   UNL     1       5.195  -8.702  -2.872  0.00  0.00    +0.048 C 
ATOM     27  C   UNL     1       3.873  -8.236  -2.260  0.00  0.00    +0.226 C 
ENDBRANCH  25  27
ENDBRANCH  19  25
BRANCH  24  28
ATOM     28  O   UNL     1       0.702  -8.670  -4.952  0.00  0.00    -0.484 OA
BRANCH  28  29
ATOM     29  C   UNL     1      -0.444  -8.779  -5.800  0.00  0.00    +0.256 C 
BRANCH  29  30
ATOM     30  C   UNL     1      -0.031  -9.350  -7.132  0.00  0.00    +0.006 C 
ATOM     31  C   UNL     1      -0.744 -10.297  -7.688  0.00  0.00    +0.007 C 
ENDBRANCH  29  30
ENDBRANCH  28  29
ENDBRANCH  24  28
ENDBRANCH   1  21
BRANCH   3  32
ATOM     32  O   UNL     1       1.889  -4.647  -0.738  0.00  0.00    -0.506 OA
ATOM     33  H   UNL     1       2.456  -3.874  -1.020  0.00  0.00    +0.292 HD
ENDBRANCH   3  32
BRANCH   8  34
ATOM     34  C   UNL     1      -1.728  -8.499   1.002  0.00  0.00    +0.107 C 
BRANCH  34  35
ATOM     35  C   UNL     1      -2.369  -9.093  -0.254  0.00  0.00    +0.000 C 
BRANCH  35  36
ATOM     36  C   UNL     1      -2.710 -10.564  -0.006  0.00  0.00    -0.078 C 
BRANCH  36  39
ATOM     37  C   UNL     1      -2.364 -11.180  -2.322  0.00  0.00    -0.097 C 
ATOM     38  C   UNL     1      -3.880 -12.466  -0.940  0.00  0.00    -0.097 C 
ATOM     39  N   UNL     1      -3.347 -11.117  -1.220  0.00  0.00    +0.376 N 
ATOM     40  H   UNL     1      -4.122 -10.503  -1.498  0.00  0.00    -0.083 HD
ENDBRANCH  36  39
ENDBRANCH  35  36
ENDBRANCH  34  35
ENDBRANCH   8  34
TORSDOF 12
