REMARK  Name = ZINC09516758
REMARK  9 active torsions:
REMARK  status: ('A' for Active; 'I' for Inactive)
REMARK    1  A    between atoms: C_1  and  C_2
REMARK    2  A    between atoms: C_2  and  C_3
REMARK    3  A    between atoms: C_3  and  N_4
REMARK    4  A    between atoms: C_8  and  S_30
REMARK    5  A    between atoms: C_12  and  S_13
REMARK    6  A    between atoms: S_13  and  C_14
REMARK    7  A    between atoms: C_14  and  C_15
REMARK    8  A    between atoms: C_20  and  C_29
REMARK    9  A    between atoms: S_30  and  N_33
REMARK                            x       y       z     vdW  Elec       q    Type
REMARK                         _______ _______ _______ _____ _____    ______ ____
ROOT
ATOM      1  N   UNL     1      -5.716  -2.282   0.310  0.00  0.00    -0.319 N 
ATOM      2  C   UNL     1      -4.741  -1.351  -0.009  0.00  0.00    +0.070 A 
ATOM      3  C   UNL     1      -4.236  -0.860  -1.203  0.00  0.00    +0.030 A 
ATOM      4  C   UNL     1      -3.241   0.096  -1.186  0.00  0.00    +0.030 A 
ATOM      5  C   UNL     1      -2.733   0.560   0.018  0.00  0.00    +0.107 A 
ATOM      6  C   UNL     1      -3.222   0.082   1.213  0.00  0.00    +0.058 A 
ATOM      7  C   UNL     1      -4.234  -0.881   1.213  0.00  0.00    +0.092 A 
ATOM      8  N   UNL     1      -4.905  -1.529   2.201  0.00  0.00    -0.222 NA
ATOM      9  C   UNL     1      -5.777  -2.353   1.673  0.00  0.00    +0.170 A 
ENDROOT
BRANCH   5  10
ATOM     10  S   UNL     1      -1.456   1.774   0.019  0.00  0.00    +0.056 S 
ATOM     11  O   UNL     1      -1.536   2.446   1.268  0.00  0.00    -0.153 OA
ATOM     12  O   UNL     1      -1.548   2.460  -1.223  0.00  0.00    -0.153 OA
BRANCH  10  13
ATOM     13  N   UNL     1      -0.011   0.966   0.007  0.00  0.00    -0.204 NA
ATOM     14  H   UNL     1       0.002  -0.004   0.002  0.00  0.00    +0.144 HD
ATOM     15  H   UNL     1       0.822   1.462   0.002  0.00  0.00    +0.144 HD
ENDBRANCH  10  13
ENDBRANCH   5  10
BRANCH   1  16
ATOM     16  C   UNL     1      -6.531  -3.047  -0.637  0.00  0.00    +0.124 C 
BRANCH  16  18
ATOM     17  C   UNL     1      -6.672  -5.158  -1.967  0.00  0.00    +0.005 C 
ATOM     18  C   UNL     1      -5.821  -4.359  -0.977  0.00  0.00    +0.018 C 
ENDBRANCH  16  18
ENDBRANCH   1  16
BRANCH   9  19
ATOM     19  S   UNL     1      -6.865  -3.396   2.586  0.00  0.00    -0.078 S 
BRANCH  19  20
ATOM     20  C   UNL     1      -6.383  -2.955   4.273  0.00  0.00    +0.173 C 
BRANCH  20  21
ATOM     21  C   UNL     1      -7.207  -3.747   5.255  0.00  0.00    +0.230 C 
ATOM     22  O   UNL     1      -8.039  -4.534   4.853  0.00  0.00    -0.274 OA
ATOM     23  N   UNL     1      -7.020  -3.583   6.580  0.00  0.00    -0.270 N 
ATOM     24  C   UNL     1      -7.819  -4.343   7.553  0.00  0.00    +0.115 C 
ATOM     25  C   UNL     1      -7.152  -5.654   7.899  0.00  0.00    +0.033 C 
ATOM     26  C   UNL     1      -5.853  -5.541   8.682  0.00  0.00    +0.050 C 
ATOM     27  S   UNL     1      -4.543  -4.865   7.620  0.00  0.00    -0.120 S 
ATOM     28  C   UNL     1      -4.883  -3.121   7.642  0.00  0.00    +0.030 A 
ATOM     29  C   UNL     1      -6.064  -2.679   7.063  0.00  0.00    +0.050 A 
ATOM     30  C   UNL     1      -6.301  -1.312   6.973  0.00  0.00    +0.024 A 
ATOM     31  C   UNL     1      -5.379  -0.421   7.492  0.00  0.00    +0.002 A 
ATOM     32  C   UNL     1      -4.225  -0.874   8.104  0.00  0.00    +0.001 A 
ATOM     33  C   UNL     1      -3.972  -2.235   8.182  0.00  0.00    +0.016 A 
ATOM     34  C   UNL     1      -5.440  -6.928   9.178  0.00  0.00    +0.019 C 
ENDBRANCH  20  21
ENDBRANCH  19  20
ENDBRANCH   9  19
TORSDOF 7
