REMARK  Name = ZINC12642607
REMARK  13 active torsions:
REMARK  status: ('A' for Active; 'I' for Inactive)
REMARK    1  A    between atoms: C_1  and  C_2
REMARK    2  A    between atoms: C_8  and  C_10
REMARK    3  A    between atoms: N_16  and  C_32
REMARK    4  A    between atoms: C_17  and  C_25
REMARK    5  A    between atoms: C_22  and  C_24
REMARK    6  A    between atoms: N_27  and  C_28
REMARK    7  A    between atoms: C_28  and  C_29
REMARK    8  A    between atoms: C_28  and  C_30
REMARK    9  A    between atoms: C_28  and  C_31
REMARK   10  A    between atoms: C_32  and  C_33
REMARK   11  A    between atoms: C_33  and  C_34
REMARK   12  A    between atoms: C_37  and  O_40
REMARK   13  A    between atoms: O_40  and  C_41
REMARK                            x       y       z     vdW  Elec       q    Type
REMARK                         _______ _______ _______ _____ _____    ______ ____
ROOT
ATOM      1  C   UNL     1       2.054  -0.155  -1.395  0.00  0.00    +0.126 C 
ATOM      2  C   UNL     1       1.967   1.380  -1.470  0.00  0.00    +0.128 C 
ATOM      3  C   UNL     1       3.291   2.091  -1.442  0.00  0.00    +0.223 C 
ATOM      4  O   UNL     1       4.257   1.801  -2.115  0.00  0.00    -0.275 OA
ATOM      5  N   UNL     1       3.235   3.108  -0.546  0.00  0.00    -0.286 N 
ATOM      6  C   UNL     1       1.949   3.090   0.193  0.00  0.00    +0.198 C 
ATOM      7  C   UNL     1       1.423   1.707  -0.002  0.00  0.00    +0.127 C 
ATOM      8  C   UNL     1      -0.016   1.335   0.009  0.00  0.00    +0.009 C 
ATOM      9  C   UNL     1       0.002  -0.004   0.002  0.00  0.00    +0.007 C 
ATOM     10  C   UNL     1       1.472  -0.440   0.027  0.00  0.00    +0.098 C 
ATOM     11  O   UNL     1       2.064   0.672   0.791  0.00  0.00    -0.355 OA
ATOM     12  C   UNL     1       1.732  -1.845   0.575  0.00  0.00    +0.047 C 
ENDROOT
BRANCH   1  20
ATOM     13  C   UNL     1      -1.911  -2.933  -6.419  0.00  0.00    +0.089 C 
ATOM     14  C   UNL     1      -1.034  -3.068  -5.201  0.00  0.00    +0.136 A 
ATOM     15  C   UNL     1      -0.438  -2.063  -4.519  0.00  0.00    +0.091 A 
ATOM     16  C   UNL     1       0.264  -2.726  -3.478  0.00  0.00    +0.168 A 
ATOM     17  N   UNL     1       0.022  -4.002  -3.628  0.00  0.00    -0.063 NA
ATOM     18  O   UNL     1      -0.696  -4.207  -4.579  0.00  0.00    -0.358 OA
ATOM     19  N   UNL     1       1.049  -2.133  -2.489  0.00  0.00    -0.267 N 
ATOM     20  C   UNL     1       1.205  -0.795  -2.464  0.00  0.00    +0.225 C 
ATOM     21  O   UNL     1       0.663  -0.105  -3.301  0.00  0.00    -0.275 OA
ATOM     22  H   UNL     1       1.483  -2.685  -1.819  0.00  0.00    +0.156 HD
ENDBRANCH   1  20
BRANCH   6  23
ATOM     23  C   UNL     1       2.180   3.338   1.661  0.00  0.00    +0.237 C 
ATOM     24  O   UNL     1       3.285   3.183   2.136  0.00  0.00    -0.274 OA
ATOM     25  N   UNL     1       1.158   3.731   2.447  0.00  0.00    -0.309 N 
ATOM     26  H   UNL     1       0.274   3.854   2.067  0.00  0.00    +0.149 HD
BRANCH  25  27
ATOM     27  C   UNL     1       1.383   3.972   3.874  0.00  0.00    +0.026 C 
ATOM     28  C   UNL     1       2.428   5.076   4.047  0.00  0.00    +0.031 C 
ATOM     29  C   UNL     1       0.070   4.404   4.531  0.00  0.00    +0.031 C 
ATOM     30  C   UNL     1       1.884   2.687   4.536  0.00  0.00    +0.031 C 
ENDBRANCH  25  27
ENDBRANCH   6  23
BRANCH   5  31
ATOM     31  C   UNL     1       4.300   4.092  -0.337  0.00  0.00    +0.113 C 
BRANCH  31  32
ATOM     32  C   UNL     1       4.082   5.286  -1.267  0.00  0.00    +0.054 C 
BRANCH  32  33
ATOM     33  C   UNL     1       5.178   6.298  -1.052  0.00  0.00    -0.046 A 
ATOM     34  C   UNL     1       5.016   7.301  -0.114  0.00  0.00    +0.007 A 
ATOM     35  C   UNL     1       6.022   8.226   0.089  0.00  0.00    +0.046 A 
ATOM     36  C   UNL     1       7.189   8.156  -0.657  0.00  0.00    +0.120 A 
ATOM     37  C   UNL     1       7.346   7.152  -1.602  0.00  0.00    +0.046 A 
ATOM     38  C   UNL     1       6.340   6.225  -1.797  0.00  0.00    +0.007 A 
BRANCH  36  39
ATOM     39  O   UNL     1       8.177   9.069  -0.464  0.00  0.00    -0.495 OA
ATOM     40  C   UNL     1       7.947  10.074   0.525  0.00  0.00    +0.277 C 
ENDBRANCH  36  39
ENDBRANCH  32  33
ENDBRANCH  31  32
ENDBRANCH   5  31
TORSDOF 7
