REMARK  Name = ZINC39326998
REMARK  9 active torsions:
REMARK  status: ('A' for Active; 'I' for Inactive)
REMARK    1  A    between atoms: C_1  and  C_2
REMARK    2  A    between atoms: C_2  and  O_3
REMARK    3  A    between atoms: O_3  and  C_4
REMARK    4  A    between atoms: C_4  and  C_6
REMARK    5  A    between atoms: C_7  and  C_32
REMARK    6  A    between atoms: C_11  and  N_23
REMARK    7  A    between atoms: C_12  and  C_14
REMARK    8  A    between atoms: C_19  and  C_22
REMARK    9  A    between atoms: C_24  and  C_26
REMARK                            x       y       z     vdW  Elec       q    Type
REMARK                         _______ _______ _______ _____ _____    ______ ____
ROOT
ATOM      1  C   UNL     1       1.246  -2.359  -2.576  0.00  0.00    +0.065 C 
ATOM      2  C   UNL     1       1.589  -3.654  -2.541  0.00  0.00    +0.016 C 
ATOM      3  N   UNL     1       2.377  -4.221  -3.515  0.00  0.00    -0.312 N 
ATOM      4  C   UNL     1       2.581  -3.490  -4.659  0.00  0.00    +0.076 A 
ATOM      5  C   UNL     1       2.278  -2.153  -4.814  0.00  0.00    +0.014 A 
ATOM      6  C   UNL     1       2.550  -1.593  -6.049  0.00  0.00    +0.050 A 
ATOM      7  C   UNL     1       3.108  -2.391  -7.049  0.00  0.00    +0.097 A 
ATOM      8  S   UNL     1       3.252  -3.970  -6.223  0.00  0.00    -0.067 S 
ATOM      9  C   UNL     1       1.675  -1.393  -3.641  0.00  0.00    +0.091 C 
ATOM     10  C   UNL     1       1.099  -4.512  -1.403  0.00  0.00    +0.061 C 
ATOM     11  H   UNL     1       2.771  -5.099  -3.398  0.00  0.00    +0.152 HD
ENDROOT
BRANCH   7  12
ATOM     12  C   UNL     1       3.465  -2.043  -8.367  0.00  0.00    +0.258 C 
ATOM     13  O   UNL     1       3.292  -0.904  -8.764  0.00  0.00    -0.269 OA
ATOM     14  N   UNL     1       3.997  -2.970  -9.188  0.00  0.00    -0.263 N 
ATOM     15  C   UNL     1       4.350  -2.626 -10.492  0.00  0.00    +0.168 A 
ATOM     16  C   UNL     1       4.212  -1.349 -11.082  0.00  0.00    +0.091 A 
ATOM     17  C   UNL     1       4.662  -1.422 -12.346  0.00  0.00    +0.136 A 
ATOM     18  O   UNL     1       5.073  -2.680 -12.572  0.00  0.00    -0.358 OA
ATOM     19  N   UNL     1       4.873  -3.426 -11.386  0.00  0.00    -0.063 NA
ATOM     20  C   UNL     1       4.698  -0.288 -13.339  0.00  0.00    +0.089 C 
ATOM     21  H   UNL     1       4.134  -3.876  -8.872  0.00  0.00    +0.157 HD
ENDBRANCH   7  12
BRANCH   9  22
ATOM     22  C   UNL     1       2.707  -0.450  -3.077  0.00  0.00    -0.035 A 
ATOM     23  C   UNL     1       3.899  -0.946  -2.582  0.00  0.00    +0.004 A 
ATOM     24  C   UNL     1       4.845  -0.082  -2.065  0.00  0.00    +0.000 A 
ATOM     25  C   UNL     1       4.600   1.278  -2.042  0.00  0.00    +0.000 A 
ATOM     26  C   UNL     1       3.409   1.774  -2.537  0.00  0.00    +0.000 A 
ATOM     27  C   UNL     1       2.464   0.910  -3.059  0.00  0.00    +0.004 A 
ENDBRANCH   9  22
BRANCH   6  28
ATOM     28  N   UNL     1       2.271  -0.251  -6.292  0.00  0.00    -0.357 N 
ATOM     29  H   UNL     1       1.883   0.297  -5.593  0.00  0.00    +0.142 HD
ATOM     30  H   UNL     1       2.464   0.135  -7.161  0.00  0.00    +0.142 HD
ENDBRANCH   6  28
BRANCH   1  31
ATOM     31  C   UNL     1       0.418  -1.871  -1.542  0.00  0.00    +0.338 C 
ATOM     32  O   UNL     1      -0.779  -1.750  -1.726  0.00  0.00    -0.245 OA
BRANCH  31  33
ATOM     33  O   UNL     1       0.955  -1.538  -0.349  0.00  0.00    -0.462 OA
BRANCH  33  35
ATOM     34  C   UNL     1       0.842  -0.728   1.925  0.00  0.00    +0.048 C 
ATOM     35  C   UNL     1       0.058  -1.051   0.652  0.00  0.00    +0.229 C 
ENDBRANCH  33  35
ENDBRANCH  31  33
ENDBRANCH   1  31
TORSDOF 6
