REMARK  Name = ZINC36304069
REMARK  14 active torsions:
REMARK  status: ('A' for Active; 'I' for Inactive)
REMARK    1  A    between atoms: C_1  and  C_2
REMARK    2  A    between atoms: C_3  and  C_22
REMARK    3  A    between atoms: C_4  and  O_13
REMARK    4  A    between atoms: N_5  and  C_7
REMARK    5  A    between atoms: O_13  and  C_14
REMARK    6  A    between atoms: C_22  and  N_23
REMARK    7  A    between atoms: N_23  and  C_24
REMARK    8  A    between atoms: N_23  and  C_30
REMARK    9  A    between atoms: C_24  and  C_25
REMARK   10  A    between atoms: C_30  and  C_31
REMARK   11  A    between atoms: C_31  and  C_33
REMARK   12  A    between atoms: C_31  and  O_37
REMARK   13  A    between atoms: C_33  and  C_34
REMARK   14  A    between atoms: C_34  and  C_35
REMARK                            x       y       z     vdW  Elec       q    Type
REMARK                         _______ _______ _______ _____ _____    ______ ____
ROOT
ATOM      1  C   UNL     1      -0.191   2.006   0.476  0.00  0.00    +0.068 C 
ATOM      2  C   UNL     1       0.148   0.538   0.446  0.00  0.00    +0.065 A 
ATOM      3  C   UNL     1       0.221  -0.261  -0.699  0.00  0.00    +0.021 A 
ATOM      4  C   UNL     1       0.553  -1.521  -0.309  0.00  0.00    +0.225 A 
ATOM      5  N   UNL     1       0.683  -1.508   1.045  0.00  0.00    -0.200 N 
ATOM      6  N   UNL     1       0.428  -0.204   1.487  0.00  0.00    -0.168 NA
ENDROOT
BRANCH   5   7
ATOM      7  C   UNL     1       1.018  -2.604   1.853  0.00  0.00    +0.069 A 
ATOM      8  C   UNL     1       0.420  -3.838   1.634  0.00  0.00    +0.028 A 
ATOM      9  C   UNL     1       0.753  -4.915   2.431  0.00  0.00    +0.002 A 
ATOM     10  C   UNL     1       1.679  -4.766   3.447  0.00  0.00    +0.000 A 
ATOM     11  C   UNL     1       2.275  -3.538   3.668  0.00  0.00    +0.002 A 
ATOM     12  C   UNL     1       1.951  -2.458   2.870  0.00  0.00    +0.028 A 
ENDBRANCH   5   7
BRANCH   4  13
ATOM     13  O   UNL     1       0.723  -2.594  -1.121  0.00  0.00    -0.435 OA
BRANCH  13  14
ATOM     14  C   UNL     1      -0.376  -3.322  -1.456  0.00  0.00    +0.166 A 
ATOM     15  C   UNL     1      -1.635  -2.899  -1.061  0.00  0.00    +0.052 A 
ATOM     16  C   UNL     1      -2.751  -3.639  -1.402  0.00  0.00    +0.042 A 
ATOM     17  C   UNL     1      -2.613  -4.803  -2.138  0.00  0.00    +0.126 A 
ATOM     18  C   UNL     1      -1.357  -5.228  -2.535  0.00  0.00    +0.080 A 
ATOM     19  C   UNL     1      -0.238  -4.487  -2.201  0.00  0.00    +0.168 A 
ATOM     20  F   UNL     1       0.988  -4.898  -2.592  0.00  0.00    -0.202 F 
ATOM     21  F   UNL     1      -3.706  -5.525  -2.470  0.00  0.00    -0.205 F 
ENDBRANCH  13  14
ENDBRANCH   4  13
BRANCH   3  22
ATOM     22  C   UNL     1      -0.024   0.193  -2.115  0.00  0.00    -0.035 C 
BRANCH  22  23
ATOM     23  N   UNL     1       1.239   0.654  -2.707  0.00  0.00    +0.389 N 
ATOM     24  H   UNL     1       1.629   1.390  -2.138  0.00  0.00    -0.081 HD
BRANCH  23  25
ATOM     25  C   UNL     1       2.186  -0.468  -2.774  0.00  0.00    -0.003 C 
BRANCH  25  26
ATOM     26  C   UNL     1       3.509   0.024  -3.301  0.00  0.00    +0.089 A 
ATOM     27  C   UNL     1       4.555   0.420  -2.553  0.00  0.00    +0.042 A 
ATOM     28  C   UNL     1       5.581   0.797  -3.451  0.00  0.00    +0.041 A 
ATOM     29  C   UNL     1       5.100   0.608  -4.693  0.00  0.00    +0.195 A 
ATOM     30  O   UNL     1       3.847   0.134  -4.596  0.00  0.00    -0.470 OA
ENDBRANCH  25  26
ENDBRANCH  23  25
BRANCH  23  31
ATOM     31  C   UNL     1       0.987   1.163  -4.062  0.00  0.00    -0.046 C 
BRANCH  31  32
ATOM     32  C   UNL     1       0.150   2.441  -3.978  0.00  0.00    +0.098 C 
BRANCH  32  33
ATOM     33  O   UNL     1      -1.170   2.118  -3.536  0.00  0.00    -0.394 OA
ATOM     34  H   UNL     1      -1.641   1.506  -4.117  0.00  0.00    +0.210 HD
ENDBRANCH  32  33
BRANCH  32  35
ATOM     35  C   UNL     1       0.079   3.095  -5.360  0.00  0.00    +0.033 C 
BRANCH  35  36
ATOM     36  C   UNL     1      -0.651   4.436  -5.252  0.00  0.00    +0.029 C 
BRANCH  36  37
ATOM     37  C   UNL     1      -0.721   5.080  -6.613  0.00  0.00    -0.034 C 
ATOM     38  C   UNL     1      -1.879   5.438  -7.109  0.00  0.00    +0.004 C 
ENDBRANCH  36  37
ENDBRANCH  35  36
ENDBRANCH  32  35
ENDBRANCH  31  32
ENDBRANCH  23  31
ENDBRANCH  22  23
ENDBRANCH   3  22
TORSDOF 13
