REMARK  Name = ZINC08742782
REMARK  5 active torsions:
REMARK  status: ('A' for Active; 'I' for Inactive)
REMARK    1  A    between atoms: C_1  and  C_2
REMARK    2  A    between atoms: C_5  and  C_8
REMARK    3  A    between atoms: C_13  and  C_28
REMARK    4  A    between atoms: C_25  and  C_27
REMARK    5  A    between atoms: C_31  and  C_34
REMARK                            x       y       z     vdW  Elec       q    Type
REMARK                         _______ _______ _______ _____ _____    ______ ____
ROOT
ATOM      1  C   UNL     1      -0.681   1.593  -1.192  0.00  0.00    +0.032 C 
ATOM      2  C   UNL     1      -2.113   1.047  -1.159  0.00  0.00    +0.088 C 
ATOM      3  C   UNL     1      -2.777   1.524   0.099  0.00  0.00    +0.163 C 
ATOM      4  C   UNL     1      -2.092   1.779   1.234  0.00  0.00    +0.037 C 
ATOM      5  C   UNL     1      -2.886   2.264   2.400  0.00  0.00    +0.146 C 
ATOM      6  N   UNL     1      -2.179   3.177   3.263  0.00  0.00    -0.258 N 
ATOM      7  C   UNL     1      -1.222   2.732   4.159  0.00  0.00    +0.058 A 
ATOM      8  C   UNL     1      -1.332   2.944   5.518  0.00  0.00    +0.025 A 
ATOM      9  C   UNL     1      -0.368   2.455   6.381  0.00  0.00    +0.002 A 
ATOM     10  C   UNL     1       0.712   1.749   5.879  0.00  0.00    +0.002 A 
ATOM     11  C   UNL     1       0.845   1.539   4.525  0.00  0.00    +0.025 A 
ATOM     12  C   UNL     1      -0.110   2.036   3.628  0.00  0.00    +0.053 A 
ATOM     13  N   UNL     1       0.053   1.865   2.312  0.00  0.00    -0.316 N 
ATOM     14  C   UNL     1      -0.695   1.593   1.302  0.00  0.00    +0.017 C 
ATOM     15  C   UNL     1       0.040   1.105   0.063  0.00  0.00    +0.059 C 
ATOM     16  C   UNL     1      -2.455   4.494   3.195  0.00  0.00    +0.218 C 
ATOM     17  O   UNL     1      -3.291   4.899   2.415  0.00  0.00    -0.276 OA
ATOM     18  C   UNL     1      -1.727   5.464   4.089  0.00  0.00    +0.110 C 
ATOM     19  O   UNL     1      -4.115   1.706   0.095  0.00  0.00    -0.292 OA
ATOM     20  H   UNL     1       1.133   2.019   2.171  0.00  0.00    +0.152 HD
ENDROOT
BRANCH   1  25
ATOM     21  C   UNL     1       2.046  -0.363  -5.896  0.00  0.00    +0.044 C 
ATOM     22  C   UNL     1       1.336   0.147  -4.669  0.00  0.00    -0.050 A 
ATOM     23  C   UNL     1       1.201   1.508  -4.464  0.00  0.00    +0.003 A 
ATOM     24  C   UNL     1       0.549   1.976  -3.339  0.00  0.00    +0.004 A 
ATOM     25  C   UNL     1       0.031   1.083  -2.419  0.00  0.00    -0.043 A 
ATOM     26  C   UNL     1       0.170  -0.277  -2.622  0.00  0.00    +0.004 A 
ATOM     27  C   UNL     1       0.819  -0.745  -3.749  0.00  0.00    +0.003 A 
ENDBRANCH   1  25
BRANCH   5  28
ATOM     28  C   UNL     1      -3.313   1.072   3.217  0.00  0.00    -0.022 A 
ATOM     29  C   UNL     1      -2.370   0.161   3.656  0.00  0.00    +0.006 A 
ATOM     30  C   UNL     1      -2.760  -0.930   4.409  0.00  0.00    +0.004 A 
ATOM     31  C   UNL     1      -4.096  -1.116   4.716  0.00  0.00    -0.050 A 
ATOM     32  C   UNL     1      -5.039  -0.208   4.273  0.00  0.00    +0.004 A 
ATOM     33  C   UNL     1      -4.648   0.886   3.524  0.00  0.00    +0.006 A 
ATOM     34  C   UNL     1      -4.522  -2.307   5.534  0.00  0.00    +0.044 C 
ENDBRANCH   5  28
TORSDOF 2
