REMARK  Name = ZINC39638330
REMARK  9 active torsions:
REMARK  status: ('A' for Active; 'I' for Inactive)
REMARK    1  A    between atoms: C_1  and  O_2
REMARK    2  A    between atoms: O_2  and  C_3
REMARK    3  A    between atoms: C_7  and  C_11
REMARK    4  A    between atoms: C_8  and  O_9
REMARK    5  A    between atoms: O_9  and  C_10
REMARK    6  A    between atoms: C_11  and  N_12
REMARK    7  A    between atoms: C_13  and  C_15
REMARK    8  A    between atoms: C_26  and  C_28
REMARK    9  A    between atoms: C_31  and  C_34
REMARK                            x       y       z     vdW  Elec       q    Type
REMARK                         _______ _______ _______ _____ _____    ______ ____
ROOT
ATOM      1  C   UNL     1      -1.195  -3.450  -6.567  0.00  0.00    +0.100 C 
ATOM      2  C   UNL     1      -0.775  -2.457  -7.675  0.00  0.00    +0.121 C 
ATOM      3  N   UNL     1      -0.063  -3.289  -8.673  0.00  0.00    -0.296 N 
ATOM      4  C   UNL     1      -0.842  -4.549  -8.726  0.00  0.00    +0.115 C 
ATOM      5  C   UNL     1      -1.241  -4.821  -7.262  0.00  0.00    -0.004 C 
ATOM      6  C   UNL     1      -2.652  -5.399  -7.197  0.00  0.00    -0.010 C 
ATOM      7  C   UNL     1      -2.660  -6.787  -7.842  0.00  0.00    -0.082 C 
ATOM      8  N   UNL     1      -1.717  -7.663  -7.136  0.00  0.00    +0.379 N 
ATOM      9  C   UNL     1      -0.350  -7.149  -7.282  0.00  0.00    -0.082 C 
ATOM     10  C   UNL     1      -0.244  -5.776  -6.613  0.00  0.00    -0.010 C 
ATOM     11  C   UNL     1       1.044  -2.972  -9.374  0.00  0.00    +0.247 C 
ATOM     12  O   UNL     1       1.636  -1.937  -9.139  0.00  0.00    -0.270 OA
ATOM     13  H   UNL     1      -1.960  -7.696  -6.157  0.00  0.00    -0.086 HD
ATOM     14  H   UNL     1      -1.769  -8.593  -7.523  0.00  0.00    -0.086 HD
ENDROOT
BRANCH  11  15
ATOM     15  C   UNL     1       1.537  -3.883 -10.428  0.00  0.00    +0.037 A 
ATOM     16  C   UNL     1       0.675  -4.814 -11.010  0.00  0.00    +0.013 A 
ATOM     17  C   UNL     1       1.141  -5.660 -11.995  0.00  0.00    +0.013 A 
ATOM     18  C   UNL     1       2.461  -5.589 -12.405  0.00  0.00    +0.055 A 
ATOM     19  C   UNL     1       3.321  -4.669 -11.832  0.00  0.00    +0.013 A 
ATOM     20  C   UNL     1       2.865  -3.812 -10.851  0.00  0.00    +0.013 A 
BRANCH  18  21
ATOM     21  C   UNL     1       2.963  -6.517 -13.480  0.00  0.00    +0.417 C 
ATOM     22  F   UNL     1       2.785  -5.920 -14.733  0.00  0.00    -0.166 F 
ATOM     23  F   UNL     1       4.323  -6.775 -13.276  0.00  0.00    -0.166 F 
ATOM     24  F   UNL     1       2.248  -7.719 -13.430  0.00  0.00    -0.166 F 
ENDBRANCH  18  21
ENDBRANCH  11  15
BRANCH   1  26
ATOM     25  N   UNL     1      -0.558  -3.725  -4.193  0.00  0.00    -0.311 N 
ATOM     26  C   UNL     1      -0.175  -3.458  -5.457  0.00  0.00    +0.218 C 
ATOM     27  O   UNL     1       0.989  -3.224  -5.702  0.00  0.00    -0.275 OA
ATOM     28  H   UNL     1      -1.477  -3.974  -4.006  0.00  0.00    +0.149 HD
BRANCH  25  29
ATOM     29  C   UNL     1       0.414  -3.641  -3.100  0.00  0.00    +0.143 C 
BRANCH  29  34
ATOM     30  C   UNL     1      -1.136  -5.551  -0.223  0.00  0.00    +0.162 A 
ATOM     31  C   UNL     1      -1.531  -4.516   0.609  0.00  0.00    +0.049 A 
ATOM     32  C   UNL     1      -1.295  -3.205   0.240  0.00  0.00    +0.004 A 
ATOM     33  C   UNL     1      -0.666  -2.923  -0.959  0.00  0.00    +0.009 A 
ATOM     34  C   UNL     1      -0.271  -3.951  -1.794  0.00  0.00    +0.015 A 
ATOM     35  C   UNL     1      -0.498  -5.268  -1.427  0.00  0.00    +0.166 A 
BRANCH  30  37
ATOM     36  C   UNL     1      -2.026  -7.057   1.388  0.00  0.00    +0.277 C 
ATOM     37  O   UNL     1      -1.367  -6.842   0.139  0.00  0.00    -0.491 OA
ENDBRANCH  30  37
BRANCH  35  38
ATOM     38  O   UNL     1      -0.104  -6.281  -2.244  0.00  0.00    -0.491 OA
ATOM     39  C   UNL     1      -1.088  -6.820  -3.130  0.00  0.00    +0.277 C 
ENDBRANCH  35  38
ENDBRANCH  29  34
ENDBRANCH  25  29
ENDBRANCH   1  26
TORSDOF 7
