REMARK  Name = ZINC21879347
REMARK  7 active torsions:
REMARK  status: ('A' for Active; 'I' for Inactive)
REMARK    1  A    between atoms: C_1  and  C_2
REMARK    2  A    between atoms: C_13  and  C_15
REMARK    3  A    between atoms: C_15  and  C_17
REMARK    4  A    between atoms: C_15  and  S_18
REMARK    5  A    between atoms: S_18  and  C_19
REMARK    6  A    between atoms: C_22  and  C_25
REMARK    7  A    between atoms: N_23  and  N_24
REMARK                            x       y       z     vdW  Elec       q    Type
REMARK                         _______ _______ _______ _____ _____    ______ ____
ROOT
ATOM      1  C   UNL     1      -7.069  -0.077   1.516  0.00  0.00    +0.137 C 
ATOM      2  C   UNL     1      -6.192  -0.077   0.262  0.00  0.00    +0.029 C 
ENDROOT
BRANCH   1  14
ATOM      3  C   UNL     1     -11.155  -0.865   1.166  0.00  0.00    +0.028 C 
ATOM      4  C   UNL     1     -10.291  -2.127   1.206  0.00  0.00    +0.079 C 
ATOM      5  C   UNL     1     -10.696  -2.994   2.401  0.00  0.00    +0.027 C 
ATOM      6  C   UNL     1      -9.868  -4.278   2.386  0.00  0.00    +0.039 C 
ATOM      7  C   UNL     1      -8.401  -3.959   2.267  0.00  0.00    -0.026 A 
ATOM      8  C   UNL     1      -7.474  -4.911   2.660  0.00  0.00    +0.005 A 
ATOM      9  C   UNL     1      -6.122  -4.652   2.554  0.00  0.00    +0.000 A 
ATOM     10  C   UNL     1      -5.684  -3.438   2.055  0.00  0.00    +0.002 A 
ATOM     11  C   UNL     1      -6.601  -2.484   1.664  0.00  0.00    +0.024 A 
ATOM     12  C   UNL     1      -7.963  -2.742   1.771  0.00  0.00    +0.040 A 
ATOM     13  N   UNL     1      -8.878  -1.758   1.372  0.00  0.00    -0.267 N 
ATOM     14  C   UNL     1      -8.470  -0.493   1.149  0.00  0.00    +0.233 C 
ATOM     15  O   UNL     1      -9.230   0.311   0.653  0.00  0.00    -0.274 OA
ENDBRANCH   1  14
BRANCH   1  16
ATOM     16  S   UNL     1      -7.100   1.585   2.231  0.00  0.00    -0.072 S 
BRANCH  16  17
ATOM     17  C   UNL     1      -5.408   1.750   2.695  0.00  0.00    +0.209 A 
ATOM     18  N   UNL     1      -4.463   0.854   2.525  0.00  0.00    -0.121 NA
ATOM     19  N   UNL     1      -3.344   1.301   2.972  0.00  0.00    -0.126 NA
ATOM     20  C   UNL     1      -3.507   2.509   3.465  0.00  0.00    +0.188 A 
ATOM     21  N   UNL     1      -4.835   2.835   3.299  0.00  0.00    -0.223 N 
BRANCH  20  22
ATOM     22  C   UNL     1      -2.468   3.354   4.073  0.00  0.00    +0.058 A 
ATOM     23  C   UNL     1      -1.218   3.003   4.518  0.00  0.00    +0.019 A 
ATOM     24  C   UNL     1      -0.408   3.980   5.052  0.00  0.00    +0.008 A 
ATOM     25  C   UNL     1      -0.870   5.255   5.128  0.00  0.00    +0.046 A 
ATOM     26  S   UNL     1      -2.505   5.104   4.427  0.00  0.00    -0.093 S 
ENDBRANCH  20  22
BRANCH  21  27
ATOM     27  N   UNL     1      -5.451   3.999   3.661  0.00  0.00    -0.295 N 
ATOM     28  H   UNL     1      -4.872   4.801   4.143  0.00  0.00    +0.163 HD
ATOM     29  H   UNL     1      -6.526   4.136   3.470  0.00  0.00    +0.163 HD
ENDBRANCH  21  27
ENDBRANCH  16  17
ENDBRANCH   1  16
TORSDOF 5
