REMARK  Name = ZINC09298459
REMARK  12 active torsions:
REMARK  status: ('A' for Active; 'I' for Inactive)
REMARK    1  A    between atoms: C_1  and  C_2
REMARK    2  A    between atoms: C_2  and  N_3
REMARK    3  A    between atoms: N_3  and  C_4
REMARK    4  A    between atoms: N_3  and  S_6
REMARK    5  A    between atoms: C_4  and  C_5
REMARK    6  A    between atoms: S_6  and  C_9
REMARK    7  A    between atoms: C_12  and  C_15
REMARK    8  A    between atoms: N_17  and  C_18
REMARK    9  A    between atoms: C_19  and  C_28
REMARK   10  A    between atoms: C_31  and  O_33
REMARK   11  A    between atoms: O_33  and  C_34
REMARK   12  A    between atoms: C_34  and  C_35
REMARK                            x       y       z     vdW  Elec       q    Type
REMARK                         _______ _______ _______ _____ _____    ______ ____
ROOT
ATOM      1  C   UNL     1       4.354  -1.687   1.453  0.00  0.00    +0.085 A 
ATOM      2  C   UNL     1       2.999  -1.642   1.746  0.00  0.00    +0.069 A 
ATOM      3  C   UNL     1       2.179  -0.684   1.016  0.00  0.00    -0.023 A 
ATOM      4  C   UNL     1       2.846   0.061   0.110  0.00  0.00    -0.004 A 
ATOM      5  S   UNL     1       4.530  -0.479   0.224  0.00  0.00    -0.077 S 
ATOM      6  C   UNL     1       2.288   1.104  -0.807  0.00  0.00    +0.043 C 
ATOM      7  C   UNL     1       1.406   2.067  -0.000  0.00  0.00    +0.005 C 
ATOM      8  C   UNL     1      -0.019   1.523   0.010  0.00  0.00    +0.001 C 
ATOM      9  C   UNL     1       0.002  -0.004   0.002  0.00  0.00    +0.005 C 
ATOM     10  C   UNL     1       0.683  -0.535   1.259  0.00  0.00    +0.037 C 
ENDROOT
BRANCH   2  11
ATOM     11  C   UNL     1       2.413  -2.526   2.756  0.00  0.00    +0.255 C 
ATOM     12  O   UNL     1       1.984  -3.618   2.434  0.00  0.00    -0.270 OA
ATOM     13  N   UNL     1       2.348  -2.130   4.043  0.00  0.00    -0.217 N 
ATOM     14  C   UNL     1       1.808  -2.944   4.972  0.00  0.00    +0.407 C 
ATOM     15  O   UNL     1       1.381  -4.034   4.650  0.00  0.00    -0.226 OA
ATOM     16  H   UNL     1       2.690  -1.260   4.300  0.00  0.00    +0.161 HD
BRANCH  14  17
ATOM     17  O   UNL     1       1.744  -2.548   6.257  0.00  0.00    -0.450 OA
BRANCH  17  18
ATOM     18  C   UNL     1       1.150  -3.476   7.203  0.00  0.00    +0.230 C 
ATOM     19  C   UNL     1       1.164  -2.857   8.602  0.00  0.00    +0.048 C 
ENDBRANCH  17  18
ENDBRANCH  14  17
ENDBRANCH   2  11
BRANCH   1  22
ATOM     20  C   UNL     1       6.606  -2.401   1.590  0.00  0.00    +0.249 C 
ATOM     21  O   UNL     1       6.903  -1.598   0.727  0.00  0.00    -0.270 OA
ATOM     22  N   UNL     1       5.329  -2.500   2.007  0.00  0.00    -0.275 N 
ATOM     23  H   UNL     1       5.091  -3.141   2.695  0.00  0.00    +0.156 HD
BRANCH  20  27
ATOM     24  C   UNL     1       9.595  -4.895   3.289  0.00  0.00    +0.106 A 
ATOM     25  C   UNL     1       9.936  -3.981   2.308  0.00  0.00    +0.029 A 
ATOM     26  C   UNL     1       8.971  -3.168   1.752  0.00  0.00    +0.015 A 
ATOM     27  C   UNL     1       7.646  -3.269   2.181  0.00  0.00    +0.037 A 
ATOM     28  C   UNL     1       7.309  -4.188   3.176  0.00  0.00    +0.015 A 
ATOM     29  C   UNL     1       8.284  -4.999   3.720  0.00  0.00    +0.029 A 
BRANCH  24  30
ATOM     30  S   UNL     1      10.835  -5.930   3.994  0.00  0.00    +0.061 S 
ATOM     31  O   UNL     1      10.166  -7.076   4.502  0.00  0.00    -0.153 OA
ATOM     32  O   UNL     1      11.881  -6.020   3.036  0.00  0.00    -0.153 OA
BRANCH  30  33
ATOM     33  N   UNL     1      11.458  -5.127   5.301  0.00  0.00    -0.177 NA
BRANCH  33  35
ATOM     34  C   UNL     1      11.627  -6.393   7.387  0.00  0.00    +0.022 C 
ATOM     35  C   UNL     1      10.860  -5.310   6.626  0.00  0.00    +0.106 C 
ENDBRANCH  33  35
BRANCH  33  36
ATOM     36  C   UNL     1      12.607  -4.234   5.133  0.00  0.00    +0.106 C 
ATOM     37  C   UNL     1      12.113  -2.797   4.947  0.00  0.00    +0.022 C 
ENDBRANCH  33  36
ENDBRANCH  30  33
ENDBRANCH  24  30
ENDBRANCH  20  27
ENDBRANCH   1  22
TORSDOF 9
