REMARK  Name = ZINC10109352
REMARK  12 active torsions:
REMARK  status: ('A' for Active; 'I' for Inactive)
REMARK    1  A    between atoms: C_1  and  C_2
REMARK    2  A    between atoms: C_2  and  C_3
REMARK    3  A    between atoms: C_2  and  C_4
REMARK    4  A    between atoms: C_4  and  C_6
REMARK    5  A    between atoms: C_4  and  N_26
REMARK    6  A    between atoms: N_8  and  N_9
REMARK    7  A    between atoms: C_10  and  C_12
REMARK    8  A    between atoms: C_15  and  C_18
REMARK    9  A    between atoms: C_18  and  O_19
REMARK   10  A    between atoms: O_19  and  C_20
REMARK   11  A    between atoms: N_26  and  S_27
REMARK   12  A    between atoms: S_27  and  C_30
REMARK                            x       y       z     vdW  Elec       q    Type
REMARK                         _______ _______ _______ _____ _____    ______ ____
ROOT
ATOM      1  C   UNL     1      -0.843   1.555  -0.785  0.00  0.00    +0.248 C 
ATOM      2  O   UNL     1      -1.988   1.821  -0.486  0.00  0.00    -0.273 OA
ATOM      3  N   UNL     1      -0.509   1.372  -2.078  0.00  0.00    -0.233 N 
ATOM      4  H   UNL     1       0.389   1.091  -2.312  0.00  0.00    +0.173 HD
ENDROOT
BRANCH   3   5
ATOM      5  N   UNL     1      -1.460   1.587  -3.084  0.00  0.00    -0.230 N 
ATOM      6  C   UNL     1      -1.126   1.403  -4.377  0.00  0.00    +0.260 C 
ATOM      7  O   UNL     1      -0.000   1.051  -4.670  0.00  0.00    -0.269 OA
ATOM      8  H   UNL     1      -2.358   1.868  -2.851  0.00  0.00    +0.173 HD
BRANCH   6   9
ATOM      9  C   UNL     1      -2.129   1.630  -5.439  0.00  0.00    +0.038 A 
ATOM     10  C   UNL     1      -3.425   2.029  -5.106  0.00  0.00    +0.013 A 
ATOM     11  C   UNL     1      -4.354   2.244  -6.102  0.00  0.00    +0.008 A 
ATOM     12  C   UNL     1      -4.008   2.055  -7.428  0.00  0.00    -0.010 A 
ATOM     13  C   UNL     1      -2.728   1.654  -7.765  0.00  0.00    +0.008 A 
ATOM     14  C   UNL     1      -1.787   1.441  -6.779  0.00  0.00    +0.013 A 
BRANCH  12  15
ATOM     15  C   UNL     1      -5.031   2.286  -8.511  0.00  0.00    +0.264 C 
BRANCH  15  16
ATOM     16  O   UNL     1      -5.735   1.069  -8.768  0.00  0.00    -0.487 OA
BRANCH  16  17
ATOM     17  C   UNL     1      -6.700   1.105  -9.725  0.00  0.00    +0.121 A 
ATOM     18  C   UNL     1      -6.967   2.288 -10.398  0.00  0.00    +0.045 A 
ATOM     19  C   UNL     1      -7.944   2.321 -11.374  0.00  0.00    +0.004 A 
ATOM     20  C   UNL     1      -8.664   1.178 -11.672  0.00  0.00    +0.000 A 
ATOM     21  C   UNL     1      -8.403  -0.001 -10.998  0.00  0.00    +0.004 A 
ATOM     22  C   UNL     1      -7.423  -0.040 -10.025  0.00  0.00    +0.045 A 
ENDBRANCH  16  17
ENDBRANCH  15  16
ENDBRANCH  12  15
ENDBRANCH   6   9
ENDBRANCH   3   5
BRANCH   1  23
ATOM     23  C   UNL     1       0.206   1.430   0.289  0.00  0.00    +0.166 C 
BRANCH  23  25
ATOM     24  C   UNL     1       0.122   3.888   0.731  0.00  0.00    +0.009 C 
ATOM     25  C   UNL     1       1.030   2.718   0.349  0.00  0.00    +0.010 C 
ATOM     26  C   UNL     1       2.136   2.567   1.396  0.00  0.00    +0.009 C 
ENDBRANCH  23  25
BRANCH  23  27
ATOM     27  N   UNL     1      -0.444   1.206   1.583  0.00  0.00    -0.178 NA
ATOM     28  H   UNL     1      -0.966   1.913   1.993  0.00  0.00    +0.149 HD
BRANCH  27  29
ATOM     29  S   UNL     1      -0.288  -0.256   2.345  0.00  0.00    +0.062 S 
ATOM     30  O   UNL     1      -1.024  -0.162   3.558  0.00  0.00    -0.153 OA
ATOM     31  O   UNL     1      -0.553  -1.254   1.369  0.00  0.00    -0.153 OA
BRANCH  29  32
ATOM     32  C   UNL     1       1.406  -0.430   2.797  0.00  0.00    +0.140 A 
ATOM     33  C   UNL     1       1.785  -0.311   4.121  0.00  0.00    +0.031 A 
ATOM     34  C   UNL     1       3.113  -0.454   4.476  0.00  0.00    +0.002 A 
ATOM     35  C   UNL     1       4.066  -0.703   3.506  0.00  0.00    +0.003 A 
ATOM     36  C   UNL     1       3.691  -0.816   2.181  0.00  0.00    +0.040 A 
ATOM     37  C   UNL     1       2.360  -0.679   1.825  0.00  0.00    +0.150 A 
ATOM     38  F   UNL     1       1.992  -0.789   0.529  0.00  0.00    -0.203 F 
ENDBRANCH  29  32
ENDBRANCH  27  29
ENDBRANCH  23  27
ENDBRANCH   1  23
TORSDOF 10
