REMARK  Name = ZINC45681379
REMARK  9 active torsions:
REMARK  status: ('A' for Active; 'I' for Inactive)
REMARK    1  A    between atoms: C_1  and  C_2
REMARK    2  A    between atoms: C_2  and  C_4
REMARK    3  A    between atoms: C_2  and  N_12
REMARK    4  A    between atoms: C_13  and  C_15
REMARK    5  A    between atoms: C_15  and  N_16
REMARK    6  A    between atoms: N_19  and  C_22
REMARK    7  A    between atoms: C_22  and  C_24
REMARK    8  A    between atoms: C_22  and  C_25
REMARK    9  A    between atoms: N_27  and  C_28
REMARK                            x       y       z     vdW  Elec       q    Type
REMARK                         _______ _______ _______ _____ _____    ______ ____
ROOT
ATOM      1  N   UNL     1       5.011  -2.627   0.933  0.00  0.00    -0.298 NA
ATOM      2  C   UNL     1       4.901  -1.176   1.140  0.00  0.00    +0.066 C 
ATOM      3  C   UNL     1       6.302  -0.565   1.204  0.00  0.00    -0.062 C 
ATOM      4  N   UNL     1       7.054  -1.179   2.307  0.00  0.00    +0.389 N 
ATOM      5  C   UNL     1       7.177  -2.624   2.074  0.00  0.00    -0.062 C 
ATOM      6  C   UNL     1       5.783  -3.252   2.016  0.00  0.00    +0.066 C 
ATOM      7  H   UNL     1       6.567  -1.019   3.176  0.00  0.00    -0.081 HD
ENDROOT
BRANCH   4   8
ATOM      8  C   UNL     1       8.393  -0.580   2.380  0.00  0.00    +0.016 C 
ATOM      9  C   UNL     1       8.265   0.934   2.560  0.00  0.00    -0.004 C 
BRANCH   8  10
ATOM     10  C   UNL     1       9.142  -1.163   3.550  0.00  0.00    +0.199 C 
ATOM     11  O   UNL     1       8.533  -1.582   4.512  0.00  0.00    -0.278 OA
ATOM     12  N   UNL     1      10.488  -1.220   3.529  0.00  0.00    -0.314 N 
ATOM     13  H   UNL     1      10.975  -0.885   2.760  0.00  0.00    +0.149 HD
BRANCH  12  14
ATOM     14  C   UNL     1      11.216  -1.787   4.667  0.00  0.00    +0.073 C 
ATOM     15  C   UNL     1      12.460  -1.041   5.152  0.00  0.00    +0.024 C 
ATOM     16  C   UNL     1      12.607  -2.364   4.399  0.00  0.00    +0.024 C 
ENDBRANCH  12  14
ENDBRANCH   8  10
ENDBRANCH   4   8
BRANCH   1  17
ATOM     17  C   UNL     1       3.683  -3.244   0.808  0.00  0.00    +0.180 C 
BRANCH  17  19
ATOM     18  N   UNL     1       1.785  -3.191  -0.777  0.00  0.00    -0.308 N 
ATOM     19  C   UNL     1       3.019  -2.756  -0.453  0.00  0.00    +0.228 C 
ATOM     20  O   UNL     1       3.595  -1.972  -1.178  0.00  0.00    -0.274 OA
ATOM     21  H   UNL     1       1.325  -3.818  -0.197  0.00  0.00    +0.149 HD
BRANCH  18  23
ATOM     22  C   UNL     1       0.439  -1.385  -1.729  0.00  0.00    +0.033 C 
ATOM     23  C   UNL     1       1.140  -2.717  -2.003  0.00  0.00    +0.102 C 
BRANCH  23  24
ATOM     24  C   UNL     1       0.126  -3.733  -2.462  0.00  0.00    -0.009 A 
ATOM     25  C   UNL     1      -0.450  -4.596  -1.549  0.00  0.00    +0.008 A 
ATOM     26  C   UNL     1      -1.380  -5.528  -1.969  0.00  0.00    +0.020 A 
ATOM     27  C   UNL     1      -1.736  -5.598  -3.304  0.00  0.00    +0.042 A 
ATOM     28  C   UNL     1      -1.160  -4.735  -4.219  0.00  0.00    +0.040 A 
ATOM     29  C   UNL     1      -0.233  -3.799  -3.797  0.00  0.00    +0.047 A 
ATOM     30 CL   UNL     1       0.486  -2.711  -4.943  0.00  0.00    -0.083 Cl
ATOM     31 CL   UNL     1      -2.903  -6.769  -3.832  0.00  0.00    -0.083 Cl
ENDBRANCH  23  24
ENDBRANCH  18  23
ENDBRANCH  17  19
ENDBRANCH   1  17
TORSDOF 7
